data_mof_unit_64274.cif
_audit_creation_date              2012-12-10T19:31:07-0500
_audit_creation_method            fapswitch 2.2
_symmetry_space_group_name_H-M    P1
_symmetry_Int_Tables_number       1
_space_group_crystal_system       triclinic
_cell_length_a                    30.818505
_cell_length_b                    29.145734
_cell_length_c                    30.497377
_cell_angle_alpha                 89.987904
_cell_angle_beta                  90.007503
_cell_angle_gamma                 90.316167
_cell_volume                      27393.1784847

loop_
_atom_site_label
_atom_site_type_symbol
_atom_type_description
_atom_site_fract_x
_atom_site_fract_y
_atom_site_fract_z
_atom_type_partial_charge
C1    C     C_R   0.309845 0.000280 0.689711 0.883050
C2    C     C_R   0.631645 0.972408 0.586684 -0.225681
C3    C     C_R   0.750061 0.085742 0.250045 0.883503
C4    C     C_R   0.249982 0.414257 0.249920 0.870886
C5    C     C_R   0.750122 0.585742 0.250020 0.868760
C6    C     C_R   0.749940 0.414261 0.250055 0.879681
C7    C     C_R   0.250055 0.585741 0.250054 0.886647
C8    C     C_R   0.127748 0.971217 0.908443 0.129497
C9    C     C_R   0.872640 0.029372 0.907977 0.127184
C10   C     C_R   0.627335 0.530002 0.907616 0.125195
C11   C     C_R   0.372506 0.529159 0.908134 0.126238
C12   C     C_R   0.627723 0.971179 0.408415 0.129416
C13   C     C_R   0.865935 0.485051 0.583012 -0.211983
C14   C     C_R   0.372645 0.029380 0.407971 0.126805
C15   C     C_R   0.127771 0.529419 0.408119 0.129518
C16   C     C_R   0.872362 0.470379 0.407962 0.127403
C17   C     C_3   0.148178 0.933772 0.934298 -0.496066
C18   C     C_3   0.852741 0.067591 0.933203 -0.490989
C19   C     C_3   0.647705 0.568132 0.932905 -0.483482
C20   C     C_3   0.352429 0.567124 0.933561 -0.490195
C21   C     C_3   0.648117 0.933685 0.434233 -0.495603
C22   C     C_3   0.352753 0.067609 0.433189 -0.490289
C23   C     C_3   0.148700 0.566733 0.434039 -0.494622
C24   C     C_R   0.128656 0.532733 0.589765 -0.227064
C25   C     C_3   0.851638 0.432742 0.433636 -0.491055
C26   C     C_3   0.184337 0.934584 0.899381 -0.484483
C27   C     C_3   0.816587 0.066776 0.898274 -0.486415
C28   C     C_3   0.683933 0.567185 0.898073 -0.488402
C29   C     C_3   0.316270 0.566301 0.898639 -0.486861
C30   C     C_3   0.684276 0.934495 0.399316 -0.484290
C31   C     C_3   0.316600 0.066795 0.398260 -0.485797
C32   C     C_3   0.184917 0.565790 0.399194 -0.484992
C33   C     C_3   0.815436 0.433679 0.398768 -0.484910
C34   C     C_R   0.939274 0.999869 0.939487 0.909876
C35   C     C_R   0.864251 0.014803 0.081530 -0.223524
C36   C     C_R   0.060716 0.000137 0.939489 0.911133
C37   C     C_R   0.439279 0.499868 0.939488 0.911476
C38   C     C_R   0.560698 0.500032 0.939458 0.911968
C39   C     C_R   0.439274 0.999869 0.439487 0.909829
C40   C     C_R   0.560715 0.000137 0.439488 0.911075
C41   C     C_R   0.939253 0.499973 0.439517 0.914939
C42   C     C_R   0.060728 0.500034 0.439502 0.913083
C43   C     C_R   0.439228 0.999815 0.560454 0.919059
C44   C     C_R   0.561496 0.000222 0.559818 0.916199
C45   C     C_R   0.941034 0.499978 0.562253 0.909510
C46   C     C_R   0.131653 0.972426 0.086675 -0.225794
C47   C     C_R   0.060866 0.499954 0.560600 0.918726
C48   C     C_R   0.939225 0.999815 0.060451 0.919141
C49   C     C_R   0.061495 0.000222 0.059819 0.916291
C50   C     C_R   0.439764 0.499812 0.060943 0.918013
C51   C     C_R   0.561174 0.500183 0.060188 0.913831
C52   C     C_R   0.190232 0.000122 0.810026 0.880567
C53   C     C_R   0.809759 0.999889 0.810018 0.885034
C54   C     C_R   0.690233 0.499914 0.810014 0.884807
C55   C     C_R   0.309762 0.499873 0.810020 0.879321
C56   C     C_R   0.690233 0.000120 0.310026 0.880582
C57   C     C_R   0.363784 0.509476 0.080593 -0.221467
C58   C     C_R   0.309759 0.999890 0.310018 0.885079
C59   C     C_R   0.190227 0.499911 0.310021 0.880981
C60   C     C_R   0.809768 0.500095 0.310017 0.884948
C61   C     C_1   0.249737 0.863444 0.749943 -0.203814
C62   C     C_1   0.750264 0.136556 0.749714 -0.226761
C63   C     C_1   0.749832 0.863426 0.750180 -0.208853
C64   C     C_1   0.250069 0.136570 0.750186 -0.201247
C65   C     C_1   0.749902 0.363425 0.749796 -0.204661
C66   C     C_1   0.250079 0.636572 0.749826 -0.206795
C67   C     C_1   0.249734 0.363440 0.750116 -0.197274
C68   C     C_R   0.628416 0.467921 0.090209 -0.220143
C69   C     C_1   0.749900 0.636552 0.750262 -0.213296
C70   C     C_1   0.749704 0.863436 0.249991 -0.203099
C71   C     C_1   0.250294 0.136564 0.249721 -0.226806
C72   C     C_1   0.249856 0.863435 0.250172 -0.208803
C73   C     C_1   0.750117 0.136567 0.250177 -0.201690
C74   C     C_1   0.249930 0.363435 0.249774 -0.201916
C75   C     C_1   0.750252 0.636568 0.249989 -0.223572
C76   C     C_1   0.749881 0.363437 0.250199 -0.210728
C77   C     C_1   0.250106 0.636565 0.250196 -0.204833
C78   C     C_1   0.249650 0.821138 0.749937 -0.012073
C79   C     C_R   0.405533 0.998611 0.592019 -0.027595
C80   C     C_1   0.750208 0.178861 0.749628 -0.001379
C81   C     C_1   0.749800 0.821114 0.750264 -0.002566
C82   C     C_1   0.249992 0.178879 0.750234 0.000897
C83   C     C_1   0.749915 0.321113 0.749721 0.000192
C84   C     C_1   0.250012 0.678883 0.749813 -0.003780
C85   C     C_1   0.249698 0.321133 0.750178 0.001582
C86   C     C_1   0.749787 0.678858 0.750335 -0.009358
C87   C     C_1   0.749608 0.821128 0.250030 -0.011106
C88   C     C_1   0.250268 0.178873 0.249628 -0.001433
C89   C     C_1   0.249870 0.821126 0.250235 -0.002195
C90   C     C_R   0.596061 0.001647 0.590721 -0.080688
C91   C     C_1   0.750097 0.178876 0.250241 0.000182
C92   C     C_1   0.249948 0.321126 0.249698 -0.009992
C93   C     C_1   0.750124 0.678874 0.250002 -0.007901
C94   C     C_1   0.749900 0.321129 0.250261 -0.002471
C95   C     C_1   0.250080 0.678873 0.250258 -0.001229
C96   C     C_1   0.249745 0.771167 0.749890 -0.003217
C97   C     C_1   0.750073 0.228828 0.749629 0.006115
C98   C     C_1   0.749787 0.771136 0.750333 0.002481
C99   C     C_1   0.249857 0.228853 0.750243 0.005094
C100  C     C_1   0.749981 0.271137 0.749661 0.002755
C101  C     C_R   0.907413 0.500731 0.593968 -0.044467
C102  C     C_1   0.249874 0.728859 0.749846 0.003891
C103  C     C_1   0.249757 0.271161 0.750225 0.005816
C104  C     C_1   0.749779 0.728827 0.750358 0.003114
C105  C     C_1   0.749717 0.771153 0.250037 -0.001532
C106  C     C_1   0.250155 0.228843 0.249617 0.007903
C107  C     C_1   0.249937 0.771153 0.250274 0.002338
C108  C     C_1   0.750032 0.228849 0.250280 0.003525
C109  C     C_1   0.250055 0.271153 0.249641 0.000857
C110  C     C_1   0.749890 0.728845 0.250025 0.007625
C111  C     C_1   0.749966 0.271157 0.250287 0.002836
C112  C     C_R   0.690143 0.999838 0.689889 0.861652
C113  C     C_R   0.096035 0.499005 0.590949 -0.089244
C114  C     C_1   0.250007 0.728845 0.250282 0.002827
C115  C     C_R   0.381699 0.977646 0.664082 -0.009288
C116  C     C_R   0.624304 0.032153 0.658022 -0.053008
C117  C     C_R   0.882356 0.525994 0.664399 -0.038473
C118  C     C_R   0.129056 0.464570 0.653753 0.053485
C119  C     C_R   0.881689 0.977626 0.164073 -0.009180
C120  C     C_R   0.124292 0.032140 0.158035 -0.052940
C121  C     C_R   0.383573 0.482032 0.165874 -0.006283
C122  C     C_R   0.627808 0.536341 0.154240 -0.050089
C123  C     C_R   0.341807 0.998160 0.655834 -0.092661
C124  C     C_R   0.905530 0.998611 0.092017 -0.027600
C125  C     C_R   0.658046 0.000472 0.656390 -0.143330
C126  C     C_R   0.842258 0.504680 0.656179 -0.099310
C127  C     C_R   0.158809 0.500386 0.655855 -0.136445
C128  C     C_R   0.841806 0.998164 0.155833 -0.092514
C129  C     C_R   0.158046 0.000473 0.156390 -0.143303
C130  C     C_R   0.342079 0.497714 0.155938 -0.097752
C131  C     C_R   0.658037 0.500932 0.156510 -0.141902
C132  C     C_R   0.332061 0.014145 0.613454 -0.182912
C133  C     C_R   0.663313 0.972605 0.619202 -0.182628
C134  C     C_R   0.833145 0.487178 0.614173 -0.181664
C135  C     C_R   0.096058 0.001648 0.090724 -0.080646
C136  C     C_R   0.160817 0.532786 0.621895 -0.215053
C137  C     C_R   0.832065 0.014172 0.113461 -0.182987
C138  C     C_R   0.163322 0.972622 0.119192 -0.182690
C139  C     C_R   0.331427 0.508703 0.112343 -0.183443
C140  C     C_R   0.660187 0.468383 0.122663 -0.183910
C141  C     C_3   0.417169 0.906626 0.717647 -0.003664
C142  C     C_3   0.373285 0.885054 0.729270 -0.301299
C143  C     C_3   0.371706 0.834525 0.716238 -0.955047
C144  C     C_3   0.623746 0.089464 0.743956 0.146406
C145  C     C_3   0.614634 0.132241 0.771447 -0.360042
C146  C     C_R   0.406241 0.498582 0.092570 -0.022273
C147  C     C_3   0.642682 0.134239 0.812644 -0.930877
C148  C     C_3   0.579040 0.962700 0.709773 0.032360
C149  C     C_3   0.547279 0.934618 0.737498 -0.324446
C150  C     C_3   0.545886 0.884551 0.722927 -0.976255
C151  C     C_3   0.442999 0.044095 0.745974 0.119780
C152  C     C_3   0.427803 0.043449 0.793698 -0.303016
C153  C     C_3   0.464156 0.058249 0.824689 -0.969327
C154  C     C_3   0.923825 0.478607 0.768761 0.150789
C155  C     C_3   0.973495 0.477509 0.769361 -0.376214
C156  C     C_3   0.990857 0.465279 0.814696 -0.967470
C157  C     C_R   0.596047 0.501434 0.090752 -0.087886
C158  C     C_3   0.069768 0.518664 0.711487 0.017129
C159  C     C_3   0.075883 0.552767 0.749030 -0.304678
C160  C     C_3   0.052118 0.597592 0.739963 -0.968525
C161  C     C_3   0.081526 0.381748 0.730072 0.112334
C162  C     C_3   0.098856 0.382499 0.777091 -0.285761
C163  C     C_3   0.068990 0.356030 0.808077 -0.992956
C164  C     C_3   0.885753 0.583977 0.740925 0.038604
C165  C     C_3   0.899887 0.624806 0.769012 -0.341709
C166  C     C_3   0.861179 0.653386 0.783571 -0.936572
C167  C     C_3   0.917133 0.906567 0.217608 -0.003724
C168  C     C_R   0.413230 0.977622 0.632075 -0.024677
C169  C     C_3   0.873240 0.885012 0.229223 -0.301383
C170  C     C_3   0.871634 0.834491 0.216166 -0.954672
C171  C     C_3   0.123727 0.089424 0.243975 0.146066
C172  C     C_3   0.114562 0.132147 0.271522 -0.360069
C173  C     C_3   0.142696 0.134190 0.312657 -0.929218
C174  C     C_3   0.079061 0.962642 0.209767 0.032343
C175  C     C_3   0.047289 0.934544 0.237465 -0.324072
C176  C     C_3   0.045901 0.884486 0.222868 -0.977435
C177  C     C_3   0.943023 0.044017 0.245983 0.119808
C178  C     C_3   0.927837 0.043360 0.293710 -0.303156
C179  C     C_R   0.594593 0.033703 0.624404 0.011270
C180  C     C_3   0.964200 0.058136 0.324697 -0.969077
C181  C     C_3   0.421271 0.419564 0.226302 -0.007295
C182  C     C_3   0.377752 0.397832 0.239149 -0.295106
C183  C     C_3   0.378362 0.345908 0.232850 -0.960006
C184  C     C_3   0.631870 0.605784 0.235391 0.122682
C185  C     C_3   0.605830 0.627908 0.272347 -0.329233
C186  C     C_3   0.633157 0.633119 0.313799 -0.941727
C187  C     C_3   0.574109 0.483633 0.214247 0.029345
C188  C     C_3   0.546145 0.462812 0.250569 -0.316617
C189  C     C_3   0.542761 0.410779 0.245933 -0.973860
C190  C     C_R   0.914596 0.523297 0.633432 0.005575
C191  C     C_3   0.438366 0.561442 0.241532 0.112250
C192  C     C_3   0.423649 0.562346 0.289422 -0.297534
C193  C     C_3   0.458563 0.583212 0.318910 -0.983492
C194  C     C_R   0.098788 0.462904 0.620739 0.020944
C195  C     C_R   0.913218 0.977600 0.132064 -0.024589
C196  C     C_R   0.809945 0.501095 0.689782 0.883706
C197  C     C_R   0.094577 0.033688 0.124419 0.011341
C198  C     C_R   0.415322 0.481885 0.134152 -0.031865
C199  C     C_R   0.598468 0.537454 0.120475 0.007733
C200  C     C_3   0.449060 0.987474 0.663593 -0.691219
C201  C     C_3   0.557359 0.044884 0.653413 -0.536857
C202  C     C_3   0.948970 0.514921 0.666823 -0.589530
C203  C     C_3   0.064414 0.442711 0.649628 -0.678891
C204  C     C_3   0.949054 0.987425 0.163584 -0.691322
C205  C     C_3   0.057340 0.044833 0.153437 -0.536995
C206  C     C_3   0.450164 0.497008 0.165046 -0.689612
C207  C     C_R   0.190309 0.500949 0.689813 0.906606
C208  C     C_3   0.563532 0.559299 0.146768 -0.517166
C209  C     C_3   0.414611 0.987208 0.699549 0.961219
C210  C     C_3   0.589215 0.042763 0.691580 0.894992
C211  C     C_3   0.914128 0.520374 0.701902 0.924200
C212  C     C_3   0.097758 0.446088 0.687081 0.908416
C213  C     C_3   0.914607 0.987158 0.199542 0.961160
C214  C     C_3   0.089200 0.042716 0.191600 0.895067
C215  C     C_3   0.415187 0.497624 0.200589 0.968843
C216  C     C_3   0.595014 0.557604 0.185423 0.887368
C217  C     C_R   0.159381 0.972260 0.878367 0.132529
C218  C     C_R   0.809845 0.000281 0.189711 0.882900
C219  C     C_R   0.841002 0.028346 0.877901 0.131754
C220  C     C_R   0.659051 0.528839 0.877634 0.130535
C221  C     C_R   0.340867 0.528119 0.878060 0.132027
C222  C     C_R   0.659356 0.972220 0.378339 0.132365
C223  C     C_R   0.341007 0.028355 0.377895 0.131346
C224  C     C_R   0.159467 0.528239 0.378114 0.131443
C225  C     C_R   0.840672 0.471545 0.377945 0.130872
C226  C     C_R   0.157758 0.001466 0.842742 -0.097406
C227  C     C_R   0.842214 0.998553 0.842730 -0.097552
C228  C     C_R   0.657710 0.498757 0.842673 -0.095890
C229  C     C_R   0.190143 0.999838 0.189889 0.861627
C230  C     C_R   0.342225 0.498531 0.842734 -0.095595
C231  C     C_R   0.657759 0.001463 0.342741 -0.097268
C232  C     C_R   0.342213 0.998555 0.342729 -0.097619
C233  C     C_R   0.157687 0.498766 0.342689 -0.097164
C234  C     C_R   0.842297 0.501248 0.342684 -0.097839
C235  C     C_R   0.122608 0.031841 0.839010 -0.210832
C236  C     C_R   0.876925 0.967583 0.839443 -0.211536
C237  C     C_R   0.622679 0.467783 0.839415 -0.211806
C238  C     C_R   0.377097 0.467775 0.839292 -0.211135
C239  C     C_R   0.622637 0.031877 0.339036 -0.210714
C240  C     C_R   0.309891 0.500225 0.189691 0.884824
C241  C     C_R   0.376920 0.967578 0.339448 -0.211246
C242  C     C_R   0.122208 0.468412 0.338992 -0.209934
C243  C     C_R   0.877599 0.531847 0.339157 -0.210140
C244  C     C_R   0.090425 0.032013 0.871402 -0.217347
C245  C     C_R   0.909105 0.967419 0.871844 -0.216857
C246  C     C_R   0.590434 0.467745 0.871735 -0.217719
C247  C     C_R   0.409283 0.467616 0.871688 -0.217111
C248  C     C_R   0.590454 0.032049 0.371428 -0.217182
C249  C     C_R   0.409100 0.967413 0.371849 -0.216538
C250  C     C_R   0.089973 0.468367 0.371318 -0.217411
C251  C     C_R   0.690152 0.500509 0.189929 0.863690
C252  C     C_R   0.909829 0.531892 0.371496 -0.217156
C253  C     C_R   0.092900 0.000732 0.906459 -0.109752
C254  C     C_R   0.907073 0.999278 0.906450 -0.110844
C255  C     C_R   0.592710 0.499743 0.906233 -0.109445
C256  C     C_R   0.407089 0.499274 0.906449 -0.109450
C257  C     C_R   0.592901 0.000732 0.406458 -0.109752
C258  C     C_R   0.407072 0.999279 0.406450 -0.110899
C259  C     C_R   0.092715 0.499760 0.406277 -0.110087
C260  C     C_R   0.907256 0.500266 0.406291 -0.111761
C261  C     C_R   0.249926 0.914260 0.749973 0.868274
C262  C     C_R   0.364248 0.014777 0.581524 -0.223414
C263  C     C_R   0.750122 0.085737 0.749970 0.870396
C264  C     C_R   0.749925 0.914256 0.750043 0.877602
C265  C     C_R   0.250053 0.085743 0.750048 0.883650
C266  C     C_R   0.749962 0.414256 0.749937 0.891394
C267  C     C_R   0.250042 0.585743 0.749943 0.869816
C268  C     C_R   0.249883 0.414261 0.750009 0.893370
C269  C     C_R   0.750020 0.585739 0.750071 0.874578
C270  C     C_R   0.749918 0.914258 0.249983 0.868270
C271  C     C_R   0.250128 0.085740 0.249972 0.870425
C272  C     C_R   0.249927 0.914260 0.250041 0.877643
H1    H     H_    0.300526 0.028261 0.605738 0.163844
H2    H     H_    0.634319 0.949002 0.559232 0.146601
H3    H     H_    0.523419 0.864923 0.744433 0.262611
H4    H     H_    0.578678 0.869107 0.725273 0.272200
H5    H     H_    0.452928 0.079643 0.737250 0.153796
H6    H     H_    0.472514 0.022402 0.742370 0.155147
H7    H     H_    0.399853 0.067051 0.797589 0.223938
H8    H     H_    0.416934 0.008272 0.802673 0.246247
H9    H     H_    0.492099 0.034495 0.821926 0.275506
H10   H     H_    0.452150 0.057570 0.859008 0.265585
H11   H     H_    0.475123 0.093673 0.816797 0.267407
H12   H     H_    0.911471 0.446891 0.784777 0.157422
H13   H     H_    0.859374 0.470171 0.551114 0.136060
H14   H     H_    0.911424 0.507441 0.788851 0.136175
H15   H     H_    0.985403 0.452042 0.745135 0.225725
H16   H     H_    0.985942 0.512005 0.760643 0.245312
H17   H     H_    0.980348 0.491180 0.839148 0.264011
H18   H     H_    0.026872 0.464695 0.813838 0.278515
H19   H     H_    0.978922 0.430863 0.824852 0.262379
H20   H     H_    0.034673 0.513062 0.706476 0.141333
H21   H     H_    0.083523 0.534273 0.681356 0.155107
H22   H     H_    0.063312 0.537580 0.779975 0.227566
H23   H     H_    0.111041 0.560154 0.753365 0.237682
H24   H     H_    0.128515 0.559406 0.565018 0.156936
H25   H     H_    0.064718 0.613801 0.709516 0.267501
H26   H     H_    0.057293 0.621642 0.767725 0.266434
H27   H     H_    0.016727 0.591176 0.736366 0.284774
H28   H     H_    0.077481 0.345492 0.719527 0.149642
H29   H     H_    0.048616 0.397534 0.728925 0.133712
H30   H     H_    0.131668 0.366849 0.777918 0.230125
H31   H     H_    0.101707 0.418540 0.788634 0.245464
H32   H     H_    0.035885 0.370837 0.807589 0.272200
H33   H     H_    0.081894 0.358111 0.842015 0.271284
H34   H     H_    0.067166 0.319370 0.798262 0.268935
H35   H     H_    0.857433 0.028907 0.049398 0.133542
H36   H     H_    0.864644 0.561597 0.761213 0.183143
H37   H     H_    0.867413 0.597163 0.712183 0.141426
H38   H     H_    0.917367 0.612128 0.798480 0.220744
H39   H     H_    0.922475 0.646938 0.749876 0.236224
H40   H     H_    0.844309 0.667770 0.754531 0.269408
H41   H     H_    0.872604 0.682245 0.804420 0.263157
H42   H     H_    0.838117 0.632059 0.802883 0.274426
H43   H     H_    0.942935 0.887372 0.235049 0.179739
H44   H     H_    0.923760 0.902182 0.182067 0.140139
H45   H     H_    0.867623 0.887988 0.265111 0.237717
H46   H     H_    0.134335 0.949032 0.059214 0.146503
H47   H     H_    0.846856 0.903499 0.211969 0.210260
H48   H     H_    0.876047 0.830855 0.180186 0.266186
H49   H     H_    0.839714 0.819564 0.225278 0.273569
H50   H     H_    0.897441 0.815091 0.233422 0.263787
H51   H     H_    0.156689 0.092340 0.229510 0.136688
H52   H     H_    0.122224 0.059044 0.266043 0.195299
H53   H     H_    0.120501 0.163376 0.251417 0.228268
H54   H     H_    0.079900 0.131857 0.281655 0.236111
H55   H     H_    0.137246 0.103265 0.333269 0.260177
H56   H     H_    0.134119 0.165028 0.332117 0.262211
H57   H     H_    0.356097 0.519769 0.047353 0.131467
H58   H     H_    0.177464 0.136563 0.303756 0.279992
H59   H     H_    0.112069 0.948818 0.215234 0.177395
H60   H     H_    0.070553 0.957861 0.174707 0.142175
H61   H     H_    0.057231 0.936220 0.272470 0.231000
H62   H     H_    0.014272 0.949282 0.234574 0.235289
H63   H     H_    0.034111 0.881959 0.188520 0.262462
H64   H     H_    0.023423 0.864847 0.244353 0.262472
H65   H     H_    0.078691 0.869039 0.225221 0.272039
H66   H     H_    0.952964 0.079564 0.237268 0.153873
H67   H     H_    0.972530 0.022312 0.242366 0.155139
H68   H     H_    0.628473 0.441115 0.065607 0.156555
H69   H     H_    0.899895 0.066970 0.297613 0.223948
H70   H     H_    0.916959 0.008183 0.302675 0.246230
H71   H     H_    0.992136 0.034375 0.321921 0.275453
H72   H     H_    0.952202 0.057450 0.359019 0.265570
H73   H     H_    0.975176 0.093559 0.316815 0.267538
H74   H     H_    0.447070 0.403194 0.246155 0.184418
H75   H     H_    0.429026 0.411713 0.191539 0.136836
H76   H     H_    0.370662 0.405633 0.274089 0.239689
H77   H     H_    0.351371 0.412307 0.218727 0.212392
H78   H     H_    0.384396 0.337362 0.197891 0.266698
H79   H     H_    0.473149 0.959353 0.665441 0.184647
H80   H     H_    0.346549 0.331123 0.242643 0.273393
H81   H     H_    0.404043 0.330271 0.253484 0.264550
H82   H     H_    0.660412 0.627799 0.227926 0.145739
H83   H     H_    0.644378 0.572250 0.246683 0.189027
H84   H     H_    0.594532 0.662310 0.261700 0.227057
H85   H     H_    0.576893 0.606346 0.279804 0.243188
H86   H     H_    0.644121 0.598996 0.325502 0.271317
H87   H     H_    0.613429 0.649319 0.339964 0.261984
H88   H     H_    0.661946 0.655185 0.307263 0.270926
H89   H     H_    0.606092 0.466746 0.215750 0.184175
H90   H     H_    0.544418 0.079693 0.646503 0.211863
H91   H     H_    0.558817 0.475576 0.182207 0.134693
H92   H     H_    0.560656 0.471186 0.282990 0.231175
H93   H     H_    0.513108 0.477661 0.249268 0.236631
H94   H     H_    0.526993 0.401631 0.214336 0.257703
H95   H     H_    0.523000 0.396603 0.273239 0.263522
H96   H     H_    0.575497 0.395077 0.247292 0.271070
H97   H     H_    0.444302 0.597260 0.230505 0.151972
H98   H     H_    0.470016 0.543371 0.238754 0.144858
H99   H     H_    0.393490 0.582886 0.292244 0.225098
H100  H     H_    0.416449 0.526897 0.300764 0.248112
H101  H     H_    0.532613 0.017485 0.653047 0.155330
H102  H     H_    0.488741 0.562598 0.317198 0.271244
H103  H     H_    0.446957 0.583538 0.353373 0.268602
H104  H     H_    0.465840 0.619028 0.308709 0.267414
H105  H     H_    0.690553 0.949425 0.616517 0.155788
H106  H     H_    0.462762 0.022211 0.657626 0.199705
H107  H     H_    0.962202 0.479603 0.664653 0.178929
H108  H     H_    0.035396 0.464670 0.651816 0.159761
H109  H     H_    0.056742 0.406829 0.639841 0.213227
H110  H     H_    0.973783 0.542754 0.666634 0.189773
H111  H     H_    0.973132 0.959294 0.165420 0.184671
H112  H     H_    0.044377 0.079637 0.146542 0.211904
H113  H     H_    0.032611 0.017416 0.153063 0.155327
H114  H     H_    0.962766 0.022159 0.157629 0.199685
H115  H     H_    0.475652 0.470659 0.169655 0.183670
H116  H     H_    0.801644 0.472690 0.606313 0.162928
H117  H     H_    0.556507 0.594540 0.134811 0.211551
H118  H     H_    0.534334 0.537426 0.149785 0.152410
H119  H     H_    0.462454 0.531720 0.156372 0.197093
H120  H     H_    0.120334 0.055396 0.811625 0.158779
H121  H     H_    0.878858 0.943578 0.812400 0.158077
H122  H     H_    0.620585 0.443620 0.812493 0.157134
H123  H     H_    0.379152 0.443929 0.812130 0.157802
H124  H     H_    0.620385 0.055459 0.311671 0.158759
H125  H     H_    0.378848 0.943567 0.312409 0.158364
H126  H     H_    0.119758 0.444714 0.311723 0.159046
H127  H     H_    0.185506 0.559395 0.621749 0.156221
H128  H     H_    0.879916 0.555724 0.312011 0.158560
H129  H     H_    0.063568 0.055685 0.868742 0.159200
H130  H     H_    0.935626 0.943291 0.869528 0.159463
H131  H     H_    0.563739 0.443509 0.869507 0.156282
H132  H     H_    0.435931 0.443657 0.869252 0.156225
H133  H     H_    0.563618 0.055750 0.368788 0.159282
H134  H     H_    0.435616 0.943280 0.369537 0.159722
H135  H     H_    0.062935 0.444599 0.368753 0.159275
H136  H     H_    0.936737 0.555840 0.369060 0.159135
H137  H     H_    0.159078 0.945614 0.967174 0.197617
H138  H     H_    0.800536 0.028308 0.105752 0.163606
H139  H     H_    0.841641 0.056499 0.966243 0.194631
H140  H     H_    0.872980 0.099263 0.932430 0.212122
H141  H     H_    0.128397 0.901770 0.934017 0.210669
H142  H     H_    0.627904 0.599879 0.932089 0.212173
H143  H     H_    0.341397 0.555790 0.966550 0.194764
H144  H     H_    0.372513 0.598910 0.932939 0.212745
H145  H     H_    0.658565 0.556979 0.965976 0.204188
H146  H     H_    0.659028 0.945480 0.467121 0.197557
H147  H     H_    0.341651 0.056527 0.466232 0.194673
H148  H     H_    0.372999 0.099277 0.432410 0.212301
H149  H     H_    0.190571 0.949454 0.116498 0.155777
H150  H     H_    0.628306 0.901704 0.433920 0.210909
H151  H     H_    0.129386 0.598825 0.433747 0.210225
H152  H     H_    0.871145 0.400784 0.433174 0.211943
H153  H     H_    0.840860 0.444371 0.466574 0.195416
H154  H     H_    0.159367 0.554799 0.466927 0.200300
H155  H     H_    0.216233 0.946544 0.912142 0.212807
H156  H     H_    0.784518 0.055552 0.911191 0.212386
H157  H     H_    0.816169 0.097830 0.877110 0.201057
H158  H     H_    0.185220 0.903184 0.878720 0.200567
H159  H     H_    0.684833 0.598229 0.876900 0.202142
H160  H     H_    0.298892 0.518919 0.103306 0.165819
H161  H     H_    0.284261 0.554828 0.911511 0.211774
H162  H     H_    0.315694 0.597469 0.877634 0.201293
H163  H     H_    0.715813 0.555849 0.911086 0.212649
H164  H     H_    0.716183 0.946408 0.412088 0.212777
H165  H     H_    0.284529 0.055581 0.411178 0.212442
H166  H     H_    0.316189 0.097845 0.377090 0.201201
H167  H     H_    0.685129 0.903116 0.378625 0.200790
H168  H     H_    0.186303 0.597195 0.378539 0.200304
H169  H     H_    0.814257 0.402412 0.377923 0.201337
H170  H     H_    0.783660 0.445485 0.411642 0.212625
H171  H     H_    0.684890 0.442066 0.122727 0.152122
H172  H     H_    0.216611 0.553678 0.412025 0.213301
H173  H     H_    0.442979 0.887452 0.735097 0.179864
H174  H     H_    0.423799 0.902228 0.682108 0.140143
H175  H     H_    0.367665 0.888046 0.765155 0.237724
H176  H     H_    0.346893 0.903516 0.712004 0.210192
H177  H     H_    0.376119 0.830872 0.680260 0.266067
H178  H     H_    0.339794 0.819584 0.725360 0.273468
H179  H     H_    0.397523 0.815149 0.733503 0.264126
H180  H     H_    0.656721 0.092304 0.729509 0.136609
H181  H     H_    0.622180 0.059112 0.766056 0.195317
H182  H     H_    0.357424 0.028862 0.549386 0.133649
H183  H     H_    0.620699 0.163434 0.751328 0.227842
H184  H     H_    0.579950 0.132064 0.781503 0.236037
H185  H     H_    0.637079 0.103364 0.833285 0.260300
H186  H     H_    0.634163 0.165138 0.832041 0.261641
H187  H     H_    0.677478 0.136466 0.803824 0.280136
H188  H     H_    0.612048 0.948872 0.715229 0.177472
H189  H     H_    0.570512 0.957908 0.674719 0.142177
H190  H     H_    0.557235 0.936313 0.772498 0.231164
H191  H     H_    0.514260 0.949355 0.734613 0.235296
H192  H     H_    0.534081 0.882005 0.688586 0.262391
O1    O     O_R   0.321670 0.000000 0.730060 -0.575442
O2    O     O_R   0.730060 0.000000 0.678340 -0.604655
O3    O     O_3   0.408194 0.031305 0.718047 -0.648423
O4    O     O_3   0.906870 0.478817 0.725581 -0.662578
O5    O     O_3   0.089642 0.476607 0.722968 -0.652388
O6    O     O_3   0.112144 0.402657 0.701670 -0.660274
O7    O     O_3   0.923306 0.560372 0.727380 -0.704309
O8    O     O_3   0.918836 0.952632 0.232640 -0.672358
O9    O     O_3   0.092776 0.087282 0.209912 -0.669193
O10   O     O_3   0.077649 0.008998 0.223863 -0.669231
O11   O     O_3   0.908208 0.031251 0.218058 -0.648476
O12   O     O_3   0.421505 0.467036 0.236739 -0.672771
O13   O     O_R   0.769940 0.500000 0.678340 -0.622395
O14   O     O_3   0.606101 0.603301 0.197141 -0.668418
O15   O     O_3   0.578712 0.531452 0.221825 -0.672073
O16   O     O_3   0.405071 0.542662 0.214846 -0.650266
O17   O     O_R   0.230060 0.500000 0.678340 -0.616818
O18   O     O_R   0.769940 0.000000 0.178340 -0.628889
O19   O     O_R   0.230060 0.000000 0.178340 -0.604641
O20   O     O_R   0.269940 0.500000 0.178340 -0.628338
O21   O     O_R   0.730060 0.500000 0.178340 -0.602285
O22   O     O_R   0.275870 0.936860 0.775860 -0.610561
O23   O     O_R   0.724130 0.063140 0.775860 -0.621476
O24   O     O_R   0.724130 0.936860 0.775860 -0.597685
O25   O     O_R   0.678330 0.000000 0.730060 -0.639663
O26   O     O_R   0.275870 0.063140 0.775860 -0.597902
O27   O     O_R   0.775870 0.436860 0.775860 -0.596205
O28   O     O_R   0.224130 0.563140 0.775860 -0.610134
O29   O     O_R   0.224130 0.436860 0.775860 -0.599230
O30   O     O_R   0.775870 0.563140 0.775860 -0.627459
O31   O     O_R   0.775870 0.936860 0.275860 -0.610666
O32   O     O_R   0.224130 0.063140 0.275860 -0.621371
O33   O     O_R   0.224130 0.936860 0.275860 -0.597984
O34   O     O_R   0.775870 0.063140 0.275860 -0.597829
O35   O     O_R   0.275870 0.436860 0.275860 -0.611224
O36   O     O_R   0.821670 0.500000 0.730060 -0.613814
O37   O     O_R   0.724130 0.563140 0.275860 -0.619846
O38   O     O_R   0.724130 0.436860 0.275860 -0.599538
O39   O     O_R   0.275870 0.563140 0.275860 -0.600257
O40   O     O_R   0.224140 0.936870 0.724140 -0.595253
O41   O     O_R   0.775860 0.063130 0.724140 -0.589035
O42   O     O_R   0.775860 0.936870 0.724140 -0.602406
O43   O     O_R   0.224140 0.063130 0.724140 -0.603284
O44   O     O_R   0.724140 0.436870 0.724140 -0.601473
O45   O     O_R   0.275860 0.563130 0.724140 -0.600475
O46   O     O_R   0.275860 0.436870 0.724140 -0.600800
O47   O     O_R   0.178330 0.500000 0.730060 -0.586395
O48   O     O_R   0.724140 0.563130 0.724140 -0.593290
O49   O     O_R   0.724140 0.936870 0.224140 -0.594683
O50   O     O_R   0.275860 0.063130 0.224140 -0.589097
O51   O     O_R   0.275860 0.936870 0.224140 -0.602130
O52   O     O_R   0.724140 0.063130 0.224140 -0.603665
O53   O     O_R   0.224140 0.436870 0.224140 -0.598345
O54   O     O_R   0.775860 0.563130 0.224140 -0.593207
O55   O     O_R   0.775860 0.436870 0.224140 -0.598686
O56   O     O_R   0.224140 0.563130 0.224140 -0.599825
O57   O     O_R   0.230060 0.000000 0.821670 -0.616754
O58   O     O_R   0.821670 0.000000 0.230060 -0.575449
O59   O     O_R   0.769940 0.000000 0.821670 -0.612828
O60   O     O_R   0.730060 0.500000 0.821670 -0.616027
O61   O     O_R   0.269940 0.500000 0.821670 -0.617745
O62   O     O_R   0.730060 0.000000 0.321670 -0.616808
O63   O     O_R   0.269940 0.000000 0.321670 -0.612869
O64   O     O_R   0.230060 0.500000 0.321670 -0.616162
O65   O     O_R   0.769940 0.500000 0.321670 -0.613064
O66   O     O_R   0.178330 0.000000 0.769950 -0.616619
O67   O     O_R   0.821670 0.000000 0.769950 -0.615972
O68   O     O_R   0.678330 0.500000 0.769950 -0.615282
O69   O     O_R   0.178330 0.000000 0.230060 -0.639720
O70   O     O_R   0.321670 0.500000 0.769950 -0.616751
O71   O     O_R   0.678330 0.000000 0.269950 -0.616458
O72   O     O_R   0.321670 0.000000 0.269950 -0.615888
O73   O     O_R   0.178330 0.500000 0.269950 -0.616787
O74   O     O_R   0.821670 0.500000 0.269950 -0.616237
O75   O     O_R   0.954170 0.964330 0.954180 -0.626194
O76   O     O_R   0.045830 0.035670 0.954180 -0.625269
O77   O     O_R   0.045830 0.964330 0.954180 -0.628097
O78   O     O_R   0.954170 0.035670 0.954180 -0.626876
O79   O     O_R   0.454170 0.464330 0.954180 -0.627646
O80   O     O_R   0.321670 0.500000 0.230060 -0.582502
O81   O     O_R   0.545830 0.535670 0.954180 -0.622777
O82   O     O_R   0.545830 0.464330 0.954180 -0.630210
O83   O     O_R   0.454170 0.535670 0.954180 -0.623872
O84   O     O_R   0.454170 0.964330 0.454180 -0.626113
O85   O     O_R   0.545830 0.035670 0.454180 -0.625336
O86   O     O_R   0.545830 0.964330 0.454180 -0.627953
O87   O     O_R   0.454170 0.035670 0.454180 -0.626828
O88   O     O_R   0.954170 0.464330 0.454180 -0.625730
O89   O     O_R   0.045830 0.535670 0.454180 -0.627708
O90   O     O_R   0.045830 0.464330 0.454180 -0.624845
O91   O     O_R   0.678330 0.500000 0.230060 -0.642335
O92   O     O_R   0.954170 0.535670 0.454180 -0.624016
O93   O     O_R   0.454180 0.964360 0.545790 -0.621178
O94   O     O_R   0.545820 0.035640 0.545790 -0.613471
O95   O     O_R   0.545820 0.964360 0.545790 -0.632641
O96   O     O_R   0.454180 0.035640 0.545790 -0.626574
O97   O     O_R   0.954180 0.464360 0.545790 -0.627289
O98   O     O_R   0.045820 0.535640 0.545790 -0.635983
O99   O     O_R   0.045820 0.464360 0.545790 -0.612192
O100  O     O_R   0.954180 0.535640 0.545790 -0.617938
O101  O     O_R   0.954180 0.964360 0.045790 -0.621147
O102  O     O_R   0.269940 0.000000 0.678340 -0.628943
O103  O     O_R   0.045820 0.035640 0.045790 -0.613417
O104  O     O_R   0.045820 0.964360 0.045790 -0.632729
O105  O     O_R   0.954180 0.035640 0.045790 -0.626684
O106  O     O_R   0.454180 0.464360 0.045790 -0.621753
O107  O     O_R   0.545820 0.535640 0.045790 -0.617339
O108  O     O_R   0.545820 0.464360 0.045790 -0.631442
O109  O     O_R   0.454180 0.535640 0.045790 -0.627176
O110  O     O_3   0.418851 0.952697 0.732661 -0.672403
O111  O     O_3   0.592813 0.087334 0.709876 -0.669367
O112  O     O_3   0.577641 0.009062 0.723852 -0.669231
Zn1   Zn    Zn3+2 0.284540 0.000000 0.784540 0.965877
Zn2   Zn    Zn3+2 0.784540 0.000000 0.715470 0.962334
Zn3   Zn    Zn3+2 0.715460 0.500000 0.715470 0.958204
Zn4   Zn    Zn3+2 0.284540 0.500000 0.715470 0.964138
Zn5   Zn    Zn3+2 0.715460 0.000000 0.215470 0.957785
Zn6   Zn    Zn3+2 0.284540 0.000000 0.215470 0.962663
Zn7   Zn    Zn3+2 0.215460 0.500000 0.215470 0.957010
Zn8   Zn    Zn3+2 0.784540 0.500000 0.215470 0.963237
Zn9   Zn    Zn3+2 1.000000 0.952400 0.999990 0.950468
Zn10  Zn    Zn3+2 0.000000 0.047600 0.999990 0.960119
Zn11  Zn    Zn3+2 0.500000 0.452400 0.999990 0.952424
Zn12  Zn    Zn3+2 0.715460 0.000000 0.784540 0.934975
Zn13  Zn    Zn3+2 0.500000 0.547600 0.999990 0.957045
Zn14  Zn    Zn3+2 0.500000 0.952400 0.499990 0.951029
Zn15  Zn    Zn3+2 0.500000 0.047600 0.499990 0.960342
Zn16  Zn    Zn3+2 1.000000 0.452400 0.499990 0.959556
Zn17  Zn    Zn3+2 1.000000 0.547600 0.499990 0.954127
Zn18  Zn    Zn3+2 0.784540 0.500000 0.784540 0.926417
Zn19  Zn    Zn3+2 0.215460 0.500000 0.784540 0.958941
Zn20  Zn    Zn3+2 0.784540 0.000000 0.284540 0.965896
Zn21  Zn    Zn3+2 0.215460 0.000000 0.284540 0.934734
Zn22  Zn    Zn3+2 0.284540 0.500000 0.284540 0.961480
Zn23  Zn    Zn3+2 0.715460 0.500000 0.284540 0.936628
Zn24  Zn    Zn3+2 0.215460 0.000000 0.715470 0.957346

loop_
_geom_bond_atom_site_label_1
_geom_bond_atom_site_label_2
_ccdc_geom_bond_type
C99   C103  T    
C105  C110  T    
C96   C102  T    
C198  C206  S    
C22   H148  S    
C206  H119  S    
C154  H12   S    
O62   Zn20  S    
C134  H116  S    
C142  H176  S    
C176  H64   S    
C7    O56   A    
C30   C222  S    
O30   Zn18  S    
C75   C93   T    
C201  H90   S    
C202  H110  S    
O96   Zn15  S    
C35   C124  A    
C159  H23   S    
C239  H124  S    
C33   C225  S    
C64   C265  S    
C92   C109  S    
C70   C270  S    
C153  H11   S    
C246  C255  A    
C178  H70   S    
C62   C263  S    
C191  H97   S    
O22   Zn1   S    
C94   C111  S    
C267  O28   A    
C185  H85   S    
O19   Zn6   S    
C213  O8    S    
C74   C92   T    
O37   Zn23  S    
C127  C207  S    
O99   Zn16  S    
C21   H146  S    
C209  O3    S    
C78   C96   S    
C238  C247  A    
O106  Zn11  S    
C144  H180  S    
C42   O89   A    
C158  H20   S    
C173  H55   S    
C161  H29   S    
C117  C126  A    
C85   C103  S    
C44   O95   A    
C169  H45   S    
C93   C110  S    
O63   Zn21  S    
C119  C128  A    
C216  O15   S    
C28   C220  S    
O64   Zn22  S    
O13   Zn3   S    
C187  O15   S    
C65   C266  S    
C91   C108  S    
O52   Zn5   S    
C32   C224  S    
C48   O101  A    
C28   H163  S    
O69   Zn21  S    
C11   C20   S    
C67   C85   T    
C268  O46   A    
C232  C241  A    
C41   O88   A    
C261  O22   A    
C48   O105  A    
C241  C249  A    
C127  C136  A    
O92   Zn17  S    
C35   H35   S    
C262  H182  S    
C272  O51   A    
C243  H128  S    
C144  C145  S    
C33   H169  S    
C188  H93   S    
O86   Zn14  S    
O45   Zn4   S    
C191  O16   S    
C51   C157  S    
C18   H139  S    
C156  H19   S    
C239  C248  A    
O87   Zn15  S    
C181  H75   S    
C41   C260  S    
C29   C221  S    
C1    O102  A    
O90   Zn16  S    
C2    H2    S    
C30   H167  S    
C175  C176  S    
C164  H36   S    
O89   Zn17  S    
C250  H135  S    
C27   H157  S    
C120  C197  A    
O27   Zn18  S    
O32   Zn21  S    
C148  C149  S    
C43   O93   A    
C154  C155  S    
C174  O10   S    
C189  H94   S    
C13   H13   S    
C174  H59   S    
C205  C214  S    
C83   C100  S    
C224  C233  A    
C158  C159  S    
C68   C140  A    
C51   O107  A    
C9    C219  A    
C128  C218  S    
C180  H72   S    
C223  C232  A    
C252  C260  A    
C21   C30   S    
C16   C25   S    
C207  O47   A    
O56   Zn7   S    
O104  Zn9   S    
O108  Zn11  S    
C210  O112  S    
C265  O26   A    
O65   Zn23  S    
C207  O17   A    
C144  H181  S    
C196  O13   A    
C150  H4    S    
C173  H58   S    
C182  H77   S    
C177  H66   S    
C135  C197  A    
O97   Zn16  S    
C240  O20   A    
C49   O104  A    
C200  C209  S    
C108  C111  T    
C61   C261  S    
O53   Zn7   S    
C53   C227  S    
C56   O71   A    
O102  Zn24  S    
C271  O32   A    
C267  O45   A    
C218  O18   A    
C119  C195  A    
C26   H155  S    
C58   C232  S    
C169  H47   S    
C71   C88   T    
C12   C21   S    
O20   Zn7   S    
C170  H48   S    
C228  C237  A    
C36   O76   A    
C145  H184  S    
C155  C156  S    
C50   O109  A    
C53   O59   A    
C35   C137  A    
C141  O110  S    
O35   Zn22  S    
C183  H80   S    
C112  O2    A    
C144  O111  S    
C80   C97   S    
C84   C102  S    
C113  C194  A    
O71   Zn5   S    
C211  O4    S    
C249  C258  A    
C86   C104  S    
C63   C264  S    
O107  Zn13  S    
C139  H160  S    
O72   Zn6   S    
C167  C169  S    
O85   Zn15  S    
C220  C228  A    
C171  O9    S    
C167  H44   S    
C121  C215  S    
O47   Zn19  S    
C152  H7    S    
C193  H104  S    
C212  O6    S    
C29   H162  S    
C31   H166  S    
C270  O31   A    
C16   C260  A    
O34   Zn20  S    
C165  H39   S    
O28   Zn19  S    
C166  H40   S    
C184  C185  S    
O67   Zn2   S    
C2    C90   A    
C25   H153  S    
C15   C224  A    
C204  H111  S    
C174  C175  S    
C8    C217  A    
O18   Zn5   S    
C182  C183  S    
C189  H96   S    
C147  H186  S    
C208  H117  S    
C5    O37   A    
C214  O9    S    
C87   C105  S    
C221  C230  A    
C206  H115  S    
O38   Zn23  S    
C186  H87   S    
O40   Zn24  S    
C184  H83   S    
O80   Zn22  S    
C7    C77   S    
C76   C94   T    
C247  C256  A    
C24   C136  A    
C49   C135  S    
C140  H171  S    
C55   C230  S    
C59   C233  S    
C70   C87   T    
O44   Zn3   S    
C229  O69   A    
C24   H24   S    
C131  C251  S    
C137  H138  S    
C3    O52   A    
C216  O14   S    
C156  H18   S    
C120  C129  A    
C50   O106  A    
C14   C223  A    
O51   Zn6   S    
C176  H65   S    
O39   Zn22  S    
C190  C202  S    
O25   Zn12  S    
C166  H42   S    
C69   C269  S    
C56   C231  S    
O105  Zn10  S    
C146  C198  A    
C211  O7    S    
C160  H25   S    
C162  H30   S    
C39   C258  S    
O46   Zn4   S    
C188  H92   S    
O48   Zn3   S    
C45   O97   A    
C37   C256  S    
C17   H137  S    
C37   O79   A    
C170  H50   S    
C213  O11   S    
O60   Zn18  S    
C158  O5    S    
C184  O14   S    
C19   C28   S    
C12   C222  A    
C151  O3    S    
C196  O36   A    
C183  H78   S    
C163  H32   S    
C264  O42   A    
C52   C226  S    
C116  C125  A    
C138  H149  S    
C41   O92   A    
C12   C257  A    
C203  H108  S    
C143  H177  S    
O41   Zn2   S    
C38   O82   A    
C97   C100  T    
C132  C262  A    
C191  C192  S    
C79   C262  A    
O23   Zn12  S    
O36   Zn18  S    
C153  H10   S    
C131  C140  A    
C187  H91   S    
C158  H21   S    
C4    O53   A    
C20   H143  S    
C6    C76   S    
C6    O55   A    
C55   O61   A    
C217  C226  A    
C34   C254  S    
O91   Zn23  S    
C183  H81   S    
C172  H53   S    
O84   Zn14  S    
C67   C268  S    
C264  O24   A    
O81   Zn13  S    
C40   O85   A    
C167  O8    S    
C132  H1    S    
C174  H60   S    
C199  C208  S    
C122  C216  S    
C154  H14   S    
C164  O7    S    
C3    C73   S    
C251  O91   A    
C121  C198  A    
C186  H88   S    
C32   H172  S    
C126  C196  S    
C233  C242  A    
C152  C153  S    
C118  C127  A    
C42   O90   A    
O95   Zn14  S    
C155  H16   S    
O29   Zn19  S    
C161  H28   S    
C155  H15   S    
C58   O63   A    
C25   C33   S    
C106  C109  T    
C206  C215  S    
C218  O58   A    
C27   C219  S    
O74   Zn8   S    
C82   C99   S    
C122  C131  A    
C197  C205  S    
O33   Zn21  S    
O76   Zn10  S    
C181  O12   S    
C161  C162  S    
C252  H136  S    
C44   C90   S    
C66   C267  S    
C181  C182  S    
O54   Zn8   S    
C227  C236  A    
C266  O27   A    
C148  H189  S    
O17   Zn4   S    
C164  C165  S    
C265  O43   A    
C151  H6    S    
C58   O72   A    
O59   Zn12  S    
C39   O87   A    
O94   Zn15  S    
C123  C132  A    
C60   O74   A    
C81   C98   S    
C142  H175  S    
C95   C114  S    
C57   H57   S    
C204  C213  S    
C8    C253  A    
C18   H140  S    
C57   C139  A    
C171  H51   S    
C13   C134  A    
C181  H74   S    
C116  C210  S    
C240  O80   A    
C175  H62   S    
C247  H132  S    
O103  Zn10  S    
C32   H168  S    
C141  H174  S    
C179  C201  S    
C245  H130  S    
C149  H190  S    
C148  O112  S    
C151  C152  S    
C28   H159  S    
C54   O60   A    
O93   Zn14  S    
C192  H100  S    
C47   O98   A    
C43   O96   A    
C202  C211  S    
C251  O21   A    
C37   O83   A    
O82   Zn11  S    
C50   C146  S    
C147  H187  S    
C38   C255  S    
C143  H179  S    
C205  H113  S    
C57   C146  A    
C26   C217  S    
C22   H147  S    
C185  H84   S    
C11   C221  A    
C187  H89   S    
C23   H154  S    
C130  C139  A    
C176  H63   S    
C145  C147  S    
O26   Zn1   S    
C209  O110  S    
C16   C225  A    
O2    Zn2   S    
C2    C133  A    
C115  C209  S    
C242  C250  A    
C133  H105  S    
C117  C211  S    
C115  C123  A    
C150  H3    S    
C101  C190  A    
C14   C258  A    
C195  C204  S    
C178  H69   S    
C49   O103  A    
C191  H98   S    
O83   Zn13  S    
O49   Zn5   S    
C10   C255  A    
O1    Zn1   S    
C5    C75   S    
C170  H49   S    
C1    C123  S    
C107  C114  T    
C186  H86   S    
O79   Zn11  S    
C159  C160  S    
C10   C19   S    
C229  O19   A    
C56   O62   A    
C89   C107  S    
C60   C234  S    
C173  H56   S    
C54   C228  S    
C271  O50   A    
C45   C101  S    
C46   H46   S    
C241  H125  S    
C145  H183  S    
C244  C253  A    
C225  C234  A    
C261  O40   A    
C112  O25   A    
C162  C163  S    
C62   C80   T    
C47   C113  S    
O50   Zn6   S    
O31   Zn20  S    
C154  O4    S    
C168  C200  S    
C236  C245  A    
C203  H109  S    
C270  O49   A    
C178  C180  S    
C40   C257  S    
C33   H170  S    
C46   C135  A    
C17   H141  S    
C245  C254  A    
O61   Zn19  S    
C4    O35   A    
C45   O100  A    
C167  H43   S    
C23   C32   S    
C163  H34   S    
C52   O57   A    
C193  H103  S    
C187  C188  S    
C29   H161  S    
C149  C150  S    
C31   H165  S    
C200  H79   S    
C14   C22   S    
C185  C186  S    
C205  H112  S    
C165  H38   S    
C246  H131  S    
C237  C246  A    
C266  O44   A    
C25   H152  S    
C151  H5    S    
C244  H129  S    
C118  C194  A    
O57   Zn1   S    
C235  C244  A    
C60   O65   A    
C1    O1    A    
C189  H95   S    
C147  H185  S    
C208  H118  S    
C177  C178  S    
C214  O10   S    
C116  C179  A    
C142  C143  S    
C171  H52   S    
C52   O66   A    
C51   O108  A    
C200  H106  S    
C34   O75   A    
C204  H114  S    
C180  H71   S    
C21   H150  S    
O98   Zn17  S    
C171  C172  S    
C163  H33   S    
C165  C166  S    
C210  O111  S    
C215  O12   S    
C169  C170  S    
O68   Zn3   S    
C248  H133  S    
C9    C254  A    
C159  H22   S    
C161  O6    S    
C177  H67   S    
O21   Zn8   S    
C10   C220  A    
C263  O23   A    
C130  C240  S    
C263  O41   A    
C23   H151  S    
C17   C26   S    
O24   Zn12  S    
C231  C239  A    
C5    O54   A    
O78   Zn10  S    
C65   C83   T    
O77   Zn9   S    
C43   C79   S    
C129  C229  S    
C148  H188  S    
C118  C212  S    
C8    C17   S    
C160  H26   S    
C162  H31   S    
C152  H8    S    
C39   O84   A    
C19   H142  S    
C141  C142  S    
C6    O38   A    
C219  C227  A    
C129  C138  A    
O109  Zn13  S    
C237  H122  S    
O88   Zn16  S    
C235  H120  S    
O73   Zn7   S    
C79   C168  A    
C4    C74   S    
C184  H82   S    
C234  C243  A    
C46   C138  A    
C15   C23   S    
C150  H192  S    
C24   C113  A    
C208  C216  S    
C160  H27   S    
C149  H191  S    
C250  C259  A    
C236  H121  S    
O42   Zn2   S    
C34   O78   A    
C126  C134  A    
C44   O94   A    
C59   O64   A    
C11   C256  A    
C20   C29   S    
C202  H107  S    
C22   C31   S    
C153  H9    S    
C53   O67   A    
C212  O5    S    
C73   C91   T    
C55   O70   A    
C54   O68   A    
C20   H144  S    
O55   Zn8   S    
C192  H99   S    
C30   H164  S    
C47   O99   A    
C164  H37   S    
C269  O48   A    
O75   Zn9   S    
C27   H156  S    
C77   C95   T    
O66   Zn24  S    
C226  C235  A    
C188  C189  S    
C157  C199  A    
C128  C137  A    
C172  H54   S    
C42   C259  S    
C88   C106  S    
C9    C18   S    
C40   O86   A    
C61   C78   T    
O70   Zn4   S    
C215  O16   S    
C112  C125  S    
C121  C130  A    
C64   C82   T    
C180  H73   S    
C31   C223  S    
C268  O29   A    
C222  C231  A    
C119  C213  S    
C136  H127  S    
C122  C199  A    
C203  C212  S    
C230  C238  A    
C201  H101  S    
C26   H158  S    
C13   C101  A    
C7    O39   A    
C201  C210  S    
C15   C259  A    
C172  C173  S    
C19   H145  S    
C125  C133  A    
C90   C179  A    
C243  C252  A    
C63   C81   T    
C120  C214  S    
O101  Zn9   S    
C18   C27   S    
C48   C124  S    
C193  H102  S    
C182  H76   S    
C269  O30   A    
C166  H41   S    
C36   C253  S    
C192  C193  S    
C115  C168  A    
C59   O73   A    
O43   Zn24  S    
C272  O33   A    
C72   C89   T    
C36   O77   A    
C177  O11   S    
C98   C104  T    
C194  C203  S    
C242  H126  S    
C124  C195  A    
O58   Zn20  S    
C238  H123  S    
C156  H17   S    
O100  Zn17  S    
C117  C190  A    
C175  H61   S    
C66   C84   T    
C248  C257  A    
C68   H68   S    
C141  H173  S    
C249  H134  S    
C71   C271  S    
C72   C272  S    
C143  H178  S    
C38   O81   A    
C69   C86   T    
C68   C157  A    
C3    O34   A    
