data_mof_unit_39440.cif
_audit_creation_date              2012-12-10T16:52:39-0500
_audit_creation_method            fapswitch 2.2
_symmetry_space_group_name_H-M    P1
_symmetry_Int_Tables_number       1
_space_group_crystal_system       triclinic
_cell_length_a                    7.846626
_cell_length_b                    8.565942
_cell_length_c                    13.679872
_cell_angle_alpha                 93.450901
_cell_angle_beta                  92.688245
_cell_angle_gamma                 94.332193
_cell_volume                      913.962423423

loop_
_atom_site_label
_atom_site_type_symbol
_atom_type_description
_atom_site_fract_x
_atom_site_fract_y
_atom_site_fract_z
_atom_type_partial_charge
C1    C     C_R   0.045246 0.794707 0.497582 0.965662
C2    C     C_R   0.937783 0.488778 0.317791 0.879809
C3    C     C_R   0.091705 0.527424 0.787885 -0.110326
C4    C     C_R   0.908295 0.472578 0.212115 -0.110327
C5    C     C_R   0.062098 0.672928 0.941813 -0.181190
C6    C     C_R   0.937903 0.327078 0.058186 -0.181191
C7    C     C_R   0.008575 0.637552 0.844120 -0.207954
C8    C     C_R   0.991426 0.362454 0.155879 -0.207956
C9    C     C_R   0.222021 0.448058 0.830308 -0.074041
C10   C     C_R   0.777978 0.551944 0.169692 -0.074040
C11   C     C_R   0.302033 0.509539 0.919912 0.040853
C12   C     C_R   0.954754 0.205293 0.502418 0.965662
C13   C     C_R   0.697966 0.490465 0.080088 0.040853
C14   C     C_R   0.210737 0.612287 0.979529 0.158190
C15   C     C_R   0.789263 0.387718 0.020471 0.158190
C16   C     C_R   0.469361 0.475594 0.951546 0.061024
C17   C     C_R   0.530638 0.524409 0.048455 0.061023
C18   C     C_1   0.749387 0.707240 0.211448 0.139904
C19   C     C_1   0.250608 0.292759 0.788554 0.139900
C20   C     C_R   0.419260 0.597512 0.112113 -0.207126
C21   C     C_R   0.580738 0.402491 0.887887 -0.207125
C22   C     C_R   0.266800 0.649603 0.076530 -0.211802
C23   C     C_R   0.733199 0.350401 0.923469 -0.211802
C24   C     C_2   0.068718 0.958542 0.496279 -0.363824
C25   C     C_2   0.931282 0.041458 0.503721 -0.363824
C26   C     C_R   0.062217 0.511223 0.682209 0.879809
H1    H     H_    0.190582 0.715971 0.125657 0.152243
H2    H     H_    0.801879 0.989674 0.510711 0.181872
H3    H     H_    0.486996 0.373812 0.427335 0.190562
H4    H     H_    0.513003 0.626188 0.572665 0.190562
H5    H     H_    0.809417 0.284033 0.874343 0.152243
H6    H     H_    0.095954 0.303356 0.187624 0.164365
H7    H     H_    0.904048 0.696650 0.812374 0.164364
H8    H     H_    0.993005 0.753386 0.986216 0.144505
H9    H     H_    0.006997 0.246622 0.013783 0.144505
H10   H     H_    0.447019 0.615457 0.190089 0.170365
H11   H     H_    0.552977 0.384543 0.809911 0.170365
H12   H     H_    0.198121 0.010326 0.489289 0.181872
N1    N     N_2   0.440860 0.456490 0.474790 -0.169665
N2    N     N_2   0.559140 0.543510 0.525210 -0.169665
N3    N     N_1   0.727634 0.831128 0.244824 -0.207608
N4    N     N_1   0.272356 0.168867 0.755181 -0.207608
O1    O     O_R   0.891570 0.738930 0.506190 -0.608510
O2    O     O_R   0.108430 0.261070 0.493810 -0.608510
O3    O     O_R   0.174650 0.711050 0.490030 -0.624547
O4    O     O_R   0.825350 0.288950 0.509970 -0.624547
O5    O     O_R   0.909850 0.521900 0.644940 -0.620581
O6    O     O_R   0.090150 0.478100 0.355060 -0.620581
O7    O     O_R   0.192930 0.494020 0.628780 -0.608183
O8    O     O_R   0.807070 0.505980 0.371220 -0.608182
Zn1   Zn    Zn3+2 0.810990 0.518620 0.510790 0.946006
Zn2   Zn    Zn3+2 0.189010 0.481380 0.489210 0.946005

loop_
_geom_bond_atom_site_label_1
_geom_bond_atom_site_label_2
_ccdc_geom_bond_type
O2    Zn2   S    
C2    C4    S    
C16   C21   A    
C3    C9    A    
N2    Zn1   S    
C9    C11   A    
C11   C16   A    
C24   H12   S    
C19   N4    T    
C13   C17   A    
C12   C25   S    
C4    C8    A    
O7    Zn2   S    
O1    Zn1   S    
C5    H8    S    
H3    N1    S    
C15   C23   A    
N1    Zn2   S    
H4    N2    S    
C12   O2    A    
C6    H9    S    
C25   H2    S    
C7    H7    S    
C1    O3    A    
C5    C14   A    
C26   O5    A    
C10   C18   S    
C20   C22   A    
O8    Zn1   S    
C3    C7    A    
C22   H1    S    
C21   C23   A    
C13   C15   A    
C14   C22   A    
C11   C14   A    
C18   N3    T    
C4    C10   A    
C8    H6    S    
O6    Zn2   S    
C17   C20   A    
C21   H11   S    
C24   C25   D    
C1    C24   S    
C12   O4    A    
C9    C19   S    
C26   O7    A    
N1    N2    D    
C5    C7    A    
C6    C8    A    
C2    O8    A    
O3    Zn2   S    
C2    O6    A    
C6    C15   A    
O4    Zn1   S    
C1    O1    A    
C3    C26   S    
O5    Zn1   S    
C23   H5    S    
C16   C17   A    
C10   C13   A    
C20   H10   S    
