data_mof_unit_60662.cif
_audit_creation_date              2012-12-10T20:49:16-0500
_audit_creation_method            fapswitch 2.2
_symmetry_space_group_name_H-M    P1
_symmetry_Int_Tables_number       1
_space_group_crystal_system       triclinic
_cell_length_a                    19.156723
_cell_length_b                    19.218277
_cell_length_c                    19.448333
_cell_angle_alpha                 90.045139
_cell_angle_beta                  94.692253
_cell_angle_gamma                 85.129515
_cell_volume                      7110.18164664

loop_
_atom_site_label
_atom_site_type_symbol
_atom_type_description
_atom_site_fract_x
_atom_site_fract_y
_atom_site_fract_z
_atom_type_partial_charge
C1    C     C_R   0.492604 0.688977 0.507340 0.592078
C2    C     C_2   0.453751 0.496919 0.016723 0.252784
C3    C     C_2   0.512312 0.492577 0.982821 -0.062114
C4    C     C_R   0.507163 0.310806 0.492560 0.513084
C5    C     C_R   0.511198 0.489697 0.763917 0.036965
C6    C     C_R   0.508730 0.234339 0.488410 0.010094
C7    C     C_R   0.473165 0.197472 0.534746 -0.151675
C8    C     C_R   0.473307 0.125312 0.530523 -0.107397
C9    C     C_R   0.509168 0.088238 0.479494 0.262119
C10   C     C_R   0.544387 0.124993 0.432382 0.115008
C11   C     C_R   0.544471 0.197845 0.437465 -0.119372
C12   C     C_R   0.461020 0.497304 0.092337 0.058525
C13   C     C_R   0.492857 0.877059 0.453377 -0.051180
C14   C     C_R   0.493011 0.804620 0.449720 0.172943
C15   C     C_R   0.489361 0.911278 0.517271 0.145409
C16   C     C_R   0.690011 0.491965 0.507158 0.519456
C17   C     C_R   0.489843 0.765264 0.510327 0.048786
C18   C     C_R   0.485240 0.799649 0.574081 0.179732
C19   C     C_R   0.484499 0.872185 0.576862 -0.068965
C20   C     C_R   0.233107 0.515427 0.495045 -0.030017
C21   C     C_R   0.202315 0.482707 0.547935 -0.113718
C22   C     C_R   0.129885 0.490192 0.552007 0.247274
C23   C     C_R   0.431096 0.554828 0.127075 -0.116448
C24   C     C_R   0.086494 0.529680 0.501326 0.273843
C25   C     C_R   0.117147 0.564608 0.449428 0.079912
C26   C     C_R   0.190381 0.556970 0.446368 -0.131654
C27   C     C_R   0.876488 0.437308 0.467135 0.079105
C28   C     C_R   0.310029 0.508466 0.493280 0.519787
C29   C     C_R   0.803140 0.440953 0.466597 -0.133050
C30   C     C_R   0.914330 0.482625 0.509493 0.274774
C31   C     C_R   0.767220 0.488361 0.509045 -0.031542
C32   C     C_R   0.805473 0.531779 0.553004 -0.115884
C33   C     C_R   0.878577 0.529011 0.553848 0.248522
C34   C     C_R   0.441580 0.558931 0.198573 -0.123494
C35   C     C_R   0.508489 0.491689 0.688467 0.520860
C36   C     C_R   0.491133 0.507784 0.311463 0.524711
C37   C     C_R   0.482389 0.505561 0.236056 -0.002857
C38   C     C_R   0.511518 0.447507 0.201361 -0.078881
C39   C     C_R   0.500567 0.442715 0.129991 0.225280
C40   C     C_R   0.553703 0.534203 0.874780 -0.100016
C41   C     C_R   0.553188 0.534078 0.803228 -0.092066
C42   C     C_R   0.471204 0.444199 0.797296 -0.107376
C43   C     C_R   0.471887 0.444366 0.868849 -0.034536
C44   C     C_R   0.511660 0.490777 0.907614 0.062303
Cl1   Cl    Cl    0.500575 0.765000 0.368554 -0.551645
Cl2   Cl    Cl    0.477941 0.753969 0.651398 -0.538892
Cl3   Cl    Cl    0.096156 0.452298 0.623483 -0.465936
Cl4   Cl    Cl    0.923535 0.581767 0.613634 -0.462251
Cl5   Cl    Cl    0.368587 0.511332 0.974134 -0.535636
Cl6   Cl    Cl    0.534859 0.366309 0.090053 -0.567877
H1    H     H_    0.541624 0.404994 0.229764 0.173805
H2    H     H_    0.213899 0.583235 0.405930 0.154672
H3    H     H_    0.778675 0.567763 0.587002 0.184152
H4    H     H_    0.234687 0.452237 0.587256 0.183573
H5    H     H_    0.439262 0.408718 0.768214 0.151081
H6    H     H_    0.563307 0.492912 0.011838 0.128491
H7    H     H_    0.400784 0.597229 0.098700 0.178276
H8    H     H_    0.585788 0.569161 0.904477 0.133040
H9    H     H_    0.418162 0.603946 0.224445 0.174106
H10   H     H_    0.606784 0.121639 0.351361 0.236072
H11   H     H_    0.542661 0.067242 0.345825 0.250142
H12   H     H_    0.441478 0.408319 0.893941 0.184830
H13   H     H_    0.943048 0.351904 0.455565 0.256759
H14   H     H_    0.877645 0.361500 0.392704 0.235760
H15   H     H_    0.103252 0.625892 0.362241 0.238203
H16   H     H_    0.050542 0.649278 0.424487 0.259589
H17   H     H_    0.495566 0.906333 0.406251 0.188699
H18   H     H_    0.571737 0.226009 0.401154 0.143518
H19   H     H_    0.444784 0.098798 0.566978 0.155792
H20   H     H_    0.480742 0.898434 0.625913 0.177750
H21   H     H_    0.445028 0.224390 0.574408 0.156946
H22   H     H_    0.774208 0.406544 0.433016 0.154787
H23   H     H_    0.585033 0.569222 0.778753 0.165925
N1    N     N_2   0.509951 0.014505 0.473173 -0.203617
N2    N     N_2   0.489382 0.984768 0.523828 -0.236301
N3    N     N_2   0.012283 0.535531 0.501553 -0.132630
N4    N     N_2   0.988338 0.477880 0.508433 -0.137670
N5    N     N_3   0.580626 0.087561 0.380054 -0.574356
N6    N     N_3   0.913201 0.388867 0.423528 -0.571572
N7    N     N_3   0.073083 0.606156 0.398974 -0.569249
O1    O     O_3   0.500000 0.500000 0.500000 -0.460711
O2    O     O_R   0.546320 0.532340 0.658770 -0.526942
O3    O     O_R   0.450550 0.549430 0.344370 -0.522670
O4    O     O_R   0.467400 0.453980 0.652500 -0.544029
O5    O     O_R   0.535730 0.464240 0.344360 -0.546328
O6    O     O_R   0.656240 0.454400 0.463600 -0.541332
O7    O     O_R   0.340160 0.549180 0.454800 -0.538601
O8    O     O_R   0.536860 0.652450 0.548350 -0.494517
O9    O     O_R   0.466740 0.343960 0.533260 -0.542365
O10   O     O_R   0.451210 0.659450 0.463610 -0.496316
O11   O     O_R   0.545190 0.344140 0.454780 -0.546670
O12   O     O_R   0.656710 0.532590 0.548340 -0.537667
O13   O     O_R   0.346890 0.463830 0.533270 -0.539535
Zn1   Zn    Zn3+2 0.558280 0.441710 0.441700 0.954551
Zn2   Zn    Zn3+2 0.558950 0.553420 0.562770 1.008423
Zn3   Zn    Zn3+2 0.446190 0.441460 0.553820 0.959975
Zn4   Zn    Zn3+2 0.436580 0.563410 0.441710 1.005289

loop_
_geom_bond_atom_site_label_1
_geom_bond_atom_site_label_2
_ccdc_geom_bond_type
C15   N2    S    
C5    C42   A    
C1    O10   A    
C27   C29   A    
C34   C37   A    
C2    C12   S    
C10   N5    S    
C7    C8    A    
H13   N6    S    
C16   C31   S    
C15   C19   A    
C12   C23   A    
H10   N5    S    
C8    H19   S    
C20   C26   A    
C36   C37   S    
C27   N6    S    
C7    H21   S    
C21   H4    S    
O1    Zn2   S    
C36   O3    A    
C25   N7    S    
C18   C19   A    
C3    H6    S    
O6    Zn1   S    
C30   N4    S    
C8    C9    A    
C9    C10   A    
O10   Zn4   S    
C29   H22   S    
C1    O8    A    
C22   Cl3   S    
O8    Zn2   S    
H15   N7    S    
C13   C14   A    
C27   C30   A    
C16   O6    A    
C14   C17   A    
C18   Cl2   S    
C35   O2    A    
C14   Cl1   S    
C3    C44   S    
C40   H8    S    
N1    N2    D    
C24   C25   A    
C4    C6    S    
C6    C11   A    
O1    Zn3   S    
C24   N3    S    
C38   H1    S    
C20   C28   S    
C25   C26   A    
O12   Zn2   S    
C28   O13   A    
C43   C44   A    
C37   C38   A    
C2    Cl5   S    
C26   H2    S    
C42   H5    S    
O5    Zn1   S    
C31   C32   A    
H11   N5    S    
C23   C34   A    
C28   O7    A    
C17   C18   A    
N3    N4    D    
C40   C41   A    
C16   O12   A    
O13   Zn3   S    
C13   C15   A    
O3    Zn4   S    
C34   H9    S    
H14   N6    S    
C22   C24   A    
C9    N1    S    
O4    Zn3   S    
C32   H3    S    
C11   H18   S    
C4    O9    A    
C13   H17   S    
C23   H7    S    
C5    C41   A    
O2    Zn2   S    
C30   C33   A    
C35   O4    A    
C6    C7    A    
C36   O5    A    
H16   N7    S    
C1    C17   S    
C32   C33   A    
C4    O11   A    
O9    Zn3   S    
C2    C3    D    
C29   C31   A    
O11   Zn1   S    
O1    Zn1   S    
C38   C39   A    
O1    Zn4   S    
C12   C39   A    
C5    C35   S    
C10   C11   A    
C41   H23   S    
C40   C44   A    
C39   Cl6   S    
C20   C21   A    
C42   C43   A    
C33   Cl4   S    
C19   H20   S    
C21   C22   A    
C43   H12   S    
O7    Zn4   S    
