data_mof_unit_46254.cif
_audit_creation_date              2013-03-05T15:55:20-0500
_audit_creation_method            fapswitch 2.2
_symmetry_space_group_name_H-M    P1
_symmetry_Int_Tables_number       1
_space_group_crystal_system       triclinic
_cell_length_a                    14.747233
_cell_length_b                    14.756937
_cell_length_c                    33.225314
_cell_angle_alpha                 96.218043
_cell_angle_beta                  96.360406
_cell_angle_gamma                 61.190514
_cell_volume                      6284.13317388

loop_
_atom_site_label
_atom_site_type_symbol
_atom_site_description
_atom_site_fract_x
_atom_site_fract_y
_atom_site_fract_z
_atom_type_partial_charge
O1    O     O_R   0.679450 0.499830 0.463150 -0.547166
O2    O     O_R   0.480650 0.664000 0.464630 -0.535935
C1    C     C_R   0.390910 0.699116 0.445888 0.776046
O3    O     O_R   0.323930 0.675950 0.455370 -0.548022
O4    O     O_R   0.354700 0.475360 0.451930 -0.545956
C2    C     C_R   0.404825 0.385658 0.434420 0.889283
O5    O     O_R   0.494470 0.320860 0.448390 -0.504911
O6    O     O_R   0.662580 0.357570 0.460050 -0.527054
C3    C     C_R   0.700741 0.409835 0.447444 0.811291
O7    O     O_R   0.680900 0.502040 0.551870 -0.558499
O8    O     O_R   0.481990 0.666040 0.546870 -0.540196
C4    C     C_R   0.393458 0.701593 0.561227 0.776059
O9    O     O_R   0.325370 0.678160 0.544080 -0.546686
O10   O     O_R   0.356040 0.477400 0.534170 -0.544677
C5    C     C_R   0.407296 0.388814 0.548977 0.801625
O11   O     O_R   0.495910 0.323070 0.537100 -0.513659
O12   O     O_R   0.663920 0.359620 0.542290 -0.487790
C6    C     C_R   0.702593 0.413122 0.562421 0.856743
Cr1   Cr    Cr6+3 0.576280 0.580550 0.506370 0.954368
Cr2   Cr    Cr6+3 0.346780 0.572400 0.496520 0.960201
Cr3   Cr    Cr6+3 0.576960 0.347070 0.497150 1.099309
O13   O     O_3   0.500010 0.500010 0.500010 -0.358049
H1    H     H_    0.451834 0.170223 0.108168 0.176131
H2    H     H_    0.469973 0.198605 0.181757 0.182392
C7    C     C_R   0.367620 0.366285 0.393051 -0.206736
C8    C     C_R   0.314934 0.452023 0.369256 -0.202292
C9    C     C_R   0.298163 0.438754 0.327914 -0.157482
C10   C     C_R   0.337005 0.339644 0.309087 -0.054059
C11   C     C_R   0.386782 0.250680 0.332165 0.307991
C12   C     C_R   0.395234 0.265211 0.375308 0.335951
C13   C     C_R   0.398023 0.248844 0.165326 -0.046331
C14   C     C_R   0.387549 0.233241 0.123364 -0.128184
C15   C     C_R   0.210892 0.374446 0.122698 -0.123889
C16   C     C_R   0.221612 0.389829 0.164732 -0.112211
C17   C     C_R   0.314018 0.324829 0.186056 0.073605
C18   C     C_1   0.320604 0.330727 0.229328 0.033621
C19   C     C_1   0.327376 0.333708 0.265678 0.130639
C20   C     C_R   0.292460 0.293256 0.101851 -0.079010
H3    H     H_    0.291334 0.530086 0.382276 0.164907
H4    H     H_    0.156439 0.449166 0.180731 0.151299
H5    H     H_    0.136813 0.421783 0.106968 0.193206
H6    H     H_    0.259797 0.506548 0.310172 0.156742
N1    N     N_R   0.832472 0.396564 0.230319 -0.255398
N2    N     N_R   0.830007 0.400148 0.270348 -0.210553
C21   C     C_R   0.759568 0.370817 0.410718 -0.108604
C22   C     C_R   0.810883 0.421007 0.398277 -0.200425
C23   C     C_R   0.851300 0.396381 0.359925 0.402601
C24   C     C_R   0.835977 0.322815 0.333016 -0.094839
C25   C     C_R   0.792873 0.266540 0.347085 -0.176137
C26   C     C_R   0.755428 0.289976 0.385589 -0.135178
N3    N     N_R   0.868030 0.226535 0.266090 -0.269382
N4    N     N_R   0.870403 0.222972 0.225968 -0.265186
C27   C     C_R   0.852236 0.308135 0.207252 0.577441
C28   C     C_R   0.848746 0.315028 0.289110 0.574440
C29   C     C_R   0.845474 0.390693 0.144586 -0.182082
C30   C     C_R   0.861291 0.385152 0.103533 0.402237
C31   C     C_R   0.887458 0.208338 0.096991 0.395473
C32   C     C_R   0.872107 0.215619 0.138341 -0.180832
C33   C     C_R   0.857284 0.304305 0.162875 -0.136270
C34   C     C_R   0.896804 0.288282 0.080519 -0.305877
H7    H     H_    0.818068 0.480682 0.418209 0.183429
H8    H     H_    0.716865 0.249401 0.394500 0.163756
H9    H     H_    0.781149 0.209272 0.327246 0.168775
H10   H     H_    0.825357 0.462855 0.162468 0.212799
H11   H     H_    0.872145 0.151473 0.151402 0.206231
N5    N     N_R   0.327620 0.759511 0.217099 -0.279795
N6    N     N_R   0.324550 0.755087 0.256636 -0.288260
C35   C     C_R   0.370570 0.751129 0.407969 -0.048037
C36   C     C_R   0.286532 0.759726 0.381117 -0.144986
C37   C     C_R   0.280309 0.783411 0.341223 -0.120910
C38   C     C_R   0.356473 0.801391 0.327668 0.030448
C39   C     C_R   0.434920 0.803020 0.355338 -0.077739
C40   C     C_R   0.442580 0.776953 0.395248 -0.157845
N7    N     N_R   0.395941 0.867006 0.270746 -0.179245
N8    N     N_R   0.397686 0.872339 0.231137 -0.144123
C41   C     C_R   0.364910 0.817737 0.203457 0.595421
C42   C     C_R   0.358451 0.808876 0.284162 0.497668
C43   C     C_R   0.285055 0.811593 0.134154 -0.240943
C44   C     C_R   0.260204 0.840408 0.093924 0.414003
C45   C     C_R   0.386453 0.903162 0.103122 -0.264416
C46   C     C_R   0.416056 0.868340 0.142238 0.474505
C47   C     C_R   0.358108 0.830587 0.159424 -0.170754
C48   C     C_R   0.304464 0.896021 0.079607 -0.237763
H12   H     H_    0.229292 0.741001 0.389974 0.149249
H13   H     H_    0.507778 0.771483 0.415382 0.151959
H14   H     H_    0.218069 0.783638 0.320505 0.149738
H15   H     H_    0.494045 0.817574 0.345456 0.178681
H16   H     H_    0.245244 0.775838 0.145983 0.209149
H17   H     H_    0.425577 0.940108 0.091641 0.205002
N9    N     N_R   0.240127 0.423467 0.766974 -0.287900
N10   N     N_R   0.243673 0.423590 0.727123 -0.288922
C49   C     C_R   0.371508 0.369112 0.585062 -0.052308
C50   C     C_R   0.284846 0.448616 0.603903 -0.149839
C51   C     C_R   0.265815 0.439476 0.643042 -0.129451
C52   C     C_R   0.333243 0.350776 0.663880 0.014678
C53   C     C_R   0.414085 0.267576 0.643563 -0.132629
C54   C     C_R   0.432962 0.276584 0.604465 -0.116841
N11   N     N_R   0.404579 0.274056 0.729383 -0.288164
N12   N     N_R   0.401215 0.274155 0.769168 -0.289323
C55   C     C_R   0.319176 0.348960 0.788799 0.527296
C56   C     C_R   0.325712 0.348364 0.707520 0.526528
C57   C     C_R   0.218794 0.404313 0.850748 -0.126567
C58   C     C_R   0.207443 0.384414 0.889446 -0.134629
C59   C     C_R   0.386680 0.249608 0.893306 -0.133752
C60   C     C_R   0.397984 0.269455 0.854694 -0.123776
C61   C     C_R   0.312747 0.343458 0.832295 0.011757
C62   C     C_R   0.289921 0.303381 0.910165 -0.048699
H18   H     H_    0.235642 0.520630 0.589553 0.142239
H19   H     H_    0.499625 0.213496 0.590518 0.175117
H20   H     H_    0.132054 0.427641 0.901831 0.167243
H21   H     H_    0.202087 0.504367 0.657766 0.142784
H22   H     H_    0.466104 0.197300 0.658560 0.148555
H23   H     H_    0.152086 0.462799 0.834401 0.150157
H24   H     H_    0.452040 0.187697 0.908838 0.148625
H25   H     H_    0.472084 0.222803 0.841601 0.146111
H26   H     H_    0.997121 0.118726 0.871955 0.158148
H27   H     H_    0.946700 0.138079 0.799958 0.131224
H28   H     H_    0.859760 0.183151 0.666357 0.170667
C63   C     C_R   0.754044 0.382828 0.603178 -0.174760
C64   C     C_R   0.740872 0.463442 0.632762 -0.222231
C65   C     C_R   0.766568 0.443911 0.673535 -0.121538
C66   C     C_R   0.806436 0.343521 0.685559 0.047690
C67   C     C_R   0.826677 0.261171 0.656570 -0.191057
C68   C     C_R   0.802065 0.279371 0.615179 0.449224
C69   C     C_R   0.915642 0.206034 0.820865 -0.120214
C70   C     C_R   0.943486 0.195440 0.862106 -0.228910
C71   C     C_R   0.839532 0.381978 0.875496 0.442756
C72   C     C_R   0.812849 0.391397 0.833733 -0.192438
C73   C     C_R   0.853011 0.304119 0.806564 0.049509
C74   C     C_1   0.835772 0.315749 0.763772 -0.008030
C75   C     C_1   0.823087 0.326678 0.727950 -0.006831
C76   C     C_R   0.909644 0.283013 0.889767 -0.177039
H29   H     H_    0.704693 0.543270 0.624780 0.156698
H30   H     H_    0.762881 0.467062 0.822185 0.170214
H31   H     H_    0.751621 0.507931 0.695861 0.131475
H32   H     H_    0.430286 0.929270 0.893793 0.145334
H33   H     H_    0.465912 0.879570 0.822225 0.125791
H34   H     H_    0.517772 0.780064 0.686783 0.119861
H35   H     H_    0.535029 0.728548 0.614311 0.136500
C77   C     C_R   0.376473 0.755494 0.601955 -0.048276
C78   C     C_R   0.280936 0.791539 0.619007 -0.140530
C79   C     C_R   0.271698 0.820635 0.660328 -0.117349
C80   C     C_R   0.357551 0.814305 0.684964 0.122377
C81   C     C_R   0.450974 0.785011 0.667868 -0.127636
C82   C     C_R   0.460358 0.756200 0.626488 -0.163406
C83   C     C_R   0.399852 0.879161 0.833426 -0.112268
C84   C     C_R   0.379543 0.906993 0.874250 -0.150160
C85   C     C_R   0.226645 0.883477 0.862425 -0.152821
C86   C     C_R   0.247184 0.855659 0.821662 -0.128105
C87   C     C_R   0.332007 0.856401 0.806931 0.124478
C88   C     C_1   0.344503 0.841188 0.764177 -0.038843
C89   C     C_1   0.351585 0.829814 0.728095 -0.040125
C90   C     C_R   0.290662 0.912883 0.888840 -0.045043
H36   H     H_    0.214944 0.792000 0.600925 0.146191
H37   H     H_    0.194455 0.837797 0.801294 0.123089
H38   H     H_    0.157582 0.887355 0.872667 0.147841
H39   H     H_    0.198953 0.843604 0.673376 0.126132
O14   O     O_R   0.170070 0.978950 0.027680 -0.478821
O15   O     O_R   0.001760 0.175230 0.026640 -0.503211
C91   C     C_R   0.959816 0.266076 0.044829 0.899617
O16   O     O_R   0.984760 0.333570 0.037150 -0.491753
O17   O     O_R   0.183410 0.309240 0.041890 -0.529752
C92   C     C_R   0.272973 0.259483 0.059996 0.784241
O18   O     O_R   0.340240 0.172500 0.045430 -0.543399
O19   O     O_R   0.309670 0.000990 0.032050 -0.548495
C93   C     C_R   0.260578 0.957923 0.043392 0.877556
O20   O     O_R   0.168330 0.982130 0.939200 -0.543140
O21   O     O_R   0.000140 0.178170 0.944610 -0.548333
C94   C     C_R   0.961241 0.267939 0.931037 0.863971
O22   O     O_R   0.983010 0.336750 0.948660 -0.490620
O23   O     O_R   0.181800 0.312190 0.959860 -0.533830
C95   C     C_R   0.270898 0.264140 0.945426 0.769876
O24   O     O_R   0.338500 0.175680 0.956950 -0.547380
O25   O     O_R   0.308050 0.003930 0.950020 -0.540010
C96   C     C_R   0.256188 0.964726 0.928994 0.775509
Cr4   Cr    Cr6+3 0.087320 0.083240 0.984860 1.052577
Cr5   Cr    Cr6+3 0.087720 0.316210 0.996740 1.085987
Cr6   Cr    Cr6+3 0.317350 0.090340 0.995890 0.969638
O26   O     O_3   0.164130 0.163270 0.992500 -0.368239
S1    S     S_3+6 0.829090 0.503399 0.082540 0.086289
O27   O     O_2   0.923631 0.518121 0.085281 -0.312617
O28   O     O_2   0.789369 0.502240 0.038923 -0.260409
O29   O     O_3   0.736550 0.602771 0.108790 -0.468338
H40   H     H_    0.722518 0.665442 0.095377 0.406721
N13   N     N_R   0.907379 0.446185 0.348882 0.114121
O30   O     O_R   0.886024 0.538752 0.364174 -0.349856
O31   O     O_R   0.988966 0.394156 0.328073 -0.337758
S2    S     S_3+6 0.885899 0.102266 0.067056 0.081786
O32   O     O_2   0.994667 0.014769 0.065658 -0.280273
O33   O     O_2   0.820762 0.066779 0.085561 -0.288738
O34   O     O_3   0.836067 0.136956 0.019725 -0.487829
H41   H     H_    0.848488 0.071442 0.004041 0.370697
N14   N     N_R   0.192199 0.811097 0.068212 0.157320
O35   O     O_R   0.210641 0.781320 0.030309 -0.343138
O36   O     O_R   0.124107 0.795785 0.083971 -0.308968
S3    S     S_3+6 0.526279 0.872828 0.167594 0.070738
O37   O     O_2   0.595359 0.871313 0.137182 -0.311609
O38   O     O_2   0.491213 0.971189 0.194259 -0.274284
O39   O     O_3   0.593737 0.769994 0.195999 -0.472979
H42   H     H_    0.648689 0.782338 0.211370 0.395760
S4    S     S_3+6 0.439925 0.124413 0.306689 0.125005
O40   O     O_2   0.357385 0.091368 0.300479 -0.239274
O41   O     O_2   0.474686 0.124810 0.265896 -0.312245
O42   O     O_3   0.542822 0.036580 0.333387 -0.424926
H43   H     H_    0.597193 0.057674 0.333257 0.352492
S5    S     S_3+6 0.833483 0.171038 0.580070 0.015804
O43   O     O_2   0.739214 0.156614 0.569752 -0.318279
O44   O     O_2   0.868533 0.188019 0.542087 -0.326570
O45   O     O_3   0.929097 0.063765 0.600626 -0.512016
H44   H     H_    0.941423 0.007065 0.579477 0.370090
S6    S     S_3+6 0.783136 0.494954 0.908309 0.051057
O46   O     O_2   0.758779 0.469323 0.946957 -0.279764
O47   O     O_2   0.858070 0.537355 0.917869 -0.306464
O48   O     O_3   0.673090 0.585032 0.885726 -0.507157
H45   H     H_    0.648458 0.646389 0.905278 0.375611
S7    S     S_3+6 0.430188 0.162673 0.407610 0.084666
O49   O     O_2   0.546159 0.106161 0.415212 -0.307821
O50   O     O_2   0.381873 0.205915 0.447520 -0.328639
O51   O     O_3   0.388572 0.079185 0.386606 -0.430000
H46   H     H_    0.420723 0.020260 0.404374 0.373883

loop_
_geom_bond_atom_site_label_1
_geom_bond_atom_site_label_2
_geom_bond_distance
_ccdc_geom_bond_type
O6    C3    1.275758 A    
O23   C95   1.275632 A    
C3    C21   1.474464 S    
O19   C93   1.275087 A    
C25   H9    1.083270 S    
C29   C33   1.398254 A    
C87   C88   1.432220 S    
S4    O40   1.502233 D    
C52   C53   1.404439 A    
N6    C42   1.356581 A    
S7    O51   1.682015 S    
O29   H40   0.990533 S    
C72   C73   1.398525 A    
C73   C74   1.430468 S    
Cr6   O26   1.975526 S    
N9    N10   1.331096 A    
C67   C68   1.403768 A    
O4    Cr2   1.917488 S    
C21   C22   1.402816 A    
C64   C65   1.388311 A    
C24   C28   1.476660 S    
C53   H22   1.082924 S    
O8    Cr1   1.921431 S    
C8    C9    1.378204 A    
C50   C51   1.394047 A    
C58   H20   1.083194 S    
C16   H4    1.083650 S    
C10   C19   1.430823 S    
C10   C11   1.419451 A    
C1    C35   1.473185 S    
S7    O50   1.503666 D    
C64   H29   1.083189 S    
C45   C48   1.406818 A    
C50   H18   1.083095 S    
O4    C2    1.273785 A    
C45   C46   1.395151 A    
S5    O44   1.503504 D    
C78   H36   1.083061 S    
N13   O31   1.301591 A    
C2    C7    1.473409 S    
C5    O11   1.270476 A    
N11   N12   1.328101 A    
C51   H21   1.082840 S    
S2    O33   1.503478 D    
C16   C17   1.397347 A    
C94   O22   1.273099 A    
C45   H17   1.082895 S    
C20   C92   1.471143 S    
O25   C96   1.276011 A    
O17   Cr5   1.917507 S    
C57   C58   1.394338 A    
C5    C49   1.471102 S    
C83   C87   1.397659 A    
N1    C27   1.357015 A    
Cr4   O26   1.975591 S    
N13   O30   1.301468 A    
C92   O18   1.269054 A    
O24   Cr6   2.044040 S    
C35   C36   1.405698 A    
C31   S2    1.769828 S    
N7    C42   1.354547 A    
C52   C56   1.471947 S    
O42   H43   0.990675 S    
C88   C89   1.201499 T    
C4    C77   1.475304 S    
C57   C61   1.404220 A    
C37   C38   1.400010 A    
C14   C20   1.407036 A    
C23   N13   1.438807 S    
O25   Cr6   1.915404 S    
S1    O29   1.682664 S    
H28   C67   1.083474 S    
N5    N6    1.329110 A    
O39   H42   0.990536 S    
H26   C70   1.083593 S    
Cr3   O13   1.974718 S    
C53   C54   1.391378 A    
O19   Cr6   1.926663 S    
S4    O41   1.502783 D    
O15   C91   1.285753 A    
C51   C52   1.403831 A    
N10   C56   1.357869 A    
S3    O39   1.682391 S    
N9    C55   1.357867 A    
C59   C60   1.391116 A    
S1    O28   1.503272 D    
C49   C54   1.403529 A    
O45   H44   0.990581 S    
C62   C95   1.470667 S    
C27   C33   1.478158 S    
C48   C93   1.482171 S    
O1    Cr1   2.040266 S    
C11   S4    1.788990 S    
N7    N8    1.330654 A    
C22   H7    1.083203 S    
N3    N4    1.332085 A    
O10   Cr2   1.925190 S    
H33   C83   1.083557 S    
Cr1   O13   1.975781 S    
O1    C3    1.272359 A    
S7    O49   1.503171 D    
S3    O38   1.502897 D    
C41   C47   1.481767 S    
O51   H46   0.990605 S    
S5    O43   1.503098 D    
S3    O37   1.503522 D    
C31   C34   1.422524 A    
O22   Cr5   2.033598 S    
Cr5   O26   1.974462 S    
C35   C40   1.405691 A    
O5    Cr3   2.033512 S    
C46   C47   1.415152 A    
C1    O3    1.268677 A    
O34   H41   0.990523 S    
S2    O32   1.499866 D    
C17   C18   1.426265 S    
N8    C41   1.358328 A    
S6    O46   1.503118 D    
C9    H6    1.084793 S    
C11   C12   1.426854 A    
C72   H30   1.083573 S    
C54   H19   1.083181 S    
C8    H3    1.083657 S    
C43   C47   1.408476 A    
C32   H11   1.082959 S    
C23   C24   1.417875 A    
O10   C5    1.275488 A    
C70   C76   1.409436 A    
O7    Cr1   2.036641 S    
O8    C4    1.277096 A    
C69   C73   1.391822 A    
N5    C41   1.356896 A    
C29   H10   1.082817 S    
C29   C30   1.396270 A    
N14   O36   1.301685 A    
O12   C6    1.277124 A    
N4    C27   1.358583 A    
C77   C78   1.406489 A    
C71   C76   1.418717 A    
C40   H13   1.083000 S    
C65   C66   1.391636 A    
C59   H24   1.083169 S    
O14   Cr4   2.039945 S    
O21   C94   1.275544 A    
S6    O47   1.503055 D    
Cr2   O13   1.975639 S    
N14   O35   1.301471 A    
O15   Cr4   1.921163 S    
S2    O34   1.682517 S    
N1    N2    1.329123 A    
C69   C70   1.389430 A    
C26   H8    1.083269 S    
S4    O42   1.680686 S    
C13   C17   1.396196 A    
C32   C33   1.399173 A    
C85   C90   1.406623 A    
C79   H39   1.083725 S    
O16   Cr5   2.043536 S    
C71   C72   1.402721 A    
C37   H14   1.083449 S    
C66   C75   1.430463 S    
C38   C42   1.466124 S    
C39   H15   1.083222 S    
O18   Cr6   2.032792 S    
C95   O24   1.270430 A    
O14   C93   1.277457 A    
O20   C96   1.271783 A    
C83   C84   1.396030 A    
C30   S1    1.774396 S    
C43   H16   1.082658 S    
C7    C12   1.419636 A    
O21   Cr4   1.921677 S    
C22   C23   1.403673 A    
H35   C82   1.082903 S    
O9    Cr2   2.033184 S    
C68   S5    1.770040 S    
O2    Cr1   1.921317 S    
O48   H45   0.990775 S    
C60   H25   1.082928 S    
C13   C14   1.392008 A    
C34   C91   1.497842 S    
H1    C14   1.083102 S    
C39   C40   1.398026 A    
O6    Cr3   1.926800 S    
C77   C82   1.407853 A    
C63   C64   1.409053 A    
O11   Cr3   2.043842 S    
C2    O5    1.272532 A    
O17   C92   1.276907 A    
N11   C56   1.356105 A    
C60   C61   1.404372 A    
C90   C96   1.475793 S    
C55   C61   1.472171 S    
C15   C20   1.406409 A    
C44   N14   1.439065 S    
N12   C55   1.356257 A    
C81   C82   1.396043 A    
N3    C28   1.358333 A    
C15   H5    1.082431 S    
C91   O16   1.273346 A    
C74   C75   1.200318 T    
C7    C8    1.400947 A    
H2    C13   1.083836 S    
C38   C39   1.403740 A    
C36   H12   1.083033 S    
H34   C81   1.083582 S    
C78   C79   1.394693 A    
C71   S6    1.769343 S    
C46   S3    1.773301 S    
C44   C48   1.412618 A    
C43   C44   1.402184 A    
S5    O45   1.682300 S    
C31   C32   1.401347 A    
C21   C26   1.402533 A    
O7    C6    1.271705 A    
C24   C25   1.403877 A    
C49   C50   1.405252 A    
C15   C16   1.394262 A    
O2    C1    1.278305 A    
C63   C68   1.420777 A    
C85   C86   1.394706 A    
C86   H37   1.083707 S    
C36   C37   1.389251 A    
C84   C90   1.408013 A    
O12   Cr3   1.915948 S    
H32   C84   1.082992 S    
C12   S7    1.784551 S    
O3    Cr2   2.042574 S    
N2    C28   1.356336 A    
S6    O48   1.682491 S    
C30   C34   1.425767 A    
C4    O9    1.271858 A    
C65   H31   1.084007 S    
C18   C19   1.198553 T    
C25   C26   1.392067 A    
C76   C94   1.476619 S    
C9    C10   1.390051 A    
C57   H23   1.082832 S    
C79   C80   1.398096 A    
O23   Cr5   1.926533 S    
C58   C62   1.405094 A    
C85   H38   1.082968 S    
C66   C67   1.397911 A    
C86   C87   1.398026 A    
H27   C69   1.083900 S    
C6    C63   1.478458 S    
C59   C62   1.403245 A    
C80   C89   1.432206 S    
S1    O27   1.502951 D    
C80   C81   1.397804 A    
O20   Cr4   2.036717 S    
