data_mof_unit_12651.cif
_audit_creation_date              2013-03-05T15:50:11-0500
_audit_creation_method            fapswitch 2.2
_symmetry_space_group_name_H-M    P1
_symmetry_Int_Tables_number       1
_space_group_crystal_system       triclinic
_cell_length_a                    20.078278
_cell_length_b                    6.864021
_cell_length_c                    18.237841
_cell_angle_alpha                 89.939077
_cell_angle_beta                  104.454855
_cell_angle_gamma                 90.07305
_cell_volume                      2433.92927811

loop_
_atom_site_label
_atom_site_type_symbol
_atom_site_description
_atom_site_fract_x
_atom_site_fract_y
_atom_site_fract_z
_atom_type_partial_charge
O1    O     O_R   0.312200 0.620210 0.189560 -0.580948
O2    O     O_R   0.687800 0.379790 0.810440 -0.581105
O3    O     O_R   0.187800 0.120210 0.310440 -0.599682
O4    O     O_R   0.812200 0.879790 0.689560 -0.599662
O5    O     O_R   0.171590 0.286140 0.165000 -0.591431
O6    O     O_R   0.828410 0.713860 0.835000 -0.591332
O7    O     O_R   0.328410 0.786140 0.335000 -0.578586
O8    O     O_R   0.671590 0.213860 0.665000 -0.578561
C1    C     C_R   0.145641 0.459519 0.143771 0.977708
C2    C     C_R   0.854359 0.540480 0.856230 0.977383
C3    C     C_R   0.354357 0.959567 0.356231 0.977313
C4    C     C_R   0.645642 0.040433 0.643769 0.977309
O9    O     O_R   0.310670 0.290220 0.180540 -0.582272
O10   O     O_R   0.689330 0.709780 0.819460 -0.582315
O11   O     O_R   0.189330 0.790220 0.319460 -0.571706
O12   O     O_R   0.810670 0.209780 0.680540 -0.571678
O13   O     O_R   0.327870 0.124170 0.326080 -0.598050
O14   O     O_R   0.672130 0.875830 0.673920 -0.598038
O15   O     O_R   0.172130 0.624170 0.173920 -0.583251
O16   O     O_R   0.827870 0.375830 0.826080 -0.583442
C5    C     C_R   0.332063 0.459364 0.165176 1.004689
C6    C     C_R   0.667929 0.540629 0.834816 1.004200
C7    C     C_R   0.167598 0.959258 0.334477 1.002965
C8    C     C_R   0.832403 0.040742 0.665524 1.002999
O17   O     O_3   0.255480 0.455050 0.297740 -0.250231
O18   O     O_3   0.744520 0.544950 0.702260 -0.250150
O19   O     O_3   0.244520 0.955050 0.202260 -0.237302
O20   O     O_3   0.755480 0.044950 0.797740 -0.237296
V1    V     V_3+5 0.248980 0.178550 0.241140 1.243079
V2    V     V_3+5 0.751020 0.821450 0.758860 1.243005
V3    V     V_3+5 0.251020 0.678550 0.258860 1.263354
V4    V     V_3+5 0.748980 0.321450 0.741140 1.263183
C9    C     C_R   0.936263 0.893048 0.633058 0.027147
C10   C     C_R   0.063743 0.106963 0.366952 0.027166
C11   C     C_R   0.562045 0.657953 0.871846 0.028925
C12   C     C_R   0.437766 0.341730 0.127877 0.028853
C13   C     C_R   0.882122 0.029997 0.616749 -0.345781
C14   C     C_R   0.117882 0.970005 0.383256 -0.345779
C15   C     C_R   0.618847 0.530544 0.884300 -0.334527
C16   C     C_R   0.381040 0.469367 0.115567 -0.335021
C17   C     C_R   0.876168 0.159232 0.555292 0.320995
C18   C     C_R   0.123837 0.840768 0.444712 0.320994
C19   C     C_R   0.627912 0.389155 0.942008 0.327325
C20   C     C_R   0.371959 0.610850 0.057882 0.327432
C21   C     C_R   0.924086 0.152398 0.509217 -0.171832
C22   C     C_R   0.075922 0.847606 0.490791 -0.171853
C23   C     C_R   0.579752 0.371742 0.987546 -0.168595
C24   C     C_R   0.419948 0.627804 0.012106 -0.168360
C25   C     C_R   0.976394 0.006790 0.523498 0.006017
C26   C     C_R   0.023615 0.993217 0.476513 0.006018
C27   C     C_R   0.523817 0.505612 0.976673 -0.021729
C28   C     C_R   0.475848 0.493838 0.022918 -0.021938
C29   C     C_R   0.981241 0.873587 0.584402 0.175133
C30   C     C_R   0.018769 0.126423 0.415610 0.175151
C31   C     C_R   0.516102 0.652420 0.919982 0.172129
C32   C     C_R   0.483563 0.346993 0.079591 0.171253
C33   C     C_R   0.921379 0.286853 0.449238 0.304831
C34   C     C_R   0.078631 0.713152 0.550773 0.304831
C35   C     C_R   0.585601 0.224043 0.043486 0.301582
C36   C     C_R   0.413958 0.775104 0.955983 0.301345
C37   C     C_R   0.969197 0.277492 0.404858 -0.106746
C38   C     C_R   0.030816 0.722520 0.595157 -0.106731
C39   C     C_R   0.537044 0.208249 0.086828 -0.124488
C40   C     C_R   0.462485 0.790829 0.912587 -0.124920
C41   C     C_1   0.583157 0.027384 0.581573 -0.257811
C42   C     C_1   0.416842 0.972615 0.418428 -0.257814
C43   C     C_1   0.916846 0.527496 0.918430 -0.250928
C44   C     C_1   0.083154 0.472504 0.081571 -0.250868
C45   C     C_1   0.530848 0.010845 0.530180 0.088720
C46   C     C_1   0.469151 0.989155 0.469821 0.088718
C47   C     C_1   0.969152 0.510902 0.969822 0.091203
C48   C     C_1   0.030847 0.489098 0.030179 0.091168
N1    N     N_3   0.948991 0.782927 0.702326 -0.198960
H1    H     H_    0.910669 0.677670 0.698505 0.168318
H2    H     H_    0.950347 0.876218 0.747973 0.094151
N2    N     N_3   0.051013 0.217091 0.297686 -0.198966
H3    H     H_    0.089336 0.322341 0.301505 0.168314
H4    H     H_    0.049652 0.123804 0.252037 0.094135
N3    N     N_3   0.548082 0.784234 0.806818 -0.199688
H5    H     H_    0.585615 0.892889 0.814323 0.173066
H6    H     H_    0.547689 0.703278 0.758168 0.090431
N4    N     N_3   0.451945 0.215906 0.193045 -0.199638
H7    H     H_    0.452512 0.297247 0.241650 0.090376
H8    H     H_    0.414423 0.107286 0.185835 0.173327
N5    N     N_R   0.820112 0.294779 0.539703 0.258255
O21   O     O_R   0.758211 0.233449 0.508404 -0.347361
O22   O     O_R   0.828705 0.468027 0.569546 -0.354908
N6    N     N_R   0.179889 0.705210 0.460294 0.258253
O23   O     O_R   0.171289 0.531960 0.430451 -0.354937
O24   O     O_R   0.241794 0.766528 0.491587 -0.347438
N7    N     N_R   0.687349 0.266196 0.954253 0.254256
O25   O     O_R   0.682839 0.097143 0.921172 -0.352896
O26   O     O_R   0.747748 0.338050 0.985499 -0.351643
N8    N     N_R   0.312866 0.735044 0.046172 0.254704
O27   O     O_R   0.252098 0.664006 0.015976 -0.352007
O28   O     O_R   0.318196 0.904648 0.078938 -0.354340
N9    N     N_R   0.869699 0.435207 0.431028 0.253419
O29   O     O_R   0.812526 0.399749 0.380731 -0.308188
O30   O     O_R   0.885113 0.613908 0.452412 -0.386399
N10   N     N_R   0.130310 0.564791 0.568982 0.253415
O31   O     O_R   0.114891 0.386081 0.547603 -0.386423
O32   O     O_R   0.187490 0.600254 0.619275 -0.308272
N11   N     N_R   0.641485 0.088030 0.058860 0.254387
O33   O     O_R   0.631399 0.910184 0.033931 -0.381183
O34   O     O_R   0.697608 0.130240 0.109737 -0.308365
N12   N     N_R   0.357754 0.910106 0.940196 0.254427
O35   O     O_R   0.301329 0.864920 0.890268 -0.308060
O36   O     O_R   0.367570 0.089205 0.963805 -0.380335
N13   N     N_3   0.968286 0.428348 0.349866 -0.194874
H9    H     H_    0.977633 0.562543 0.377608 0.154156
H10   H     H_    0.919964 0.431410 0.311476 0.182712
N14   N     N_3   0.031737 0.571672 0.650161 -0.194872
H11   H     H_    0.080063 0.568637 0.688550 0.182734
H12   H     H_    0.022392 0.437458 0.622426 0.154160
N15   N     N_3   0.541650 0.045167 0.137371 -0.194141
H13   H     H_    0.589752 0.046183 0.176204 0.185060
H14   H     H_    0.536088 0.916224 0.105964 0.154556
N16   N     N_3   0.457612 0.953285 0.861705 -0.194115
H15   H     H_    0.463205 0.082634 0.892868 0.155006
H16   H     H_    0.409437 0.951697 0.823002 0.185028

loop_
_geom_bond_atom_site_label_1
_geom_bond_atom_site_label_2
_geom_bond_distance
_ccdc_geom_bond_type
C34   C38   1.403316 A    
O1    C5    1.290921 A    
O19   V1    1.683620 S    
O13   V1    1.955340 S    
N1    H1    1.044416 S    
O3    C7    1.289906 A    
O15   V3    1.955198 S    
N16   H16   1.045514 S    
N14   H12   1.045430 S    
N9    O29   1.300980 A    
C2    C43   1.469161 S    
O7    C3    1.317997 A    
C21   C33   1.421126 A    
C26   C30   1.422428 A    
O9    V1    2.005603 S    
N2    H4    1.045771 S    
C14   C18   1.410228 A    
N13   H10   1.045408 S    
O4    C8    1.289906 A    
C25   C29   1.422432 A    
N12   O35   1.301364 A    
N15   H13   1.045441 S    
O1    V3    2.010998 S    
C40   N16   1.437686 S    
O2    V4    2.010995 S    
C18   C22   1.427519 A    
C33   C37   1.403311 A    
O3    V1    2.009834 S    
N16   H15   1.045405 S    
C12   C16   1.410558 A    
C1    O15   1.310067 A    
C12   N4    1.438422 S    
N15   H14   1.045366 S    
O2    C6    1.290869 A    
O14   V2    1.955339 S    
C16   C20   1.409135 A    
C27   C31   1.423603 A    
C3    C42   1.469080 S    
C44   C48   1.226008 T    
C39   N15   1.437638 S    
O11   C7    1.293560 A    
C37   N13   1.437751 S    
O12   C8    1.293557 A    
C22   C34   1.421146 A    
O17   V1    2.149629 S    
N1    H2    1.045775 S    
C45   C46   1.444858 S    
O10   V2    2.005600 S    
N14   H11   1.045458 S    
N9    O30   1.300859 A    
C24   C36   1.421646 A    
O5    V1    1.952351 S    
N5    O22   1.301581 A    
C9    C29   1.421780 A    
O7    V3    1.951969 S    
O19   V3    2.147984 S    
C27   C28   1.432033 A    
O8    V4    1.951971 S    
O20   V4    2.147983 S    
C34   N10   1.433160 S    
N2    H3    1.044408 S    
C2    O16   1.310067 A    
N7    O25   1.301020 A    
N3    H6    1.045774 S    
O18   V4    1.682454 S    
C15   C19   1.409025 A    
N5    O21   1.301064 A    
C11   C31   1.423801 A    
N4    H7    1.045776 S    
C9    C13   1.412245 A    
C11   C15   1.410646 A    
O5    C1    1.318161 A    
C12   C32   1.423547 A    
N7    O26   1.301032 A    
C29   C38   1.417466 A    
C21   C25   1.426649 A    
O8    C4    1.317997 A    
C33   N9    1.433130 S    
C31   C40   1.417585 A    
N10   O32   1.301035 A    
C8    C13   1.495629 S    
C32   C39   1.417389 A    
O9    C5    1.291929 A    
N11   O34   1.300938 A    
N8    O28   1.301179 A    
C9    N1    1.438695 S    
O6    V2    1.952353 S    
N6    O24   1.301078 A    
C10   C30   1.421766 A    
N4    H8    1.044059 S    
C18   N6    1.433735 S    
C36   N12   1.433505 S    
O16   V4    1.955197 S    
C3    O13   1.309947 A    
C10   C14   1.412240 A    
O17   V3    1.682453 S    
O6    C2    1.318160 A    
C23   C27   1.426893 A    
O11   V3    2.007703 S    
C30   C37   1.417431 A    
O12   V4    2.007706 S    
C7    C14   1.495632 S    
C17   N5    1.433735 S    
C4    C41   1.469079 S    
C22   C26   1.426648 A    
C35   C39   1.404069 A    
C36   C40   1.404240 A    
C35   N11   1.433284 S    
O10   C6    1.291982 A    
O20   V2    1.683620 S    
C1    C44   1.469160 S    
C47   C48   1.444974 S    
N13   H9    1.045380 S    
C42   C46   1.225944 T    
C5    C16   1.494718 S    
N12   O36   1.301407 A    
C41   C45   1.225946 T    
C6    C15   1.494711 S    
C11   N3    1.438365 S    
N10   O31   1.300909 A    
C43   C47   1.226008 T    
C13   C17   1.410223 A    
N8    O27   1.301280 A    
C19   N7    1.433714 S    
C20   N8    1.433784 S    
C23   C35   1.421526 A    
N3    H5    1.044113 S    
C28   C32   1.423553 A    
C24   C28   1.426862 A    
C38   N14   1.437818 S    
N6    O23   1.301600 A    
C25   C26   1.431049 A    
C4    O14   1.309947 A    
N11   O33   1.300961 A    
C17   C21   1.427509 A    
C19   C23   1.428101 A    
O4    V2    2.009837 S    
C20   C24   1.428305 A    
C10   N2    1.438689 S    
O18   V2    2.149629 S    
