data_mof_unit_61239.cif
_audit_creation_date              2012-12-10T19:37:55-0500
_audit_creation_method            fapswitch 2.2
_symmetry_space_group_name_H-M    P1
_symmetry_Int_Tables_number       1
_space_group_crystal_system       triclinic
_cell_length_a                    27.756131
_cell_length_b                    26.518197
_cell_length_c                    18.481391
_cell_angle_alpha                 90.636139
_cell_angle_beta                  90.032351
_cell_angle_gamma                 89.942319
_cell_volume                      13602.2427589

loop_
_atom_site_label
_atom_site_type_symbol
_atom_type_description
_atom_site_fract_x
_atom_site_fract_y
_atom_site_fract_z
_atom_type_partial_charge
C1    C     C_R   0.067172 0.432815 0.499750 0.969467
C2    C     C_R   0.932679 0.566907 0.500182 0.870264
C3    C     C_R   0.932524 0.433117 0.499766 0.969925
C4    C     C_R   0.067513 0.566889 0.500330 0.928382
C5    C     C_R   0.567334 0.933094 0.499829 0.878997
C6    C     C_R   0.432349 0.066728 0.500276 0.946634
C7    C     C_R   0.432474 0.933127 0.499669 0.926872
C8    C     C_R   0.567415 0.066875 0.500234 0.874290
C9    C     C_R   0.000012 0.500052 0.155977 -0.302433
C10   C     C_R   0.000056 0.500019 0.844006 -0.304640
C11   C     C_R   0.499919 0.999985 0.155991 -0.304959
C12   C     C_R   0.499970 0.999962 0.844022 -0.303820
C13   C     C_R   0.009321 0.455770 0.194988 0.324563
C14   C     C_R   0.990475 0.544233 0.804956 0.324009
C15   C     C_R   0.990625 0.544304 0.196431 0.323773
C16   C     C_R   0.009638 0.455794 0.803575 0.324208
C17   C     C_R   0.509491 0.955766 0.195037 0.323825
C18   C     C_R   0.490797 0.044271 0.805004 0.323335
C19   C     C_R   0.490349 0.044210 0.196429 0.323591
C20   C     C_R   0.509245 0.955682 0.803582 0.323712
C21   C     C_R   0.008071 0.456089 0.271504 0.419198
C22   C     C_R   0.991658 0.543881 0.728435 0.426978
C23   C     C_R   0.991834 0.543960 0.272962 0.438252
C24   C     C_R   0.008378 0.456100 0.727048 0.436910
C25   C     C_R   0.508321 0.956117 0.271559 0.426440
C26   C     C_R   0.492071 0.043950 0.728485 0.424591
C27   C     C_R   0.491618 0.043900 0.272956 0.437994
C28   C     C_R   0.508058 0.956022 0.727052 0.438702
C29   C     C_R   0.852828 0.403582 0.543600 0.334363
C30   C     C_R   0.146663 0.597306 0.455299 0.335570
C31   C     C_R   0.102194 0.646037 0.547479 0.367781
C32   C     C_R   0.899615 0.352049 0.457278 0.378887
C33   C     C_R   0.094198 0.348729 0.461133 0.388404
C34   C     C_R   0.902293 0.651380 0.535038 0.389926
C35   C     C_R   0.850023 0.593066 0.466231 0.385409
C36   C     C_R   0.147282 0.400648 0.538132 0.342046
C37   C     C_R   0.353206 0.903001 0.544662 0.336318
C38   C     C_R   0.649584 0.094305 0.464576 0.378652
C39   C     C_R   0.598596 0.150068 0.539609 0.371462
C40   C     C_R   0.397499 0.854160 0.452406 0.368884
C41   C     C_R   0.597280 0.848526 0.464623 0.389603
C42   C     C_R   0.395484 0.145621 0.544068 0.376726
C43   C     C_R   0.350117 0.091149 0.459909 0.342905
C44   C     C_R   0.649717 0.906160 0.534319 0.387756
C45   C     C_R   0.818344 0.365703 0.547008 0.393131
C46   C     C_R   0.181514 0.634897 0.453315 0.390262
C47   C     C_R   0.138710 0.682736 0.547251 0.285347
C48   C     C_R   0.863666 0.314696 0.459370 0.276508
C49   C     C_R   0.128399 0.309541 0.462327 0.276364
C50   C     C_R   0.865146 0.686611 0.536765 0.391321
C51   C     C_R   0.814000 0.629618 0.466114 0.397644
C52   C     C_R   0.180438 0.361299 0.540018 0.393476
C53   C     C_R   0.318219 0.865546 0.546596 0.390778
C54   C     C_R   0.685783 0.130646 0.466429 0.397526
C55   C     C_R   0.636043 0.184786 0.543688 0.393568
C56   C     C_R   0.360856 0.817601 0.452598 0.285386
C57   C     C_R   0.634185 0.813020 0.462833 0.391945
C58   C     C_R   0.357295 0.180539 0.543855 0.283341
C59   C     C_R   0.312728 0.126130 0.459615 0.392735
C60   C     C_R   0.685507 0.869355 0.534270 0.398377
C61   C     C_R   0.823580 0.321759 0.504807 -0.270463
C62   C     C_R   0.177709 0.677102 0.499411 -0.274108
C63   C     C_R   0.171204 0.316256 0.501846 -0.271021
C64   C     C_R   0.821443 0.675993 0.501636 -0.334031
C65   C     C_R   0.321891 0.823342 0.500479 -0.273824
C66   C     C_R   0.679205 0.175474 0.506367 -0.333328
C67   C     C_R   0.677854 0.823167 0.498324 -0.334350
C68   C     C_R   0.316144 0.170338 0.501730 -0.273076
C69   C     C_R   0.000052 0.500035 0.925742 0.443155
C70   C     C_R   0.000033 0.500062 0.074250 0.443364
C71   C     C_R   0.499946 0.999956 0.925746 0.443714
C72   C     C_R   0.499922 0.999974 0.074253 0.443197
C73   C     C_R   0.893942 0.396186 0.499439 -0.326889
C74   C     C_R   0.106340 0.603617 0.501343 -0.316047
C75   C     C_R   0.103887 0.393889 0.499109 -0.317054
C76   C     C_R   0.894559 0.604146 0.500479 -0.389856
C77   C     C_R   0.393522 0.896547 0.498635 -0.317011
C78   C     C_R   0.605543 0.104216 0.500982 -0.402947
C79   C     C_R   0.605230 0.895583 0.499583 -0.395642
C80   C     C_R   0.391974 0.101615 0.501199 -0.312262
C81   C     C_R   0.215207 0.714923 0.498887 0.446767
C82   C     C_R   0.786112 0.283890 0.506407 0.446912
C83   C     C_R   0.783898 0.713830 0.500794 0.437590
C84   C     C_R   0.207222 0.276735 0.501464 0.447861
C85   C     C_R   0.716693 0.213453 0.507006 0.436707
C86   C     C_R   0.284356 0.785564 0.501131 0.446743
C87   C     C_R   0.276817 0.206323 0.501232 0.445212
C88   C     C_R   0.715150 0.785049 0.499121 0.437256
N1    N     N_R   0.000000 0.500000 0.310560 -0.256976
N2    N     N_R   0.000000 0.500000 0.689440 -0.256529
N3    N     N_R   0.500000 0.000000 0.310560 -0.256127
N4    N     N_R   0.500000 0.000000 0.689440 -0.255240
N5    N     N_R   0.963772 0.522274 0.036495 -0.072270
N6    N     N_R   0.036315 0.477827 0.963502 -0.071235
N7    N     N_R   0.036304 0.477836 0.035885 -0.072096
N8    N     N_R   0.963781 0.522258 0.964112 -0.072868
N9    N     N_R   0.463689 0.022235 0.036493 -0.070684
N10   N     N_R   0.536178 0.977692 0.963500 -0.072313
N11   N     N_R   0.536167 0.977703 0.035882 -0.073510
N12   N     N_R   0.463703 0.022232 0.964110 -0.072345
N13   N     N_R   0.795780 0.237016 0.530912 -0.070775
N14   N     N_R   0.204585 0.763071 0.481134 -0.071207
N15   N     N_R   0.260772 0.702518 0.517919 -0.075464
N16   N     N_R   0.741375 0.295146 0.482270 -0.077164
N17   N     N_R   0.219868 0.253979 0.563881 -0.072560
N18   N     N_R   0.768298 0.732558 0.437065 -0.073221
N19   N     N_R   0.764733 0.731122 0.563684 -0.070872
N20   N     N_R   0.229479 0.263587 0.438854 -0.071402
N21   N     N_R   0.294974 0.737419 0.518899 -0.071563
N22   N     N_R   0.707099 0.260344 0.482533 -0.076096
N23   N     N_R   0.761451 0.202208 0.531262 -0.070536
N24   N     N_R   0.238789 0.797974 0.482114 -0.074938
N25   N     N_R   0.730725 0.766288 0.562845 -0.073372
N26   N     N_R   0.263888 0.228821 0.438740 -0.073922
N27   N     N_R   0.254243 0.219166 0.563748 -0.069140
N28   N     N_R   0.734293 0.767730 0.436228 -0.070638
O1    O     O_R   0.050940 0.449070 0.560830 -0.614415
O2    O     O_R   0.949060 0.550930 0.439170 -0.603539
O3    O     O_R   0.949060 0.550930 0.560830 -0.604853
O4    O     O_R   0.050940 0.449070 0.439170 -0.584429
O5    O     O_R   0.949060 0.449070 0.439170 -0.597872
O6    O     O_R   0.050940 0.550930 0.560830 -0.600112
O7    O     O_R   0.050940 0.550930 0.439170 -0.645180
O8    O     O_R   0.949060 0.449070 0.560830 -0.643160
O9    O     O_R   0.550940 0.949070 0.560830 -0.599711
O10   O     O_R   0.449060 0.050930 0.439170 -0.611536
O11   O     O_R   0.449060 0.050930 0.560830 -0.588335
O12   O     O_R   0.550940 0.949070 0.439170 -0.602067
O13   O     O_R   0.449060 0.949070 0.439170 -0.599765
O14   O     O_R   0.550940 0.050930 0.560830 -0.622398
O15   O     O_R   0.550940 0.050930 0.439170 -0.628540
O16   O     O_R   0.449060 0.949070 0.560830 -0.642415
Zn1   Zn    Zn3+2 0.000000 0.500000 0.581210 1.007279
Zn2   Zn    Zn3+2 0.000000 0.500000 0.418790 1.012665
Zn3   Zn    Zn3+2 0.500000 0.000000 0.581210 1.000499
Zn4   Zn    Zn3+2 0.500000 0.000000 0.418790 1.004120
O17   O     O_3   0.014872 0.410719 0.305116 -0.623445
H1    H     H_    0.999335 0.412886 0.352670 0.420465
O18   O     O_3   0.984425 0.589170 0.694746 -0.618115
H2    H     H_    0.000052 0.587162 0.647246 0.404565
O19   O     O_3   0.984532 0.589314 0.308017 -0.653149
H3    H     H_    0.000966 0.588004 0.354967 0.380954
O20   O     O_3   0.015781 0.410770 0.691982 -0.649796
H4    H     H_    0.999093 0.411963 0.645211 0.383282
O21   O     O_3   0.515539 0.910825 0.305243 -0.617633
H5    H     H_    0.499915 0.912841 0.352744 0.404762
O22   O     O_3   0.485437 0.089366 0.694894 -0.620301
H6    H     H_    0.500886 0.087203 0.647273 0.399982
O23   O     O_3   0.484220 0.089230 0.308025 -0.649466
H7    H     H_    0.500909 0.088033 0.354795 0.380589
O24   O     O_3   0.515295 0.910645 0.692024 -0.653318
H8    H     H_    0.499017 0.912018 0.644964 0.381198
Cl1   Cl    Cl    0.019008 0.397719 0.149428 -0.358313
Cl2   Cl    Cl    0.980503 0.602255 0.850450 -0.346083
Cl3   Cl    Cl    0.980818 0.602339 0.152721 -0.362027
Cl4   Cl    Cl    0.019717 0.397813 0.847293 -0.361951
Cl5   Cl    Cl    0.519434 0.897739 0.149542 -0.345813
Cl6   Cl    Cl    0.481250 0.102346 0.850568 -0.351291
Cl7   Cl    Cl    0.480276 0.102197 0.152722 -0.361221
Cl8   Cl    Cl    0.518900 0.897627 0.847314 -0.361830
O25   O     O_3   0.844874 0.447112 0.583808 -0.637850
H9    H     H_    0.863727 0.475200 0.563456 0.334789
O26   O     O_3   0.153536 0.554955 0.412189 -0.639990
H10   H     H_    0.136344 0.526022 0.433484 0.333529
O27   O     O_3   0.061862 0.650238 0.591117 -0.717982
H11   H     H_    0.060258 0.683961 0.614164 0.419520
O28   O     O_3   0.941035 0.346769 0.416181 -0.688570
H12   H     H_    0.942850 0.312718 0.394221 0.408039
O29   O     O_3   0.050356 0.344106 0.425944 -0.675756
H13   H     H_    0.048729 0.312095 0.398301 0.411124
O30   O     O_3   0.945739 0.665000 0.566244 -0.619007
H14   H     H_    0.971943 0.644226 0.545333 0.353139
O31   O     O_3   0.839877 0.547202 0.433085 -0.643404
H15   H     H_    0.863751 0.521503 0.447271 0.329318
O32   O     O_3   0.159013 0.445074 0.573959 -0.637590
H16   H     H_    0.138772 0.473006 0.556091 0.326288
O33   O     O_3   0.346474 0.945356 0.587817 -0.641257
H17   H     H_    0.363774 0.974234 0.566573 0.333117
O34   O     O_3   0.659000 0.049920 0.427015 -0.641648
H18   H     H_    0.635651 0.023573 0.440442 0.339650
O35   O     O_3   0.555694 0.162592 0.573276 -0.627642
H19   H     H_    0.528994 0.144166 0.549462 0.358351
O36   O     O_3   0.437800 0.849847 0.408721 -0.717319
H20   H     H_    0.439261 0.816154 0.385563 0.419534
O37   O     O_3   0.553812 0.835332 0.433127 -0.618799
H21   H     H_    0.527672 0.855973 0.454500 0.352613
O38   O     O_3   0.437360 0.153643 0.583166 -0.696050
H22   H     H_    0.433435 0.182364 0.617102 0.423830
O39   O     O_3   0.343890 0.046971 0.420509 -0.638651
H23   H     H_    0.364900 0.020279 0.440159 0.327892
O40   O     O_3   0.660068 0.951744 0.568128 -0.639906
H24   H     H_    0.636111 0.977582 0.554835 0.335912
Cl9   Cl    Cl    0.768278 0.374177 0.605083 -0.358179
Cl10  Cl    Cl    0.230246 0.628162 0.392340 -0.355813
Cl11  Cl    Cl    0.137374 0.734443 0.608996 -0.426353
Cl12  Cl    Cl    0.867225 0.260060 0.403374 -0.435634
Cl13  Cl    Cl    0.117295 0.251076 0.417841 -0.432273
Cl14  Cl    Cl    0.875593 0.745791 0.578998 -0.343404
Cl15  Cl    Cl    0.758289 0.615284 0.424190 -0.350677
Cl16  Cl    Cl    0.235146 0.370460 0.587492 -0.348701
Cl17  Cl    Cl    0.269499 0.872438 0.607557 -0.357074
Cl18  Cl    Cl    0.739287 0.119341 0.416860 -0.350272
Cl19  Cl    Cl    0.627843 0.240306 0.596215 -0.347479
Cl20  Cl    Cl    0.362003 0.765928 0.390786 -0.425758
Cl21  Cl    Cl    0.623434 0.754076 0.420090 -0.343619
Cl22  Cl    Cl    0.362008 0.238714 0.591693 -0.418170
Cl23  Cl    Cl    0.260241 0.112274 0.408878 -0.354980
Cl24  Cl    Cl    0.741211 0.883150 0.576599 -0.348081

loop_
_geom_bond_atom_site_label_1
_geom_bond_atom_site_label_2
_ccdc_geom_bond_type
C42   O38   S    
N16   N22   A    
O30   H14   S    
C42   C80   A    
O27   H11   S    
C49   C63   A    
C50   C64   A    
O29   H13   S    
N14   N24   A    
O14   Zn3   S    
C18   C26   A    
C21   O17   S    
O2    Zn2   S    
C69   N8    A    
C33   O29   S    
C26   O22   S    
C42   C58   A    
C66   C85   S    
O21   H5    S    
C50   Cl14  S    
C65   C86   S    
C64   C83   S    
C49   Cl13  S    
O35   H19   S    
C11   C19   A    
C67   C88   S    
O3    Zn1   S    
O8    Zn1   S    
C46   C62   A    
C47   Cl11  S    
O11   Zn3   S    
C6    O11   A    
C61   C82   S    
O12   Zn4   S    
C44   O40   S    
C30   C74   A    
C29   C73   A    
C58   Cl22  S    
C24   O20   S    
C33   C49   A    
O20   H4    S    
C57   Cl21  S    
N20   N26   A    
C88   N25   A    
C9    C13   A    
N19   N25   A    
C87   N26   A    
O22   H6    S    
C33   C75   A    
C39   C55   A    
N3    Zn4   S    
C31   O27   S    
C60   C67   A    
C83   N19   A    
C40   C56   A    
C16   Cl4   S    
O24   H8    S    
C23   N1    A    
C27   N3    A    
C52   Cl16  S    
O5    Zn2   S    
C5    C79   S    
C53   C65   A    
C4    C74   S    
C36   C52   A    
C43   C59   A    
C7    C77   S    
C40   O36   S    
C37   C53   A    
O9    Zn3   S    
C15   C23   A    
O1    Zn1   S    
C16   C24   A    
C31   C47   A    
C14   Cl2   S    
C8    C78   S    
C32   C48   A    
C12   C20   A    
N6    N7    A    
C30   O26   S    
C57   C67   A    
C7    O13   A    
C19   C27   A    
O28   H12   S    
C30   C46   A    
O25   H9    S    
C81   N14   A    
C45   Cl9   S    
C71   N10   A    
C35   C76   A    
C25   N3    A    
C34   C50   A    
O7    Zn2   S    
C13   C21   A    
O40   H24   S    
C1    C75   S    
C39   C78   A    
C29   O25   S    
C70   N5    A    
C9    C70   S    
C6    O10   A    
C69   N6    A    
C10   C14   A    
C32   C73   A    
C10   C16   A    
N2    Zn1   S    
C11   C72   S    
C60   Cl24  S    
C31   C74   A    
C21   N1    A    
C38   C78   A    
C43   C80   A    
O31   H15   S    
C37   C77   A    
C22   O18   S    
C53   Cl17  S    
C46   Cl10  S    
C29   C45   A    
C1    O4    A    
C35   O31   S    
C88   N28   A    
C86   N24   A    
O36   H20   S    
C2    O2    A    
O6    Zn1   S    
C18   Cl6   S    
C36   C75   A    
C59   C68   A    
O13   Zn4   S    
C6    C80   S    
O32   H16   S    
C38   C54   A    
O18   H2    S    
C55   Cl19  S    
C17   Cl5   S    
C86   N21   A    
C8    O15   A    
C84   N17   A    
C22   N2    A    
C4    O6    A    
C28   N4    A    
C1    O1    A    
C13   Cl1   S    
C7    O16   A    
C39   O35   S    
C51   Cl15  S    
C28   O24   S    
C62   C81   S    
C54   C66   A    
C58   C68   A    
C12   C71   S    
C5    O9    A    
O15   Zn4   S    
N5    N8    A    
C71   N12   A    
C35   C51   A    
C85   N22   A    
N4    Zn3   S    
C12   C18   A    
C20   C28   A    
C41   O37   S    
N9    N12   A    
C2    C76   S    
C3    O8    A    
C81   N15   A    
C59   Cl23  S    
C11   C17   A    
C38   O34   S    
C15   Cl3   S    
N17   N27   A    
C44   C79   A    
C51   C64   A    
C85   N23   A    
C52   C63   A    
C24   N2    A    
C41   C79   A    
C2    O3    A    
C43   O39   S    
C56   Cl20  S    
N13   N23   A    
C37   O33   S    
O17   H1    S    
O37   H21   S    
C72   N9    A    
C83   N18   A    
C63   C84   S    
N15   N21   A    
C17   C25   A    
C47   C62   A    
C70   N7    A    
C9    C15   A    
C41   C57   A    
O38   H22   S    
C54   Cl18  S    
O23   H7    S    
C8    O14   A    
C14   C22   A    
C48   C61   A    
C44   C60   A    
O16   Zn3   S    
C5    O12   A    
C45   C61   A    
C84   N20   A    
C82   N13   A    
C87   N27   A    
C19   Cl7   S    
O4    Zn2   S    
O39   H23   S    
C3    C73   S    
N1    Zn2   S    
O26   H10   S    
O33   H17   S    
O10   Zn4   S    
O34   H18   S    
C10   C69   S    
C3    O5    A    
C4    O7    A    
C36   O32   S    
C27   O23   S    
N10   N11   A    
C20   Cl8   S    
C32   O28   S    
N18   N28   A    
C68   C87   S    
C82   N16   A    
C40   C77   A    
C23   O19   S    
C25   O21   S    
O19   H3    S    
C26   N4    A    
C48   Cl12  S    
C34   O30   S    
C56   C65   A    
C34   C76   A    
C55   C66   A    
C72   N11   A    
