data_mof_unit_67321.cif
_audit_creation_date              2012-12-11T18:51:18-0500
_audit_creation_method            fapswitch 2.2
_symmetry_space_group_name_H-M    P1
_symmetry_Int_Tables_number       1
_space_group_crystal_system       triclinic
_cell_length_a                    8.401726
_cell_length_b                    15.144877
_cell_length_c                    15.094087
_cell_angle_alpha                 98.778752
_cell_angle_beta                  98.10245
_cell_angle_gamma                 98.667199
_cell_volume                      1849.83601807

loop_
_atom_site_label
_atom_site_type_symbol
_atom_type_description
_atom_site_fract_x
_atom_site_fract_y
_atom_site_fract_z
_atom_type_partial_charge
Ba1   Ba    Ba6+2 0.844890 0.542420 0.457460 1.714216
Ba2   Ba    Ba6+2 0.344950 0.457650 0.542550 1.740813
C1    C     C_3   0.423739 0.805691 0.167849 0.325833
C2    C     C_3   0.540681 0.773595 0.239406 0.357239
C3    C     C_3   0.346691 0.322099 0.265959 0.381049
C4    C     C_3   0.265981 0.287073 0.167121 0.396939
C5    C     C_3   0.106026 0.232930 0.765291 0.462682
C6    C     C_3   0.028504 0.186752 0.836264 0.330692
C7    C     C_3   0.617246 0.246255 0.828255 0.802653
C8    C     C_3   0.579190 0.196577 0.905532 -0.164177
C9    C     C_R   0.837257 0.445272 0.827888 -0.014844
C10   C     C_R   0.903069 0.454641 0.921549 -0.025232
C11   C     C_R   0.038216 0.468436 0.109614 -0.047307
C12   C     C_3   0.033890 0.735696 0.227257 0.347965
C13   C     C_R   0.879613 0.423276 0.073797 -0.031764
C14   C     C_R   0.809991 0.422837 0.984316 -0.097024
C15   C     C_R   0.102716 0.479017 0.204735 0.026710
C16   C     C_R   0.263037 0.525368 0.234549 -0.281761
C17   C     C_R   0.092317 0.525703 0.797946 0.049332
C18   C     C_R   0.161196 0.535253 0.892404 -0.055653
C19   C     C_R   0.067232 0.496754 0.953526 0.005344
C20   C     C_R   0.319958 0.582063 0.928384 -0.044628
C21   C     C_R   0.388402 0.585258 0.019119 -0.068995
C22   C     C_R   0.297067 0.548394 0.080540 -0.033456
C23   C     C_3   0.979732 0.764302 0.136883 -0.175439
C24   C     C_R   0.134119 0.504926 0.048128 0.004837
C25   C     C_R   0.362501 0.555546 0.173795 0.045886
C26   C     C_R   0.934642 0.476663 0.767634 -0.269880
C27   C     C_R   0.330697 0.825981 0.453951 0.011095
C28   C     C_R   0.585402 0.797345 0.531521 -0.006885
C29   C     C_R   0.767616 0.224527 0.489996 -0.272891
C30   C     C_R   0.868628 0.167929 0.520805 0.028716
C31   C     C_R   0.807389 0.075273 0.513926 -0.006387
C32   C     C_R   0.637729 0.041399 0.490664 0.054171
C33   C     C_R   0.539474 0.096852 0.445996 -0.074014
C34   C     C_3   0.281966 0.737555 0.667256 0.275047
C35   C     C_R   0.565546 0.951658 0.502062 -0.040561
C36   C     C_R   0.398981 0.918701 0.462292 -0.105982
C37   C     C_R   0.306449 0.976635 0.423931 -0.029622
C38   C     C_R   0.380136 0.055793 0.401279 0.384130
C39   C     C_R   0.647655 0.892580 0.551312 0.291551
C40   C     C_R   0.429654 0.765748 0.480835 -0.342338
C41   C     C_R   0.606705 0.190347 0.448736 0.059212
C42   C     C_3   0.315553 0.839853 0.697126 -0.298424
C43   C     C_3   0.888616 0.249578 0.301963 0.293297
C44   C     C_3   0.840353 0.153464 0.245065 -0.136448
C45   C     C_3   0.790123 0.660915 0.732199 0.336680
C46   C     C_3   0.828334 0.688260 0.835305 -0.236872
H1    H     H_    0.409498 0.858799 0.759307 0.149044
H2    H     H_    0.357099 0.874607 0.642942 0.099515
H3    H     H_    0.202906 0.862615 0.714260 0.182514
H4    H     H_    0.778427 0.273945 0.321220 0.024440
H5    H     H_    0.980519 0.251695 0.363226 0.028073
H6    H     H_    0.717648 0.145860 0.203517 0.201021
H7    H     H_    0.925690 0.143605 0.195741 0.166680
H8    H     H_    0.901538 0.648118 0.705081 -0.006105
H9    H     H_    0.695092 0.598656 0.714424 0.031121
H10   H     H_    0.356571 0.854083 0.203048 0.068935
H11   H     H_    0.856788 0.629598 0.866075 0.039198
H12   H     H_    0.717829 0.708075 0.859935 0.166159
H13   H     H_    0.462115 0.742613 0.284318 -0.126936
H14   H     H_    0.332942 0.746232 0.130543 -0.082355
H15   H     H_    0.248804 0.322258 0.307210 -0.013330
H16   H     H_    0.415267 0.392189 0.274938 -0.025246
H17   H     H_    0.171042 0.325264 0.145212 -0.107545
H18   H     H_    0.207333 0.214832 0.157464 0.125525
H19   H     H_    0.079304 0.812418 0.119906 0.130459
H20   H     H_    0.234650 0.261828 0.793420 0.086041
H21   H     H_    0.040223 0.289652 0.753552 -0.183115
H22   H     H_    0.038258 0.237333 0.899037 -0.024174
H23   H     H_    0.898071 0.163952 0.809482 0.102694
H24   H     H_    0.749744 0.274189 0.842788 -0.336553
H25   H     H_    0.452466 0.160012 0.889593 0.214629
H26   H     H_    0.932764 0.685651 0.239813 0.114753
H27   H     H_    0.592288 0.249631 0.965413 0.183668
H28   H     H_    0.806114 0.389292 0.115139 0.187875
H29   H     H_    0.681603 0.397042 0.965665 0.136255
H30   H     H_    0.513598 0.618869 0.040624 0.136941
H31   H     H_    0.394525 0.616343 0.886983 0.134679
H32   H     H_    0.314943 0.533300 0.305702 0.057066
H33   H     H_    0.881380 0.469359 0.696731 0.041138
H34   H     H_    0.379630 0.693971 0.468660 0.072318
H35   H     H_    0.178299 0.955082 0.397573 0.151797
H36   H     H_    0.144335 0.703970 0.223938 -0.063157
H37   H     H_    0.816248 0.296220 0.498077 0.023685
H38   H     H_    0.892813 0.031469 0.531006 0.129807
H39   H     H_    0.875660 0.800654 0.142961 0.208772
H40   H     H_    0.394164 0.714879 0.649219 0.019880
H41   H     H_    0.181803 0.719449 0.607633 0.058460
O1    O     O_2   0.826410 0.445300 0.275350 -0.430009
O2    O     O_3   0.731934 0.732691 0.698691 -0.554334
O3    O     O_3   0.066104 0.812345 0.296065 -0.598984
O4    O     O_2   0.363300 0.554730 0.724710 -0.456728
O5    O     O_3   0.090820 0.551650 0.611100 -0.508101
O6    O     O_3   0.561090 0.386750 0.661790 -0.447051
O7    O     O_3   0.237673 0.699619 0.740700 -0.641482
O8    O     O_3   0.598940 0.388670 0.448890 -0.497651
O9    O     O_3   0.128820 0.338650 0.613920 -0.493777
O10   O     O_2   0.193725 0.177614 0.533807 -0.424775
O11   O     O_3   0.097894 0.169252 0.685773 -0.486730
O12   O     O_3   0.098900 0.448430 0.388910 -0.512147
O13   O     O_3   0.590780 0.611410 0.551120 -0.517542
O14   O     O_2   0.326530 0.274990 0.446290 -0.439299
O15   O     O_3   0.454556 0.264980 0.291185 -0.555884
O16   O     O_2   0.534144 0.482513 0.820683 -0.491053
O17   O     O_3   0.521648 0.314896 0.825871 -0.614516
O18   O     O_3   0.628630 0.613330 0.338230 -0.479810
O19   O     O_2   0.698078 0.550829 0.177718 -0.460861
O20   O     O_3   0.957954 0.302464 0.245315 -0.665787
O21   O     O_3   0.631504 0.713709 0.196587 -0.607675
O22   O     O_2   0.863180 0.725040 0.553770 -0.438479
O23   O     O_3   0.060890 0.661420 0.386090 -0.509345
O24   O     O_2   0.998285 0.821753 0.458088 -0.459616
P1    P     P_3+3 0.996530 0.418490 0.288400 0.965094
P2    P     P_3+3 0.693090 0.712100 0.580610 1.071908
P3    P     P_3+3 0.115450 0.779118 0.401087 0.944064
P4    P     P_3+3 0.193180 0.581580 0.711620 0.965782
P5    P     P_3+3 0.070857 0.218080 0.587419 1.094719
P6    P     P_3+3 0.578416 0.605020 0.221006 0.986991
P7    P     P_3+3 0.494302 0.276690 0.409316 1.061564
P8    P     P_3+3 0.617792 0.405284 0.781729 0.981502
C47   C     C_3   0.659456 0.852266 0.300904 -0.279778
H42   H     H_    0.596608 0.909868 0.319776 0.052792
H43   H     H_    0.710764 0.829686 0.363673 0.102665
H44   H     H_    0.762374 0.874610 0.266629 0.164277
C48   C     C_3   0.843972 0.078061 0.300752 -0.384688
H45   H     H_    0.869269 0.017224 0.258284 0.203231
H46   H     H_    0.942341 0.096308 0.360759 0.133839
H47   H     H_    0.724271 0.060972 0.321624 0.123914
C49   C     C_3   0.971733 0.767558 0.866151 -0.296179
H48   H     H_    0.967255 0.802558 0.935626 0.148838
H49   H     H_    0.088324 0.741719 0.867703 0.104294
H50   H     H_    0.969071 0.818542 0.820632 0.236895
S1    S     S_3+6 0.412653 0.297241 0.095357 -0.092516
O25   O     O_2   0.527154 0.385609 0.126948 -0.366640
O26   O     O_2   0.505521 0.220363 0.100687 -0.254068
O27   O     O_3   0.321210 0.294230 0.988394 -0.535002
H51   H     H_    0.302781 0.356893 0.985859 0.327950
S2    S     S_3+6 0.516531 0.858244 0.084613 -0.043623
O28   O     O_2   0.639138 0.941180 0.129246 -0.272757
O29   O     O_2   0.598708 0.793159 0.029688 -0.330340
O30   O     O_3   0.370299 0.889942 0.014627 -0.442250
H52   H     H_    0.290625 0.833447 0.989876 0.311833
S3    S     S_3+6 0.108354 0.088856 0.864216 0.000481
O31   O     O_2   0.211554 0.112006 0.957031 -0.236850
O32   O     O_2   0.969325 0.014829 0.866426 -0.247251
O33   O     O_3   0.218706 0.050079 0.787055 -0.432042
H53   H     H_    0.281167 0.008941 0.816648 0.356596
S4    S     S_3+6 0.569424 0.173836 0.720589 -0.044272
O34   O     O_2   0.530690 0.075115 0.726377 -0.295522
O35   O     O_2   0.428049 0.198925 0.664568 -0.241296
O36   O     O_3   0.732527 0.194655 0.671437 -0.547152
H54   H     H_    0.753575 0.261202 0.674473 0.272875
C50   C     C_3   0.693968 0.132654 0.932636 -0.355158
H55   H     H_    0.647414 0.097134 0.985449 0.215880
H56   H     H_    0.700794 0.080582 0.874351 0.193042
H57   H     H_    0.817284 0.171663 0.962535 0.124347
S5    S     S_3+6 0.789242 0.934930 0.654428 -0.013243
O37   O     O_2   0.948887 0.904583 0.645554 -0.260640
O38   O     O_2   0.820434 0.035867 0.679824 -0.225565
O39   O     O_3   0.715380 0.895165 0.741154 -0.486805
H58   H     H_    0.665803 0.944079 0.771496 0.367244
S6    S     S_3+6 0.296949 0.070248 0.291168 -0.109581
O40   O     O_2   0.196682 0.143684 0.298796 -0.375545
O41   O     O_2   0.431013 0.092242 0.237840 -0.256619
O42   O     O_3   0.173520 0.974764 0.234244 -0.537961
H59   H     H_    0.130985 0.989607 0.174698 0.380568
C51   C     C_3   0.928647 0.682534 0.060302 -0.476249
H60   H     H_    0.031965 0.673827 0.023402 0.121462
H61   H     H_    0.889574 0.619270 0.085322 0.162354
H62   H     H_    0.822945 0.693128 0.013270 0.184096

loop_
_geom_bond_atom_site_label_1
_geom_bond_atom_site_label_2
_ccdc_geom_bond_type
C34   H41   S    
C42   H1    S    
C19   C24   A    
Ba1   O1    S    
C29   H37   S    
C27   C40   A    
C32   C35   A    
O33   H53   S    
C23   H19   S    
C22   C25   A    
C12   H36   S    
C8    C50   S    
S1    O27   S    
O39   H58   S    
C5    C6    S    
C43   C44   S    
C34   H40   S    
Ba2   O9    S    
C7    S4    S    
C48   H45   S    
C29   C41   A    
C3    C4    S    
C12   H26   S    
Ba2   O6    S    
S6    O41   D    
C22   C24   A    
C20   H31   S    
Ba1   Ba2   S    
S4    O35   D    
Ba1   O23   S    
C36   C37   A    
O5    P4    S    
C43   O20   S    
Ba2   O13   S    
C13   C14   A    
C23   H39   S    
C3    H15   S    
C32   C33   A    
O13   P2    S    
S5    O39   S    
C5    H20   S    
C51   H62   S    
C10   C14   A    
Ba2   O8    S    
Ba1   O5    S    
C40   H34   S    
C27   C36   A    
C21   C22   A    
C7    H24   S    
C28   C39   A    
C46   H12   S    
C33   C41   A    
C7    C8    S    
C50   H56   S    
C41   P7    S    
O24   P3    D    
O6    P8    S    
C51   H61   S    
C13   H28   S    
C3    O15   S    
C43   H5    S    
C21   H30   S    
S5    O38   D    
O12   P1    S    
O19   P6    D    
C46   C49   S    
C9    P8    S    
O4    P4    D    
S3    O33   S    
O18   P6    S    
Ba2   P4    S    
C15   P1    S    
O9    P5    S    
C28   P2    S    
C4    H17   S    
C23   C51   S    
C31   C32   A    
C5    O11   S    
O16   P8    D    
C45   C46   S    
O7    P4    S    
Ba2   O5    S    
S6    O42   S    
C30   P5    S    
C38   S6    S    
S3    O32   D    
S4    O36   S    
Ba1   O8    S    
C37   C38   A    
S1    O26   D    
Ba2   O12   S    
C7    O17   S    
C2    H13   S    
C3    H16   S    
C44   H7    S    
C49   H49   S    
C31   H38   S    
C35   C36   A    
C45   H9    S    
C8    H27   S    
C34   O7    S    
C29   C30   A    
S2    O28   D    
C44   H6    S    
C15   C16   A    
C2    C47   S    
C6    S3    S    
C47   H44   S    
O36   H54   S    
C17   C26   A    
O3    P3    S    
C12   O3    S    
C50   H55   S    
O20   P1    S    
C50   H57   S    
C8    H25   S    
C42   H3    S    
C51   H60   S    
C27   P3    S    
Ba1   O18   S    
C11   C13   A    
O42   H59   S    
C11   C24   A    
C34   C42   S    
C49   H50   S    
C1    S2    S    
Ba1   P1    S    
C47   H43   S    
C1    C2    S    
Ba1   O12   S    
O23   P3    S    
C46   H11   S    
C1    H14   S    
C42   H2    S    
C2    O21   S    
C6    H23   S    
C48   H46   S    
C26   H33   S    
O30   H52   S    
C45   O2    S    
C44   C48   S    
Ba2   O4    S    
C28   C40   A    
C16   C25   A    
C18   C20   A    
S3    O31   D    
O21   P6    S    
C5    H21   S    
C9    C10   A    
S1    O25   D    
C25   P6    S    
O27   H51   S    
C6    H22   S    
C48   H47   S    
C11   C15   A    
C43   H4    S    
C17   C18   A    
C49   H48   S    
C37   H35   S    
C4    S1    S    
S4    O34   D    
C30   C31   A    
O10   P5    D    
S2    O29   D    
S5    O37   D    
C9    C26   A    
O8    P7    S    
C10   C19   A    
O17   P8    S    
S2    O30   S    
O14   P7    D    
O2    P2    S    
C33   C38   A    
O1    P1    D    
C12   C23   S    
C35   C39   A    
Ba2   O14   S    
S6    O40   D    
C39   S5    S    
C1    H10   S    
C4    H18   S    
O11   P5    S    
C18   C19   A    
C17   P4    S    
C16   H32   S    
C20   C21   A    
C14   H29   S    
O22   P2    D    
Ba1   P2    S    
C47   H42   S    
Ba1   O13   S    
Ba1   O22   S    
C45   H8    S    
O15   P7    S    
