data_mof_unit_30843.cif
_audit_creation_date              2012-12-10T18:55:59-0500
_audit_creation_method            fapswitch 2.2
_symmetry_space_group_name_H-M    P1
_symmetry_Int_Tables_number       1
_space_group_crystal_system       triclinic
_cell_length_a                    10.689506
_cell_length_b                    9.828341
_cell_length_c                    14.865442
_cell_angle_alpha                 88.939911
_cell_angle_beta                  90.012275
_cell_angle_gamma                 90.689636
_cell_volume                      1561.38455463

loop_
_atom_site_label
_atom_site_type_symbol
_atom_type_description
_atom_site_fract_x
_atom_site_fract_y
_atom_site_fract_z
_atom_type_partial_charge
C1    C     C_R   0.260606 0.499129 0.500707 0.795982
C2    C     C_R   0.936795 0.558102 0.426416 -0.023922
C3    C     C_R   0.934768 0.449962 0.577715 -0.025546
C4    C     C_R   0.066886 0.555001 0.425245 -0.052792
C5    C     C_R   0.479765 0.611355 0.082816 -0.087392
C6    C     C_R   0.479307 0.385608 0.916303 -0.080611
C7    C     C_R   0.358843 0.590792 0.896795 -0.078522
C8    C     C_R   0.358794 0.403635 0.103162 -0.088815
C9    C     C_R   0.509708 0.612858 0.173801 -0.025520
C10   C     C_R   0.509654 0.385909 0.825335 -0.038596
C11   C     C_R   0.381529 0.591664 0.804661 -0.012936
C12   C     C_R   0.739818 0.501065 0.500236 0.850773
C13   C     C_R   0.380848 0.404822 0.195387 -0.018693
C14   C     C_R   0.463586 0.505434 0.230852 -0.209215
C15   C     C_R   0.463803 0.493065 0.768862 -0.213581
C16   C     C_R   0.409317 0.505212 0.047840 0.002707
C17   C     C_R   0.408908 0.489678 0.951685 0.007434
C18   C     C_R   0.872896 0.504531 0.502005 -0.224387
C19   C     C_R   0.128386 0.497155 0.500175 -0.209641
C20   C     C_2   0.593490 0.724530 0.204909 0.499662
C21   C     C_2   0.593528 0.276422 0.793719 0.477881
C22   C     C_2   0.312852 0.692240 0.747815 0.498296
C23   C     C_R   0.494183 0.501485 0.326914 0.823270
C24   C     C_2   0.310337 0.304899 0.252767 0.440115
C25   C     C_2   0.137116 0.405775 0.659606 0.439832
C26   C     C_2   0.866258 0.613436 0.348446 0.494984
C27   C     C_2   0.861311 0.396692 0.655938 0.522578
C28   C     C_2   0.140292 0.614235 0.347913 0.513053
C29   C     C_R   0.494065 0.498292 0.672971 0.794143
C30   C     C_R   0.587019 0.071788 0.548357 -0.036498
C31   C     C_R   0.412897 0.928142 0.451764 -0.036605
C32   C     C_R   0.412683 0.072047 0.452007 -0.025925
C33   C     C_R   0.586957 0.927800 0.548407 -0.040080
C34   C     C_R   0.065261 0.448192 0.577639 -0.028167
H1    H     H_    0.656547 0.126216 0.586999 0.148301
H2    H     H_    0.640571 0.283590 0.729733 0.089275
H3    H     H_    0.292906 0.672353 0.677838 0.083186
H4    H     H_    0.289802 0.326641 0.322288 0.060485
H5    H     H_    0.224014 0.351049 0.653560 0.087443
H6    H     H_    0.800978 0.694807 0.358779 0.057515
H7    H     H_    0.778981 0.450570 0.677553 -0.002636
H8    H     H_    0.229493 0.571443 0.329933 0.010652
H9    H     H_    0.343343 0.873672 0.413149 0.161459
H10   H     H_    0.342500 0.126477 0.414025 0.148618
H11   H     H_    0.656384 0.872994 0.587123 0.151272
H12   H     H_    0.519007 0.687963 0.037148 0.194782
H13   H     H_    0.518334 0.309522 0.961691 0.197043
H14   H     H_    0.302395 0.669073 0.926614 0.195837
H15   H     H_    0.301958 0.323872 0.073718 0.199658
H16   H     H_    0.640154 0.718429 0.268772 0.077668
N1    N     N_R   0.500000 0.857200 0.500000 -0.102486
N2    N     N_R   0.500000 0.142800 0.500000 -0.098233
O1    O     O_R   0.316770 0.614620 0.499990 -0.620979
O2    O     O_2   0.612182 0.174845 0.840177 -0.519239
O3    O     O_2   0.274640 0.797807 0.779389 -0.534954
O4    O     O_2   0.271300 0.197991 0.222171 -0.532385
O5    O     O_2   0.102513 0.436761 0.734698 -0.527945
O6    O     O_2   0.880530 0.567888 0.273323 -0.528974
O7    O     O_2   0.889690 0.290705 0.694512 -0.522811
O8    O     O_2   0.104719 0.714681 0.306158 -0.518989
O9    O     O_R   0.683230 0.385380 0.500010 -0.600464
O10   O     O_R   0.683230 0.614620 0.500010 -0.632072
O11   O     O_R   0.316770 0.385380 0.499990 -0.634940
O12   O     O_R   0.499990 0.614660 0.369060 -0.637381
O13   O     O_R   0.500010 0.385340 0.630940 -0.635082
O14   O     O_R   0.500010 0.614660 0.630940 -0.613194
O15   O     O_R   0.499990 0.385340 0.369060 -0.600298
O16   O     O_2   0.612341 0.826314 0.158213 -0.525888
Zn1   Zn    Zn3+2 0.500000 0.653120 0.500000 0.954619
Zn2   Zn    Zn3+2 0.500000 0.346880 0.500000 0.967868

loop_
_geom_bond_atom_site_label_1
_geom_bond_atom_site_label_2
_ccdc_geom_bond_type
C14   C23   S    
C6    C10   A    
C2    C4    A    
C9    C14   A    
N2    Zn2   S    
C5    C9    A    
C8    C13   A    
C22   H3    S    
C33   N1    A    
C12   O10   A    
C5    H12   S    
C27   H7    S    
C11   C22   S    
C24   H4    S    
C31   C32   A    
C3    C34   A    
O11   Zn2   S    
C25   C34   S    
O15   Zn2   S    
O1    Zn1   S    
C7    H14   S    
C3    C27   S    
C32   H10   S    
C8    C16   A    
O9    Zn2   S    
C27   O7    D    
O12   Zn1   S    
C25   H5    S    
C7    C11   A    
C12   O9    A    
C26   O6    D    
C26   H6    S    
C22   O3    D    
N1    Zn1   S    
C31   H9    S    
C30   H1    S    
C29   O13   A    
C30   N2    A    
C1    O11   A    
C28   H8    S    
C23   O12   A    
C4    C28   S    
C15   C29   S    
C2    C18   A    
C10   C15   A    
C28   O8    D    
C10   C21   S    
C21   O2    D    
C1    C19   S    
O14   Zn1   S    
C24   O4    D    
C6    H13   S    
C12   C18   S    
O13   Zn2   S    
C25   O5    D    
C33   H11   S    
O10   Zn1   S    
C3    C18   A    
C2    C26   S    
C23   O15   A    
C21   H2    S    
C6    C17   A    
C1    O1    A    
C32   N2    A    
C5    C16   A    
C20   H16   S    
C9    C20   S    
C30   C33   A    
C13   C14   A    
C4    C19   A    
C11   C15   A    
C8    H15   S    
C20   O16   D    
C29   O14   A    
C13   C24   S    
C31   N1    A    
C16   C17   S    
C7    C17   A    
C19   C34   A    
