data_mof_unit_51967.cif
_audit_creation_date              2013-03-05T15:41:05-0500
_audit_creation_method            fapswitch 2.2
_symmetry_space_group_name_H-M    P1
_symmetry_Int_Tables_number       1
_space_group_crystal_system       triclinic
_cell_length_a                    10.932244
_cell_length_b                    10.949969
_cell_length_c                    18.646165
_cell_angle_alpha                 89.931091
_cell_angle_beta                  89.652714
_cell_angle_gamma                 59.936573
_cell_volume                      1931.77028437

loop_
_atom_site_label
_atom_site_type_symbol
_atom_site_description
_atom_site_fract_x
_atom_site_fract_y
_atom_site_fract_z
_atom_type_partial_charge
O1    O     O_R   0.507110 0.256280 0.580300 -0.505756
O2    O     O_R   0.280830 0.527190 0.577940 -0.493430
C1    C     C_R   0.235083 0.646190 0.608377 0.582531
O3    O     O_R   0.261360 0.738990 0.584270 -0.441198
O4    O     O_R   0.532590 0.694780 0.574370 -0.483384
C2    C     C_R   0.658480 0.627990 0.598205 0.538155
O5    O     O_R   0.744470 0.503750 0.577000 -0.474469
O6    O     O_R   0.698520 0.277230 0.571620 -0.439872
C3    C     C_R   0.631297 0.221495 0.599794 0.587371
O7    O     O_R   0.498530 0.256920 0.419280 -0.532333
O8    O     O_R   0.272880 0.527780 0.428680 -0.479076
C4    C     C_R   0.290525 0.619429 0.392966 0.555338
O9    O     O_R   0.252780 0.739630 0.423250 -0.465432
O10   O     O_R   0.524640 0.695370 0.425100 -0.519577
C5    C     C_R   0.644797 0.624622 0.394102 0.540531
O11   O     O_R   0.735890 0.504390 0.415980 -0.468560
O12   O     O_R   0.690560 0.277820 0.422350 -0.463735
C6    C     C_R   0.622700 0.218975 0.399220 0.569450
Cr1   Cr    Cr6+3 0.393010 0.398050 0.501480 1.088444
Cr2   Cr    Cr6+3 0.398820 0.707980 0.501630 1.115733
Cr3   Cr    Cr6+3 0.708140 0.393940 0.496850 1.144684
O13   O     O_3   0.499990 0.499990 0.499980 -0.316086
C7    C     C_3   0.610768 0.844535 0.772375 0.105189
H1    H     H_    0.649617 0.920271 0.779977 0.070716
C8    C     C_3   0.602991 0.825746 0.689881 -0.023699
H2    H     H_    0.664163 0.869692 0.663475 0.066872
H3    H     H_    0.891447 0.733319 0.761872 0.075650
H4    H     H_    0.880697 0.664327 0.647533 0.132520
C9    C     C_3   0.862443 0.649260 0.763043 -0.308536
C10   C     C_3   0.682978 0.583133 0.799512 0.021603
C11   C     C_3   0.724410 0.699363 0.806905 -0.016695
H5    H     H_    0.780038 0.478612 0.807414 0.172016
C12   C     C_3   0.683430 0.662983 0.671609 -0.017368
C13   C     C_3   0.844867 0.610058 0.685578 -0.061943
C14   C     C_3   0.632597 0.584927 0.723100 -0.179636
H6    H     H_    0.515597 0.635729 0.721573 0.202225
H7    H     H_    0.676212 0.473703 0.705401 0.184751
H8    H     H_    0.949784 0.556600 0.789770 0.170697
C15   C     C_2   0.682715 0.137159 0.665501 -0.070733
C16   C     C_2   0.691022 0.163022 0.825831 0.182418
C17   C     C_2   0.803319 0.095805 0.780456 -0.162670
C18   C     C_2   0.798714 0.115188 0.701457 0.168708
H9    H     H_    0.903791 0.014165 0.801677 0.136321
H10   H     H_    0.604986 0.119862 0.693232 0.118292
C19   C     C_2   0.177953 0.664177 0.680639 -0.122021
C20   C     C_2   0.190375 0.666833 0.838129 -0.069512
C21   C     C_2   0.192900 0.562545 0.799824 -0.098660
C22   C     C_2   0.219286 0.550315 0.722511 -0.110556
H11   H     H_    0.171750 0.485671 0.825132 0.196664
H12   H     H_    0.275002 0.444469 0.700068 0.223012
H13   H     H_    0.221003 0.737741 0.813769 0.178199
H14   H     H_    0.119672 0.770194 0.702711 0.142419
C23   C     C_2   0.659301 0.660125 0.320422 -0.123810
C24   C     C_2   0.638876 0.662024 0.161181 -0.116721
C25   C     C_2   0.725027 0.548216 0.200446 0.087832
C26   C     C_2   0.756703 0.561073 0.276264 0.086951
H15   H     H_    0.559593 0.757292 0.186276 0.135562
H16   H     H_    0.563830 0.746424 0.299409 0.122158
C27   C     C_2   0.678638 0.117278 0.341035 0.029607
C28   C     C_2   0.676794 0.083237 0.186168 -0.054588
C29   C     C_2   0.590040 0.062086 0.229561 0.173218
C30   C     C_2   0.583881 0.096062 0.305235 -0.093419
H17   H     H_    0.478169 0.135357 0.326926 0.212768
H18   H     H_    0.739599 0.126067 0.206811 0.140775
C31   C     C_2   0.252109 0.630470 0.319090 -0.034941
C32   C     C_2   0.208511 0.633440 0.165495 0.187489
C33   C     C_2   0.260137 0.707389 0.198410 -0.123301
C34   C     C_2   0.309406 0.679376 0.272056 -0.116505
H19   H     H_    0.242529 0.807213 0.176997 0.174127
H20   H     H_    0.377947 0.717488 0.290208 0.138866
H21   H     H_    0.175262 0.600224 0.303710 0.165465
O14   O     O_R   0.089190 0.825870 0.932320 -0.486036
O15   O     O_R   0.819070 0.053960 0.931440 -0.513247
C35   C     C_R   0.703561 0.101387 0.897065 0.553380
O16   O     O_R   0.607070 0.076440 0.916460 -0.437863
O17   O     O_R   0.647110 0.806550 0.917690 -0.444194
C36   C     C_R   0.755378 0.712293 0.882876 0.527997
O18   O     O_R   0.837080 0.593860 0.915300 -0.499316
O19   O     O_R   0.064770 0.636080 0.932550 -0.513902
C37   C     C_R   0.118665 0.706850 0.907259 0.543906
O20   O     O_R   0.068250 0.829200 0.092940 -0.529336
O21   O     O_R   0.799650 0.057040 0.080330 -0.472747
C38   C     C_R   0.700250 0.043313 0.111820 0.555546
O22   O     O_R   0.586130 0.079760 0.077080 -0.418682
O23   O     O_R   0.627700 0.809630 0.066580 -0.495725
C39   C     C_R   0.691544 0.686583 0.094029 0.569294
O24   O     O_R   0.816140 0.597180 0.075920 -0.455373
O25   O     O_R   0.045360 0.639170 0.081440 -0.447093
C40   C     C_R   0.102447 0.703964 0.109891 0.546421
Cr4   Cr    Cr6+3 0.937950 0.938450 0.008940 1.089344
Cr5   Cr    Cr6+3 0.626180 0.937030 0.994750 1.161947
Cr6   Cr    Cr6+3 0.937790 0.625760 0.001410 1.113958
O26   O     O_3   0.833980 0.833750 0.001700 -0.344353
I1    I     I_    0.996848 0.387712 0.669815 -0.210838
N1    N     N_R   0.925645 0.090327 0.664608 0.094171
O27   O     O_R   0.031843 0.077775 0.701621 -0.271828
O28   O     O_R   0.947828 0.048636 0.598039 -0.307114
N2    N     N_R   0.554300 0.274743 0.803263 0.067812
O29   O     O_R   0.543307 0.367307 0.756284 -0.404542
O30   O     O_R   0.440722 0.295193 0.836580 -0.287143
N3    N     N_R   0.470357 0.906798 0.806712 0.131927
O31   O     O_R   0.416862 0.029712 0.837473 -0.245569
O32   O     O_R   0.389205 0.852979 0.797546 -0.309560
I2    I     I_    0.831977 0.343740 0.151221 -0.140158
I3    I     I_    0.969435 0.422463 0.311393 -0.119886
N4    N     N_R   0.476416 0.042696 0.203540 0.081793
O33   O     O_R   0.430140 0.979012 0.245097 -0.392188
O34   O     O_R   0.386319 0.133139 0.158332 -0.191304
I4    I     I_    0.902719 0.999885 0.325301 -0.295264
I5    I     I_    0.396177 0.972043 0.644949 -0.099078
N5    N     N_R   0.257757 0.487563 0.183251 0.075966
O35   O     O_R   0.177315 0.432977 0.173592 -0.240757
O36   O     O_R   0.387077 0.406228 0.204596 -0.325031
I6    I     I_    0.545443 0.575452 0.881496 -0.152441

loop_
_geom_bond_atom_site_label_1
_geom_bond_atom_site_label_2
_geom_bond_distance
_ccdc_geom_bond_type
C10   H5    1.114557 S    
C25   C26   1.481063 S    
N3    O31   1.300622 A    
H3    C9    1.113787 S    
C17   C18   1.485542 S    
N1    O27   1.301043 A    
O23   Cr5   1.926863 S    
C21   H11   1.085103 S    
O4    Cr2   1.952157 S    
C7    N3    1.473633 S    
C36   O18   1.299696 A    
O8    Cr1   1.932131 S    
O11   Cr3   2.046028 S    
C10   C14   1.527211 S    
C38   O22   1.282835 A    
C5    C23   1.456552 S    
C14   H7    1.112103 S    
O15   Cr4   1.936100 S    
C16   N2    1.442944 S    
O4    C2    1.274628 A    
C28   C38   1.436508 S    
C23   C26   1.350037 D    
N4    O33   1.300017 A    
C5    O11   1.257555 A    
C3    C15   1.468126 S    
O12   C6    1.278683 A    
O15   C35   1.275574 A    
C27   I4    2.139325 S    
C20   C21   1.336082 D    
O25   Cr6   1.956047 S    
C31   H21   1.086114 S    
O6    C3    1.277658 A    
C9    H8    1.106082 S    
C7    H1    1.114500 S    
O22   Cr5   2.074368 S    
C32   N5    1.445769 S    
C15   C18   1.349002 D    
O9    Cr2   2.068261 S    
O16   Cr5   2.045433 S    
O20   C40   1.267653 A    
C22   H12   1.086366 S    
C32   C33   1.346912 D    
H4    C13   1.112940 S    
N3    O32   1.299803 A    
Cr3   O13   1.970033 S    
C17   H9    1.087564 S    
C11   C36   1.481777 S    
C32   C40   1.459897 S    
C12   C13   1.580797 S    
O1    Cr1   2.049983 S    
C35   O16   1.265698 A    
C18   N1    1.442967 S    
O10   Cr2   1.932290 S    
Cr1   O13   1.980426 S    
O1    C3    1.268049 A    
O17   C36   1.286829 A    
C25   I2    2.142840 S    
C24   C39   1.455079 S    
C39   O24   1.259741 A    
C19   H14   1.086225 S    
O18   Cr6   2.078532 S    
C8    H2    1.113133 S    
O23   C39   1.274731 A    
C9    C13   1.547608 S    
C1    C19   1.453126 S    
O12   Cr3   1.958498 S    
C33   C34   1.453388 S    
C28   C29   1.348379 D    
C33   H19   1.086443 S    
C14   H6    1.110768 S    
C7    C11   1.585391 S    
C30   H17   1.086667 S    
Cr5   O26   1.971204 S    
O14   Cr4   2.056199 S    
C21   C22   1.461531 S    
O7    Cr1   2.065493 S    
C23   H16   1.073184 S    
C31   C34   1.332867 D    
O6    Cr3   1.927843 S    
N5    O36   1.301823 A    
O25   C40   1.273915 A    
C29   N4    1.447502 S    
O19   Cr6   1.929668 S    
C2    O5    1.267380 A    
C8    I5    2.184235 S    
O20   Cr4   2.056365 S    
C34   H20   1.080235 S    
C16   C17   1.359514 D    
Cr2   O13   1.971585 S    
N2    O29   1.298536 A    
N2    O30   1.300084 A    
C1    O3    1.267657 A    
Cr4   O26   1.983015 S    
C10   I6    2.168687 S    
C19   C22   1.343756 D    
C24   C25   1.343980 D    
C27   C30   1.350008 D    
N5    O35   1.300726 A    
O2    Cr1   1.944824 S    
C13   I1    2.171971 S    
O8    C4    1.295604 A    
N1    O28   1.301820 A    
C15   H10   1.086740 S    
C4    C31   1.429779 S    
O21   Cr4   1.938247 S    
C2    C12   1.484937 S    
C28   H18   1.079714 S    
O2    C1    1.271047 A    
O14   C37   1.264749 A    
O5    Cr3   2.080155 S    
C20   C37   1.453626 S    
C10   C11   1.556517 S    
N4    O34   1.300862 A    
O7    C6    1.258708 A    
C20   H13   1.085852 S    
Cr6   O26   1.971103 S    
C12   C14   1.558388 S    
C16   C35   1.464886 S    
C7    C8    1.560612 S    
C29   C30   1.452221 S    
C26   I3    2.149607 S    
O17   Cr5   1.957474 S    
O19   C37   1.274074 A    
O3    Cr2   2.051809 S    
C6    C27   1.450404 S    
C4    O9    1.294727 A    
C9    C11   1.550358 S    
O21   C38   1.305337 A    
O10   C5    1.277511 A    
O24   Cr6   2.047038 S    
C8    C12   1.579034 S    
C24   H15   1.071816 S    
