data_mof_unit_14838.cif
_audit_creation_date              2012-12-10T20:36:40-0500
_audit_creation_method            fapswitch 2.2
_symmetry_space_group_name_H-M    P1
_symmetry_Int_Tables_number       1
_space_group_crystal_system       triclinic
_cell_length_a                    10.559209
_cell_length_b                    10.644423
_cell_length_c                    9.985581
_cell_angle_alpha                 90.575901
_cell_angle_beta                  90.968627
_cell_angle_gamma                 90.827743
_cell_volume                      1122.00923956

loop_
_atom_site_label
_atom_site_type_symbol
_atom_type_description
_atom_site_fract_x
_atom_site_fract_y
_atom_site_fract_z
_atom_type_partial_charge
C1    C     C_R   0.501685 0.260912 0.498942 0.925515
C2    C     C_R   0.580166 0.937075 0.576894 0.123327
C3    C     C_3   0.619188 0.938173 0.722804 -0.299399
C4    C     C_R   0.258010 0.504685 0.498903 0.966568
C5    C     C_3   0.640592 0.079733 0.708168 -0.264472
C6    C     C_R   0.459292 0.397034 0.068779 0.135658
C7    C     C_R   0.560752 0.593106 0.072483 0.038994
C8    C     C_R   0.557422 0.593593 0.928964 -0.022064
C9    C     C_R   0.459197 0.396946 0.927950 0.139757
C10   C     C_3   0.335577 0.324016 0.920307 0.230202
C11   C     C_3   0.337205 0.324280 0.075363 -0.403112
C12   C     C_3   0.954739 0.618568 0.463132 -0.152458
C13   C     C_R   0.494665 0.739072 0.500736 0.886790
C14   C     C_R   0.741658 0.500001 0.501345 0.962707
C15   C     C_3   0.042985 0.397116 0.538733 0.334119
C16   C     C_3   0.956073 0.418642 0.417939 0.354770
C17   C     C_3   0.875616 0.503979 0.504441 -0.169639
C18   C     C_3   0.963615 0.483659 0.625549 0.328477
C19   C     C_3   0.043671 0.598416 0.584975 -0.165272
C20   C     C_2   0.777971 0.118085 0.714113 0.457455
C21   C     C_2   0.638824 0.690696 0.142348 0.425241
C22   C     C_2   0.224709 0.390058 0.856610 0.602706
C23   C     C_3   0.035673 0.532711 0.373554 -0.315127
C24   C     C_2   0.232204 0.395512 0.139810 0.506464
C25   C     C_2   0.087762 0.703115 0.676395 0.594945
C26   C     C_2   0.902330 0.742011 0.420046 0.408243
C27   C     C_2   0.515248 0.911716 0.821221 0.473069
C28   C     C_3   0.123203 0.510850 0.497075 -0.147757
C29   C     C_R   0.593047 0.064069 0.567093 -0.000447
C30   C     C_R   0.503881 0.129151 0.493098 -0.131363
C31   C     C_R   0.418415 0.065476 0.406775 -0.171589
C32   C     C_R   0.408695 0.935544 0.410911 0.449593
C33   C     C_R   0.488439 0.871309 0.501907 -0.123974
H1    H     H_    0.706322 0.883225 0.742205 0.167237
H2    H     H_    0.145441 0.334548 0.817692 0.146678
H3    H     H_    0.414339 0.157871 0.916164 0.332784
H4    H     H_    0.161434 0.345067 0.196168 0.046323
H5    H     H_    0.018312 0.226761 0.593555 0.361677
H6    H     H_    0.885372 0.533735 0.789352 0.338027
H7    H     H_    0.020430 0.749345 0.740456 0.062647
H8    H     H_    0.919260 0.775874 0.319771 0.115606
H9    H     H_    0.296095 0.793363 0.368858 0.348295
H10   H     H_    0.535179 0.924370 0.927285 0.120534
H11   H     H_    0.579566 0.140132 0.770324 0.207751
H12   H     H_    0.604141 0.667987 0.874831 0.151244
H13   H     H_    0.350892 0.230311 0.120492 0.149272
H14   H     H_    0.057590 0.559512 0.270145 0.233987
H15   H     H_    0.353108 0.116864 0.343608 0.166912
H16   H     H_    0.977371 0.270260 0.310355 0.344618
H17   H     H_    0.846320 0.069903 0.652694 0.098063
H18   H     H_    0.674778 0.676593 0.242300 0.132504
N1    N     N_R   0.499140 0.499140 0.142800 -0.119999
N2    N     N_R   0.499140 0.499180 0.857150 -0.114808
O1    O     O_R   0.500020 0.316790 0.614690 -0.599326
O2    O     O_2   0.813677 0.203320 0.788757 -0.511370
O3    O     O_2   0.669010 0.787725 0.086307 -0.626070
O4    O     O_2   0.218457 0.504500 0.856808 -0.521258
O5    O     O_3   0.349523 0.203548 0.863392 -0.746495
O6    O     O_2   0.224260 0.509080 0.126392 -0.520916
O7    O     O_3   0.092738 0.280963 0.574588 -0.768054
O8    O     O_3   0.924653 0.455967 0.755238 -0.690687
O9    O     O_2   0.198233 0.737964 0.678066 -0.492667
O10   O     O_2   0.839975 0.804425 0.497165 -0.627529
O11   O     O_3   0.315928 0.877272 0.332158 -0.725334
O12   O     O_R   0.500000 0.316760 0.385350 -0.632137
O13   O     O_2   0.408633 0.879959 0.784570 -0.460844
O14   O     O_R   0.313960 0.499990 0.614650 -0.558081
O15   O     O_R   0.313940 0.499950 0.385310 -0.620432
O16   O     O_R   0.500000 0.683240 0.614650 -0.574900
O17   O     O_R   0.499980 0.683210 0.385310 -0.654741
O18   O     O_R   0.686060 0.500050 0.614690 -0.620357
O19   O     O_R   0.686040 0.500010 0.385350 -0.629476
O20   O     O_3   0.905338 0.324562 0.333285 -0.731973
Zn1   Zn    Zn3+2 0.500010 0.500020 0.653130 1.051006
Zn2   Zn    Zn3+2 0.499990 0.499980 0.346870 0.994361

loop_
_geom_bond_atom_site_label_1
_geom_bond_atom_site_label_2
_ccdc_geom_bond_type
C15   C18   S    
C14   O18   A    
N2    Zn1   S    
C26   O10   D    
N1    Zn2   S    
C22   O4    D    
C7    C8    A    
C5    C20   S    
C10   C22   S    
O15   Zn2   S    
C22   H2    S    
C12   C23   S    
C2    C29   A    
C10   O5    S    
C7    N1    A    
H3    O5    S    
C20   O2    D    
C25   H7    S    
C30   C31   A    
C13   O17   A    
C15   C16   S    
C11   C24   S    
C18   C19   S    
C15   O7    S    
C8    H12   S    
C20   H17   S    
O1    Zn1   S    
C16   C17   S    
C12   C17   S    
C1    O12   A    
C9    C10   S    
C14   C17   S    
C6    C9    A    
O19   Zn2   S    
C4    C28   S    
C24   H4    S    
C5    C29   S    
H6    O8    S    
C23   H14   S    
C16   O20   S    
C32   O11   S    
C6    C11   S    
C4    O15   A    
C3    H1    S    
C7    C21   S    
C12   C26   S    
C1    O1    A    
C13   C33   S    
C29   C30   A    
O18   Zn1   S    
C31   C32   A    
C17   C18   S    
O16   Zn1   S    
O14   Zn1   S    
C23   C28   S    
C19   C28   S    
H5    O7    S    
C2    C33   A    
C5    H11   S    
C16   C23   S    
C31   H15   S    
H16   O20   S    
C9    N2    A    
H9    O11   S    
C21   H18   S    
C14   O19   A    
C3    C5    S    
C4    O14   A    
C8    N2    A    
C21   O3    D    
C18   O8    S    
O12   Zn2   S    
C32   C33   A    
C3    C27   S    
C2    C3    S    
C27   O13   D    
C15   C28   S    
C13   O16   A    
C24   O6    D    
C12   C19   S    
C1    C30   S    
C25   O9    D    
C19   C25   S    
C10   C11   S    
C27   H10   S    
O17   Zn2   S    
C11   H13   S    
C6    N1    A    
C26   H8    S    
