data_mof_unit_32120.cif
_audit_creation_date              2012-10-26T21:15:28-0400
_audit_creation_method            fapswitch 2.2
_symmetry_space_group_name_H-M    P1
_symmetry_Int_Tables_number       1
_space_group_crystal_system       triclinic
_cell_length_a                    10.643657
_cell_length_b                    10.933266
_cell_length_c                    9.727591
_cell_angle_alpha                 89.817663
_cell_angle_beta                  89.712024
_cell_angle_gamma                 90.725119
_cell_volume                      1131.88820025

loop_
_atom_site_label
_atom_site_type_symbol
_atom_type_description
_atom_site_fract_x
_atom_site_fract_y
_atom_site_fract_z
_atom_type_partial_charge
C1    C     C_R   0.500825 0.265488 0.500190 0.544961
C2    C     C_2   0.475925 0.404875 0.077330 -0.000418
C3    C     C_R   0.259595 0.499793 0.500098 0.549967
C4    C     C_R   0.498185 0.734481 0.499997 0.547978
C5    C     C_R   0.740465 0.500553 0.499909 0.565883
C6    C     C_3   0.040555 0.411611 0.584911 -0.128856
C7    C     C_3   0.957067 0.391674 0.456260 -0.193979
C8    C     C_3   0.877217 0.501118 0.500022 0.056409
C9    C     C_3   0.960664 0.521911 0.626034 0.253754
C10   C     C_3   0.045190 0.612169 0.543760 -0.139771
C11   C     C_3   0.355668 0.318954 0.872257 -0.234231
C12   C     C_3   0.961489 0.588604 0.417394 0.248727
C13   C     C_3   0.233961 0.312930 0.956707 -0.473391
C14   C     C_3   0.000897 0.593114 0.844680 -0.028754
C15   C     C_3   0.959659 0.579000 0.993874 -0.345831
C16   C     C_3   0.870918 0.778005 0.390869 0.000848
C17   C     C_3   0.808049 0.861501 0.287400 -0.369761
C18   C     C_3   0.042043 0.480227 0.371127 -0.093049
C19   C     C_3   0.123118 0.500875 0.499958 -0.028546
C20   C     C_2   0.494883 0.933338 0.387137 -0.170571
C21   C     C_2   0.491514 0.866333 0.502595 -0.123504
C22   C     C_2   0.490639 0.067314 0.387882 -0.165386
C23   C     C_2   0.505386 0.133514 0.502592 -0.122169
C24   C     C_2   0.446570 0.415034 0.926432 0.113027
Cu1   Cu    Cu3+1 0.500030 0.500020 0.638630 0.939319
Cu2   Cu    Cu3+1 0.499970 0.499980 0.361370 0.934971
H1    H     H_    0.919014 0.302440 0.420211 0.115084
H2    H     H_    0.481058 0.906613 0.603295 0.099772
H3    H     H_    0.476760 0.112289 0.289474 0.138418
H4    H     H_    0.250740 0.271729 0.059340 0.141768
H5    H     H_    0.195186 0.405747 0.970727 0.152561
H6    H     H_    0.163239 0.255201 0.902848 0.133572
H7    H     H_    0.327909 0.336317 0.765824 0.213042
H8    H     H_    0.401246 0.228124 0.875615 0.118710
H9    H     H_    0.009639 0.692414 0.820760 0.127378
H10   H     H_    0.094563 0.549992 0.832633 0.136098
H11   H     H_    0.950276 0.480507 0.020870 0.156072
H12   H     H_    0.523160 0.092633 0.601835 0.096847
H13   H     H_    0.030749 0.622131 0.062071 0.133520
H14   H     H_    0.867873 0.624064 0.010398 0.182549
H15   H     H_    0.948964 0.830183 0.439970 0.124139
H16   H     H_    0.799921 0.751392 0.470351 0.134717
H17   H     H_    0.728444 0.812412 0.237729 0.163476
H18   H     H_    0.772034 0.943876 0.340339 0.105385
H19   H     H_    0.876785 0.890763 0.207155 0.149843
H20   H     H_    0.564411 0.555193 0.892155 0.209834
H21   H     H_    0.464202 0.316371 0.126529 0.138592
H22   H     H_    0.497789 0.582864 0.105470 0.203822
H23   H     H_    0.075986 0.340114 0.655575 0.112819
H24   H     H_    0.084970 0.700974 0.578905 0.080466
H25   H     H_    0.078247 0.464201 0.265560 0.125908
H26   H     H_    0.500037 0.889176 0.287432 0.142396
N1    N     N_2   0.498620 0.498660 0.846910 -0.341409
N2    N     N_2   0.498590 0.498630 0.153040 -0.357985
O1    O     O_R   0.500020 0.321960 0.617040 -0.517217
O2    O     O_3   0.917939 0.675129 0.321436 -0.563749
O3    O     O_R   0.499980 0.321920 0.382900 -0.504801
O4    O     O_R   0.316870 0.499990 0.617050 -0.520943
O5    O     O_R   0.316830 0.499950 0.382910 -0.491416
O6    O     O_R   0.500020 0.678080 0.617100 -0.501478
O7    O     O_R   0.499980 0.678040 0.382960 -0.501626
O8    O     O_R   0.683170 0.500050 0.617090 -0.456892
O9    O     O_R   0.683130 0.500010 0.382950 -0.477777
O10   O     O_3   0.909834 0.538599 0.758882 -0.539124

loop_
_geom_bond_atom_site_label_1
_geom_bond_atom_site_label_2
_ccdc_geom_bond_type
C18   H25   S    
C5    C8    S    
Cu2   O9    S    
C16   O2    S    
C4    O7    A    
C3    C19   S    
C6    C7    S    
C4    C21   S    
C22   H3    S    
C1    O3    A    
C2    H21   S    
C23   H12   S    
C3    O5    A    
C9    C10   S    
C11   C24   S    
C13   H6    S    
C10   C19   S    
C8    C12   S    
C7    C18   S    
C14   O10   S    
C4    O6    A    
C6    C9    S    
C17   H17   S    
C24   N1    D    
C17   H18   S    
C7    C8    S    
C20   H26   S    
Cu1   N1    S    
H22   N2    S    
C6    C19   S    
C11   C13   S    
C15   H13   S    
C12   O2    S    
C10   C12   S    
Cu2   N2    S    
H20   N1    S    
Cu1   O6    S    
Cu2   O7    S    
C20   C22   S    
C5    O8    A    
C1    C23   S    
Cu1   O8    S    
C6    H23   S    
C14   H10   S    
Cu2   O3    S    
C15   H14   S    
Cu1   O4    S    
C9    O10   S    
C3    O4    A    
C16   H16   S    
C13   H4    S    
C11   H7    S    
C7    H1    S    
C20   C21   D    
C5    O9    A    
C8    C9    S    
C18   C19   S    
C2    N2    D    
C12   C18   S    
C14   H9    S    
C13   H5    S    
C22   C23   D    
C15   H11   S    
Cu2   O5    S    
C2    C24   S    
Cu1   Cu2   S    
C14   C15   S    
C16   H15   S    
C21   H2    S    
C11   H8    S    
Cu1   O1    S    
C17   H19   S    
C16   C17   S    
C1    O1    A    
C10   H24   S    
