data_mof_unit_56870.cif
_audit_creation_date              2012-12-10T17:23:40-0500
_audit_creation_method            fapswitch 2.2
_symmetry_space_group_name_H-M    P1
_symmetry_Int_Tables_number       1
_space_group_crystal_system       triclinic
_cell_length_a                    9.586585
_cell_length_b                    10.868851
_cell_length_c                    17.372862
_cell_angle_alpha                 93.308124
_cell_angle_beta                  86.035146
_cell_angle_gamma                 92.053656
_cell_volume                      1801.90483442

loop_
_atom_site_label
_atom_site_type_symbol
_atom_type_description
_atom_site_fract_x
_atom_site_fract_y
_atom_site_fract_z
_atom_type_partial_charge
C1    C     C_R   0.502757 0.736699 0.494834 0.799905
C2    C     C_R   0.342787 0.502402 0.776287 -0.196055
C3    C     C_R   0.409659 0.469668 0.146617 -0.149819
C4    C     C_R   0.403331 0.478252 0.226648 -0.218097
C5    C     C_R   0.656912 0.491289 0.223540 -0.202600
C6    C     C_R   0.663139 0.483342 0.143114 -0.174007
C7    C     C_R   0.539610 0.475019 0.104305 0.194898
C8    C     C_2   0.449553 0.518689 0.980244 -0.230707
C9    C     C_2   0.549088 0.472283 0.019681 -0.231594
C10   C     C_R   0.526698 0.490157 0.265760 -0.025015
C11   C     C_R   0.293391 0.859878 0.414744 -0.222839
C12   C     C_R   0.481895 0.501821 0.649804 0.799187
C13   C     C_R   0.162442 0.905725 0.407114 -0.160236
C14   C     C_R   0.127566 0.020987 0.441805 0.322791
C15   C     C_R   0.233221 0.095339 0.475328 -0.269192
C16   C     C_R   0.370926 0.052590 0.478589 0.064422
C17   C     C_R   0.391526 0.926763 0.458928 0.097835
C18   C     C_R   0.506396 0.869689 0.486912 -0.108985
C19   C     C_R   0.614358 0.941267 0.518336 -0.210677
C20   C     C_R   0.607767 0.068432 0.523350 -0.208112
C21   C     C_R   0.487955 0.126405 0.503360 -0.104074
C22   C     C_R   0.864698 0.349471 0.388487 -0.160968
C23   C     C_R   0.496260 0.261774 0.501897 0.783522
C24   C     C_R   0.942266 0.285913 0.329552 -0.214477
C25   C     C_R   0.085843 0.283586 0.330960 -0.195103
C26   C     C_R   0.152317 0.347565 0.390219 -0.178738
C27   C     C_R   0.078833 0.425516 0.445684 0.186645
C28   C     C_R   0.929344 0.425960 0.445336 0.204951
C29   C     C_R   0.922500 0.571444 0.551587 -0.073070
C30   C     C_R   0.070518 0.571516 0.551506 -0.056982
C31   C     C_R   0.518082 0.497836 0.350197 0.761303
C32   C     C_R   0.473081 0.507298 0.734263 -0.030178
C33   C     C_R   0.596179 0.519944 0.773610 -0.205755
C34   C     C_R   0.589473 0.525513 0.853687 -0.149009
C35   C     C_R   0.459457 0.517002 0.895691 0.193851
C36   C     C_R   0.336191 0.507788 0.856695 -0.171384
Cu1   Cu    Cu3+1 0.359340 0.500010 0.500010 0.924597
Cu2   Cu    Cu3+1 0.640660 0.499990 0.499990 0.928613
H1    H     H_    0.697986 0.526335 0.742658 0.150069
H2    H     H_    0.764244 0.485990 0.111151 0.121555
H3    H     H_    0.703827 0.898937 0.539510 0.172197
H4    H     H_    0.315384 0.769688 0.387887 0.168794
H5    H     H_    0.087146 0.847360 0.377516 0.144532
H6    H     H_    0.201577 0.181335 0.503753 0.171473
H7    H     H_    0.696257 0.121610 0.544651 0.176095
H8    H     H_    0.864265 0.630055 0.593796 0.132253
H9    H     H_    0.755007 0.332335 0.387826 0.199519
H10   H     H_    0.889746 0.231691 0.285272 0.149235
H11   H     H_    0.301506 0.474966 0.257708 0.162860
H12   H     H_    0.145505 0.227206 0.288019 0.151901
H13   H     H_    0.260491 0.329988 0.391406 0.203304
H14   H     H_    0.122939 0.630211 0.593669 0.139834
H15   H     H_    0.753617 0.498965 0.252470 0.159202
H16   H     H_    0.642194 0.434132 0.989607 0.143969
H17   H     H_    0.235036 0.502664 0.888486 0.120579
H18   H     H_    0.312665 0.457741 0.118309 0.122786
H19   H     H_    0.246288 0.493838 0.747190 0.149600
H20   H     H_    0.356449 0.556978 0.010204 0.143736
H21   H     H_    0.686076 0.538000 0.882341 0.121565
N1    N     N_R   0.852190 0.498790 0.499250 -0.197934
N2    N     N_R   0.148060 0.498710 0.499220 -0.201411
O1    O     O_R   0.381190 0.680360 0.500010 -0.576786
O2    O     O_R   0.618760 0.680340 0.500000 -0.581250
O3    O     O_R   0.367440 0.500030 0.613600 -0.585325
O4    O     O_R   0.605010 0.500010 0.613590 -0.585460
O5    O     O_R   0.381240 0.319660 0.500000 -0.609433
O6    O     O_R   0.618810 0.319640 0.499990 -0.598896
O7    O     O_R   0.394990 0.499990 0.386410 -0.608233
O8    O     O_R   0.632560 0.499970 0.386400 -0.601270
N3    N     N_2   0.986700 0.061223 0.446883 -0.432143
H22   H     H_    0.970734 0.150689 0.467674 0.256319
C37   C     C_3   0.892441 0.012028 0.390139 -0.687694
H23   H     H_    0.796053 0.066186 0.394042 0.233969
H24   H     H_    0.861605 0.914943 0.401344 0.234248
H25   H     H_    0.942673 0.017371 0.330805 0.221399

loop_
_geom_bond_atom_site_label_1
_geom_bond_atom_site_label_2
_ccdc_geom_bond_type
C16   C21   A    
C35   C36   A    
C1    O1    A    
Cu1   O1    S    
C2    H19   S    
C26   C27   A    
C33   H1    S    
C23   O5    A    
C5    H15   S    
C15   H6    S    
C18   C19   A    
C3    C7    A    
C5    C6    A    
C12   O3    A    
C15   C16   A    
Cu1   O7    S    
C11   H4    S    
C2    C32   A    
C34   C35   A    
C23   O6    A    
C25   H12   S    
C27   N2    A    
C8    H20   S    
C10   C31   S    
C19   C20   A    
C8    C9    D    
Cu2   O4    S    
N3    H22   S    
C29   C30   A    
C20   H7    S    
C22   H9    S    
Cu2   O8    S    
C22   C28   A    
C13   C14   A    
C12   C32   S    
C14   N3    S    
C37   H25   S    
C1    O2    A    
C33   C34   A    
C28   N1    A    
C31   O7    A    
C24   H10   S    
C24   C25   A    
C37   H24   S    
C16   C17   A    
C25   C26   A    
C8    C35   S    
Cu1   Cu2   S    
C3    H18   S    
C29   N1    A    
Cu1   O5    S    
C17   C18   A    
C1    C18   S    
C20   C21   A    
Cu2   N1    S    
C21   C23   S    
C34   H21   S    
C6    H2    S    
C4    C10   A    
C3    C4    A    
C13   H5    S    
Cu1   O3    S    
Cu2   O2    S    
C2    C36   A    
C7    C9    S    
C30   H14   S    
C11   C17   A    
C37   H23   S    
Cu1   N2    S    
C6    C7    A    
C12   O4    A    
C4    H11   S    
C29   H8    S    
C32   C33   A    
C5    C10   A    
C36   H17   S    
C26   H13   S    
C11   C13   A    
C22   C24   A    
C31   O8    A    
Cu2   O6    S    
C30   N2    A    
C27   C28   A    
C14   C15   A    
N3    C37   S    
C9    H16   S    
C19   H3    S    
