data_mof_unit_14955.cif
_audit_creation_date              2012-12-11T16:15:11-0500
_audit_creation_method            fapswitch 2.2
_symmetry_space_group_name_H-M    P1
_symmetry_Int_Tables_number       1
_space_group_crystal_system       triclinic
_cell_length_a                    13.553472
_cell_length_b                    13.58282
_cell_length_c                    28.429855
_cell_angle_alpha                 90.502989
_cell_angle_beta                  90.307662
_cell_angle_gamma                 60.108513
_cell_volume                      4537.35338219

loop_
_atom_site_label
_atom_site_type_symbol
_atom_type_description
_atom_site_fract_x
_atom_site_fract_y
_atom_site_fract_z
_atom_type_partial_charge
C1    C     C_R   0.279398 0.620793 0.566399 0.542958
C2    C     C_1   0.645692 0.651829 0.653593 -0.025851
C3    C     C_1   0.636028 0.226991 0.610687 -0.010152
C4    C     C_R   0.621646 0.600831 0.566843 0.542928
C5    C     C_R   0.749938 0.195016 0.726033 -0.008911
C6    C     C_R   0.755745 0.180629 0.775183 -0.166057
C7    C     C_R   0.626366 0.106057 0.771034 0.408817
C8    C     C_R   0.619180 0.118449 0.721930 0.039164
C9    C     C_R   0.679419 0.165321 0.699658 0.001515
C10   C     C_R   0.693206 0.138284 0.797412 0.030869
C11   C     C_1   0.701775 0.121503 0.847456 0.012120
C12   C     C_1   0.637596 0.632878 0.612882 -0.010306
C13   C     C_1   0.659122 0.194467 0.650517 -0.059684
C14   C     C_1   0.709327 0.098238 0.888545 0.020591
C15   C     C_1   0.228958 0.638282 0.611895 0.019423
C16   C     C_R   0.600948 0.279012 0.565739 0.546839
C17   C     C_R   0.219655 0.559366 0.728985 0.435937
C18   C     C_R   0.206336 0.568036 0.777768 0.424775
C19   C     C_R   0.102402 0.774932 0.772046 -0.050259
C20   C     C_R   0.116025 0.764809 0.723023 -0.168349
C21   C     C_R   0.174474 0.657694 0.701617 -0.011470
C22   C     C_R   0.148619 0.675101 0.799502 -0.009930
C23   C     C_3   0.660423 0.769898 0.760738 -0.077853
C24   C     C_1   0.130386 0.682673 0.849512 0.014955
C25   C     C_1   0.198848 0.648767 0.652214 0.019395
C26   C     C_1   0.104760 0.698210 0.890407 0.014444
C27   C     C_1   0.637827 0.633303 0.388777 -0.007384
C28   C     C_R   0.276528 0.621036 0.434477 0.548380
C29   C     C_R   0.753088 0.603972 0.275265 -0.125440
C30   C     C_R   0.758787 0.610191 0.226701 -0.169814
C31   C     C_R   0.558783 0.754879 0.224230 0.417060
C32   C     C_R   0.551509 0.749991 0.273910 0.030644
C33   C     C_R   0.650843 0.672591 0.298918 -0.010529
C34   C     C_3   0.665507 0.681956 0.795871 0.006467
C35   C     C_R   0.662117 0.684470 0.201118 0.044504
C36   C     C_1   0.673474 0.693755 0.151340 0.031718
C37   C     C_1   0.646541 0.654009 0.348483 -0.054760
C38   C     C_1   0.691726 0.702860 0.110687 0.026643
C39   C     C_1   0.634636 0.224709 0.389098 0.040194
C40   C     C_R   0.620611 0.600353 0.434195 0.547075
C41   C     C_R   0.567083 0.200377 0.273237 0.345343
C42   C     C_R   0.573099 0.192715 0.224408 0.359806
C43   C     C_R   0.774674 0.132569 0.228165 0.367986
C44   C     C_R   0.768509 0.140673 0.277111 0.356170
C45   C     C_3   0.747997 0.671257 0.730068 0.404590
C46   C     C_R   0.664741 0.174017 0.299540 -0.070147
C47   C     C_R   0.676744 0.159188 0.201907 -0.075899
C48   C     C_1   0.685726 0.137379 0.152610 0.093792
C49   C     C_1   0.653552 0.194826 0.348909 0.077890
C50   C     C_1   0.696190 0.107721 0.112380 0.062434
C51   C     C_1   0.220193 0.639953 0.390510 -0.004611
C52   C     C_R   0.600605 0.276908 0.433915 0.538242
C53   C     C_R   0.139559 0.756043 0.278773 -0.073017
C54   C     C_R   0.131803 0.761227 0.230113 0.416027
C55   C     C_R   0.156350 0.571619 0.227607 -0.137902
C56   C     C_3   0.651852 0.666208 0.704138 0.045575
C57   C     C_R   0.164492 0.564876 0.277029 0.008049
C58   C     C_R   0.157656 0.658406 0.302183 -0.024338
C59   C     C_R   0.142099 0.668322 0.204581 0.024420
C60   C     C_1   0.125383 0.677781 0.154981 0.027332
C61   C     C_1   0.185272 0.650361 0.351082 -0.059158
C62   C     C_1   0.100220 0.694797 0.114316 0.042706
C63   C     C_R   0.720967 0.054530 0.935059 0.542534
C64   C     C_3   0.562564 0.764474 0.734398 -0.146454
C65   C     C_R   0.730372 0.717606 0.932360 0.546279
C66   C     C_R   0.057527 0.729183 0.936499 0.541659
C67   C     C_3   0.754890 0.583607 0.765756 -0.082331
C68   C     C_R   0.714464 0.056354 0.067342 0.542378
C69   C     C_R   0.725509 0.717536 0.064909 0.541854
C70   C     C_R   0.053452 0.727873 0.068677 0.550219
C71   C     C_3   0.567831 0.676943 0.770528 -0.112377
C72   C     C_1   0.697385 0.701217 0.886687 0.012197
C73   C     C_3   0.544173 0.085504 0.693813 -0.224516
C74   C     C_3   0.615502 0.979420 0.663324 -0.313940
C75   C     C_3   0.540073 0.955027 0.630883 -0.440514
C76   C     C_3   0.038347 0.892190 0.794246 -0.242318
C77   C     C_3   0.120305 0.923350 0.818864 -0.296938
C78   C     C_3   0.656943 0.578515 0.739515 -0.154778
C79   C     C_3   0.055862 0.032716 0.847534 -0.434066
C80   C     C_3   0.442990 0.822581 0.302273 -0.250022
C81   C     C_3   0.336317 0.908635 0.275560 -0.245045
C82   C     C_3   0.238480 0.977218 0.309688 -0.442907
C83   C     C_3   0.181030 0.460922 0.303737 -0.230656
C84   C     C_3   0.178115 0.368033 0.273521 -0.273400
C85   C     C_3   0.189582 0.270712 0.303748 -0.409902
C86   C     C_3   0.815084 0.243477 0.700593 -0.244162
C87   C     C_3   0.894337 0.267784 0.731204 -0.327440
C88   C     C_3   0.951826 0.318903 0.702087 -0.417074
C89   C     C_1   0.678492 0.691199 0.846229 -0.027228
Cr1   Cr    Cr6+3 0.413560 0.417690 0.499580 1.051168
Cr2   Cr    Cr6+3 0.418030 0.668340 0.500400 1.030587
Cr3   Cr    Cr6+3 0.668390 0.413960 0.499990 1.044993
Cr4   Cr    Cr6+3 0.919710 0.916540 0.003080 1.061503
Cr5   Cr    Cr6+3 0.665300 0.919470 0.999630 1.083622
Cr6   Cr    Cr6+3 0.916060 0.665490 0.000390 1.058723
F1    F     F_    0.278328 0.455130 0.708481 -0.591852
F2    F     F_    0.567683 0.063341 0.793485 -0.644595
F3    F     F_    0.249849 0.472021 0.803861 -0.575663
F4    F     F_    0.467887 0.826478 0.197714 -0.630147
F5    F     F_    0.465987 0.234536 0.294922 -0.631964
F6    F     F_    0.478646 0.216050 0.199135 -0.589691
F7    F     F_    0.875977 0.097282 0.206431 -0.534508
F8    F     F_    0.862853 0.117046 0.302506 -0.588292
F9    F     F_    0.114120 0.856839 0.207918 -0.564963
F10   F     F_    0.840602 0.668544 0.708582 -0.633351
H1    H     H_    0.493669 0.679052 0.787934 0.131787
H2    H     H_    0.663431 0.847745 0.770189 0.176805
H3    H     H_    0.807574 0.202843 0.796809 0.111907
H4    H     H_    0.478190 0.942402 0.651628 0.151204
H5    H     H_    0.492953 0.026697 0.606240 0.165916
H6    H     H_    0.593716 0.876894 0.609995 0.163133
H7    H     H_    0.676609 0.990285 0.641226 0.177231
H8    H     H_    0.665491 0.905109 0.686312 0.202661
H9    H     H_    0.489465 0.068130 0.717325 0.208749
H10   H     H_    0.485396 0.158086 0.671376 0.180536
H11   H     H_    0.001092 0.104748 0.824283 0.138835
H12   H     H_    0.083135 0.840359 0.701570 0.128693
H13   H     H_    0.002301 0.023484 0.874635 0.171042
H14   H     H_    0.117468 0.051780 0.865465 0.167791
H15   H     H_    0.178273 0.854608 0.842969 0.176153
H16   H     H_    0.173311 0.934422 0.792032 0.166599
H17   H     H_    0.989611 0.957308 0.767110 0.145923
H18   H     H_    0.974789 0.894967 0.819596 0.157410
H19   H     H_    0.222736 0.920046 0.332143 0.161224
H20   H     H_    0.259169 0.030774 0.332823 0.147990
H21   H     H_    0.159709 0.033023 0.289659 0.218134
H22   H     H_    0.354002 0.968959 0.256250 0.239932
H23   H     H_    0.828495 0.544225 0.294440 0.138079
H24   H     H_    0.309459 0.863166 0.250492 0.255735
H25   H     H_    0.421531 0.764248 0.321116 0.145966
H26   H     H_    0.462676 0.870151 0.329255 0.152486
H27   H     H_    0.271380 0.231204 0.323358 0.209657
H28   H     H_    0.117903 0.301790 0.329076 0.150453
H29   H     H_    0.187765 0.205390 0.280640 0.168415
H30   H     H_    0.096011 0.404350 0.254123 0.152170
H31   H     H_    0.249503 0.333184 0.247897 0.251299
H32   H     H_    0.263948 0.423295 0.322551 0.210852
H33   H     H_    0.112530 0.489898 0.330578 0.140369
H34   H     H_    0.839088 0.557004 0.209012 0.130415
H35   H     H_    0.004227 0.258965 0.673766 0.161562
H36   H     H_    0.886981 0.400169 0.686111 0.182998
H37   H     H_    0.008069 0.336100 0.725097 0.185926
H38   H     H_    0.844910 0.328835 0.759681 0.159135
H39   H     H_    0.961289 0.187416 0.747004 0.163368
H40   H     H_    0.867463 0.182117 0.672587 0.150658
H41   H     H_    0.752284 0.323649 0.683188 0.155647
H42   H     H_    0.483287 0.838594 0.721325 0.120008
H43   H     H_    0.133673 0.827542 0.298234 0.151784
H44   H     H_    0.160664 0.502993 0.206483 0.131595
H45   H     H_    0.654391 0.500302 0.730279 0.126346
H46   H     H_    0.834413 0.510532 0.779304 0.125954
O1    O     O_R   0.503010 0.303330 0.550820 -0.499047
O2    O     O_R   0.827060 0.642880 0.947470 -0.501650
O3    O     O_R   0.013800 0.673690 0.954100 -0.482789
O4    O     O_R   0.320040 0.522690 0.547470 -0.482592
O5    O     O_R   0.031250 0.825430 0.055080 -0.472941
O6    O     O_R   0.814180 0.011990 0.050320 -0.484859
O7    O     O_R   0.640680 0.032900 0.051920 -0.490886
O8    O     O_R   0.671090 0.815590 0.046300 -0.481795
O9    O     O_R   0.822940 0.642440 0.050310 -0.508333
O10   O     O_R   0.009970 0.673280 0.049430 -0.503228
O11   O     O_3   0.833690 0.833830 0.001040 -0.270167
O12   O     O_R   0.522480 0.657560 0.452870 -0.498362
O13   O     O_R   0.303930 0.694040 0.551750 -0.513727
O14   O     O_R   0.523510 0.657900 0.548240 -0.498505
O15   O     O_R   0.694770 0.503160 0.551780 -0.503630
O16   O     O_R   0.657990 0.319990 0.547370 -0.500281
O17   O     O_R   0.501900 0.302960 0.447930 -0.503058
O18   O     O_R   0.319020 0.522350 0.452090 -0.494787
O19   O     O_R   0.302820 0.693680 0.448870 -0.507958
O20   O     O_R   0.693670 0.502790 0.448900 -0.498194
O21   O     O_R   0.656970 0.319650 0.452000 -0.492085
O22   O     O_3   0.499990 0.499990 0.499990 -0.256344
O23   O     O_R   0.035380 0.825870 0.952240 -0.517121
O24   O     O_R   0.818010 0.012400 0.954990 -0.512562
O25   O     O_R   0.644810 0.033340 0.949080 -0.479396
O26   O     O_R   0.674910 0.816000 0.950960 -0.488810

loop_
_geom_bond_atom_site_label_1
_geom_bond_atom_site_label_2
_ccdc_geom_bond_type
C7    C10   A    
C87   C88   S    
C70   O10   A    
C84   H30   S    
Cr5   O8    S    
C23   C45   S    
C55   C59   A    
C41   C42   A    
C35   C36   S    
C51   C61   T    
C77   H15   S    
C2    C12   T    
C52   O21   A    
C81   C82   S    
C63   O25   A    
C31   C32   A    
C53   C54   A    
Cr1   O22   S    
Cr2   O22   S    
C30   C35   A    
C70   O5    A    
C54   F9    S    
C19   C76   S    
C24   C26   T    
Cr6   O10   S    
C85   H27   S    
C74   H7    S    
C5    C6    A    
C11   C14   T    
C15   C25   T    
C16   O16   A    
C79   H13   S    
C29   C33   A    
Cr4   O23   S    
C69   O9    A    
C56   C78   S    
C4    O14   A    
C62   C70   S    
C60   C62   T    
C73   C74   S    
C64   C71   S    
C88   H37   S    
C1    O4    A    
C9    C13   S    
C88   H35   S    
C65   O2    A    
C69   O8    A    
C82   H21   S    
C83   C84   S    
C1    O13   A    
C45   F10   S    
C8    C9    A    
C79   H14   S    
C45   C67   S    
C41   C46   A    
C57   C83   S    
C1    C15   S    
C31   F4    S    
C87   H39   S    
C4    C12   S    
C43   C47   A    
Cr5   O11   S    
C3    C13   T    
C85   H29   S    
C71   C78   S    
C58   C61   S    
C48   C50   T    
C39   C52   S    
C38   C69   S    
C59   C60   S    
Cr5   O7    S    
C80   H26   S    
C79   H11   S    
C81   H22   S    
Cr2   O12   S    
C67   C78   S    
C42   F6    S    
C68   O7    A    
C86   H41   S    
C82   H19   S    
C20   H12   S    
C44   F8    S    
C44   C46   A    
C55   H44   S    
C54   C59   A    
C77   C79   S    
C75   H4    S    
C80   H25   S    
C74   C75   S    
C67   H46   S    
Cr6   O9    S    
C26   C66   S    
C7    C8    A    
C19   C22   A    
C84   C85   S    
C45   C56   S    
C40   O12   A    
Cr1   O1    S    
Cr6   O11   S    
C66   O3    A    
C86   C87   S    
C74   H8    S    
Cr4   O24   S    
C53   H43   S    
C33   C37   S    
C73   H9    S    
Cr6   O2    S    
Cr5   O26   S    
C43   C44   A    
C82   H20   S    
C5    C9    A    
C29   C30   A    
C32   C80   S    
C81   H24   S    
C47   C48   S    
C46   C49   S    
C27   C40   S    
C23   C34   S    
C23   H2    S    
C56   C64   S    
C17   C18   A    
C41   F5    S    
C16   O1    A    
C17   F1    S    
C76   C77   S    
Cr4   O6    S    
C5    C86   S    
C28   O19   A    
C23   C64   S    
C39   C49   T    
C55   C57   A    
C64   H42   S    
C31   C35   A    
Cr2   O13   S    
C71   H1    S    
C68   O6    A    
C86   H40   S    
C88   H36   S    
C83   H32   S    
C78   H45   S    
C21   C25   S    
C84   H31   S    
C75   H5    S    
C30   H34   S    
C7    F2    S    
Cr2   O19   S    
Cr1   O17   S    
C18   C22   A    
C76   H18   S    
Cr2   O14   S    
Cr4   O5    S    
C80   C81   S    
C34   C67   S    
C6    C10   A    
C53   C58   A    
C63   O24   A    
Cr3   O22   S    
C65   C72   S    
C75   H6    S    
C73   H10   S    
Cr6   O3    S    
C76   H17   S    
C32   C33   A    
C19   C20   A    
C36   C38   T    
C34   C89   S    
C2    C56   S    
C52   O17   A    
C72   C89   T    
Cr3   O16   S    
C57   C58   A    
C65   O26   A    
Cr4   O11   S    
Cr3   O21   S    
C14   C63   S    
Cr1   O18   S    
C8    C73   S    
C28   C51   S    
C4    O15   A    
C22   C24   S    
C42   C47   A    
C40   O20   A    
C17   C21   A    
C43   F7    S    
C77   H16   S    
C10   C11   S    
Cr3   O20   S    
Cr3   O15   S    
C28   O18   A    
C20   C21   A    
C29   H23   S    
Cr5   O25   S    
C6    H3    S    
C66   O23   A    
C18   F3    S    
C87   H38   S    
Cr1   O4    S    
C50   C68   S    
C34   C71   S    
C83   H33   S    
C3    C16   S    
C27   C37   T    
C85   H28   S    
