data_mof_unit_56573.cif
_audit_creation_date              2012-12-10T17:07:13-0500
_audit_creation_method            fapswitch 2.2
_symmetry_space_group_name_H-M    P1
_symmetry_Int_Tables_number       1
_space_group_crystal_system       triclinic
_cell_length_a                    17.140514
_cell_length_b                    11.020627
_cell_length_c                    9.875628
_cell_angle_alpha                 111.822622
_cell_angle_beta                  94.802223
_cell_angle_gamma                 90.200622
_cell_volume                      1724.52672974

loop_
_atom_site_label
_atom_site_type_symbol
_atom_type_description
_atom_site_fract_x
_atom_site_fract_y
_atom_site_fract_z
_atom_type_partial_charge
C1    C     C_R   0.493124 0.254134 0.441225 0.860071
C2    C     C_R   0.506173 0.745978 0.558987 0.857119
C3    C     C_2   0.488129 0.114498 0.408501 -0.386026
C4    C     C_2   0.509683 0.885885 0.592445 -0.361869
C5    C     C_2   0.500366 0.069991 0.516650 -0.161260
C6    C     C_2   0.499800 0.930505 0.484173 -0.159355
C7    C     C_2   0.502004 0.520073 0.087219 -0.057108
C8    C     C_2   0.485449 0.515016 0.929920 -0.053638
C9    C     C_R   0.352163 0.513302 0.521991 0.788573
C10   C     C_R   0.648080 0.489997 0.478565 0.787919
C11   C     C_R   0.268894 0.536823 0.540102 -0.066986
C12   C     C_R   0.731958 0.474371 0.462113 -0.067531
C13   C     C_R   0.228158 0.629312 0.493750 0.056077
C14   C     C_R   0.775884 0.383654 0.506365 0.049379
C15   C     C_R   0.145995 0.640294 0.506276 0.113484
C16   C     C_R   0.859324 0.391841 0.512608 0.114736
C17   C     C_R   0.108639 0.564544 0.572476 0.115347
C18   C     C_R   0.894299 0.477713 0.456141 0.118067
C19   C     C_R   0.151124 0.481508 0.625848 -0.194218
C20   C     C_R   0.848810 0.554497 0.398099 -0.199174
C21   C     C_R   0.230303 0.467044 0.608896 -0.245152
C22   C     C_R   0.768524 0.555074 0.404066 -0.237405
C23   C     C_2   0.023613 0.561045 0.576340 -0.245332
C24   C     C_2   0.979038 0.489425 0.455354 -0.223556
Cu1   Cu    Cu3+1 0.513640 0.521550 0.643210 0.916335
Cu2   Cu    Cu3+1 0.486360 0.478450 0.356790 0.916154
H1    H     H_    0.121982 0.423513 0.675845 0.147667
H2    H     H_    0.876137 0.618736 0.353690 0.151974
H3    H     H_    0.490043 0.863888 0.370397 0.179343
H4    H     H_    0.512092 0.136601 0.630061 0.183959
H5    H     H_    0.429615 0.474468 0.870366 0.141639
H6    H     H_    0.547398 0.587291 0.158969 0.152719
N1    N     N_2   0.465840 0.446060 0.141630 -0.160653
N2    N     N_2   0.534160 0.553940 0.858370 -0.173183
O1    O     O_R   0.507280 0.332200 0.576490 -0.580362
O2    O     O_R   0.492720 0.667800 0.423510 -0.589235
O3    O     O_R   0.484240 0.295800 0.334620 -0.594541
O4    O     O_R   0.515760 0.704200 0.665380 -0.582791
O5    O     O_R   0.399260 0.520290 0.634950 -0.582711
O6    O     O_R   0.600740 0.479710 0.365050 -0.574886
O7    O     O_R   0.376220 0.483890 0.393080 -0.596853
O8    O     O_R   0.623780 0.516110 0.606920 -0.592595
C25   C     C_3   0.272081 0.723669 0.443737 -0.431685
C26   C     C_3   0.290803 0.855893 0.570484 -0.353013
C27   C     C_3   0.299706 0.965977 0.513381 -0.834646
H7    H     H_    0.339935 0.938429 0.425288 0.268462
H8    H     H_    0.241810 0.986371 0.468523 0.241196
H9    H     H_    0.323480 0.056438 0.603716 0.241823
H10   H     H_    0.243993 0.881236 0.646748 0.219697
H11   H     H_    0.345937 0.849397 0.634647 0.218127
H12   H     H_    0.327574 0.685232 0.398258 0.216516
H13   H     H_    0.237653 0.737559 0.350983 0.208771
C28   C     C_3   0.733556 0.274216 0.535179 -0.408011
C29   C     C_3   0.752375 0.137595 0.426547 -0.360396
C30   C     C_3   0.688588 0.034506 0.407999 -0.851429
H14   H     H_    0.674055 0.036778 0.516431 0.267888
H15   H     H_    0.635722 0.052089 0.346309 0.261937
H16   H     H_    0.709127 0.935814 0.344254 0.232509
H17   H     H_    0.760015 0.140770 0.317153 0.223666
H18   H     H_    0.807136 0.104422 0.467079 0.229937
H19   H     H_    0.748847 0.281668 0.649459 0.174198
H20   H     H_    0.669211 0.283131 0.525042 0.212840
H21   H     H_    0.734785 0.621156 0.366063 0.147230
H22   H     H_    0.261460 0.398712 0.647131 0.145535
H23   H     H_    0.005090 0.436691 0.354208 0.145624
H24   H     H_    0.998215 0.610464 0.679111 0.152235
C31   C     C_3   0.911394 0.317054 0.585860 -0.399752
C32   C     C_3   0.957067 0.209588 0.476746 -0.343785
C33   C     C_3   0.993373 0.118242 0.546851 -0.886372
H25   H     H_    0.032198 0.174880 0.646659 0.254883
H26   H     H_    0.946860 0.064732 0.576533 0.250556
H27   H     H_    0.028941 0.045913 0.468369 0.247835
H28   H     H_    0.918165 0.151382 0.377868 0.210207
H29   H     H_    0.005347 0.253517 0.440141 0.228428
H30   H     H_    0.953610 0.386925 0.670579 0.188523
H31   H     H_    0.877370 0.273798 0.648189 0.196171
C34   C     C_3   0.098330 0.733186 0.452233 -0.409020
C35   C     C_3   0.075163 0.672804 0.286233 -0.344126
C36   C     C_3   0.038332 0.773256 0.230385 -0.875224
H32   H     H_    0.985112 0.811728 0.286800 0.255964
H33   H     H_    0.080943 0.855443 0.249569 0.252007
H34   H     H_    0.021210 0.726412 0.110907 0.241854
H35   H     H_    0.126737 0.633175 0.225272 0.211183
H36   H     H_    0.032054 0.590555 0.260589 0.216630
H37   H     H_    0.044223 0.760579 0.509417 0.202153
H38   H     H_    0.131118 0.827524 0.480971 0.207359
H39   H     H_    0.519188 0.952763 0.706062 0.146436
H40   H     H_    0.476438 0.047574 0.295285 0.144427
C37   C     C_3   0.609963 0.614557 0.929564 -0.121196
C38   C     C_3   0.668712 0.511124 0.934679 -0.357554
C39   C     C_3   0.750804 0.572221 0.991313 -0.903210
H41   H     H_    0.772235 0.617349 0.917099 0.257593
H42   H     H_    0.750485 0.647942 0.103293 0.250522
H43   H     H_    0.791580 0.495404 0.995678 0.250029
H44   H     H_    0.650307 0.461864 0.007144 0.212808
H45   H     H_    0.670527 0.435537 0.823239 0.232399
H46   H     H_    0.632577 0.669585 0.866213 0.203258
H47   H     H_    0.604498 0.689460 0.040375 0.113122
C40   C     C_3   0.400641 0.359741 0.047961 -0.167372
C41   C     C_3   0.378892 0.243613 0.089024 -0.280341
C42   C     C_3   0.314231 0.156150 0.980168 -0.976954
H48   H     H_    0.261141 0.212876 0.976828 0.261940
H49   H     H_    0.334673 0.113933 0.868918 0.261614
H50   H     H_    0.298475 0.074484 0.014138 0.256389
H51   H     H_    0.430859 0.182956 0.085630 0.224839
H52   H     H_    0.356524 0.276898 0.198155 0.256392
H53   H     H_    0.348167 0.418903 0.048134 0.152993
H54   H     H_    0.417028 0.311964 0.934025 0.143232

loop_
_geom_bond_atom_site_label_1
_geom_bond_atom_site_label_2
_ccdc_geom_bond_type
C26   H10   S    
C34   C35   S    
C30   H14   S    
C42   H48   S    
C10   O8    A    
C25   H12   S    
C7    C8    S    
C4    H39   S    
C29   H18   S    
C28   C29   S    
C40   H54   S    
C41   H51   S    
C17   C23   S    
C18   C24   S    
C23   H24   S    
C19   C21   A    
C5    C6    S    
C25   H13   S    
C2    O2    A    
C12   C22   A    
C9    O5    A    
C10   O6    A    
C33   H26   S    
C21   H22   S    
C22   H21   S    
C28   H19   S    
C35   H35   S    
C32   C33   S    
C23   C24   D    
C19   H1    S    
C1    O3    A    
Cu1   N2    S    
C34   H37   S    
C42   H49   S    
C7    N1    D    
C29   H17   S    
C27   H8    S    
C31   C32   S    
C38   H44   S    
C4    C6    D    
C39   H41   S    
C36   H33   S    
C35   C36   S    
C20   H2    S    
Cu1   Cu2   S    
C27   H7    S    
C11   C21   A    
C37   H46   S    
C1    C3    S    
C33   H27   S    
C2    C4    S    
C25   C26   S    
Cu1   O4    S    
C39   H42   S    
C28   H20   S    
C2    O4    A    
Cu2   N1    S    
C40   C41   S    
C6    H3    S    
C16   C31   S    
C8    N2    D    
C9    C11   S    
C10   C12   S    
C24   H23   S    
Cu1   O1    S    
Cu2   O2    S    
C20   C22   A    
C34   H38   S    
C42   H50   S    
C13   C15   A    
C14   C16   A    
C31   H30   S    
C13   C25   S    
C26   C27   S    
C1    O1    A    
C5    H4    S    
C27   H9    S    
C26   H11   S    
C15   C17   A    
C29   C30   S    
C7    H6    S    
C3    H40   S    
C8    H5    S    
C41   H52   S    
C12   C14   A    
C3    C5    D    
Cu1   O8    S    
C36   H34   S    
Cu2   O3    S    
C38   H45   S    
C40   H53   S    
C9    O7    A    
C37   H47   S    
C30   H15   S    
C32   H28   S    
N2    C37   S    
Cu1   O5    S    
C39   H43   S    
C11   C13   A    
Cu2   O6    S    
C38   C39   S    
C15   C34   S    
C41   C42   S    
C17   C19   A    
C18   C20   A    
C33   H25   S    
C36   H32   S    
C35   H36   S    
C14   C28   S    
C16   C18   A    
C30   H16   S    
C31   H31   S    
N1    C40   S    
C37   C38   S    
C32   H29   S    
Cu2   O7    S    
