data_mof_unit_14894.cif
_audit_creation_date              2013-03-05T15:59:21-0500
_audit_creation_method            fapswitch 2.2
_symmetry_space_group_name_H-M    P1
_symmetry_Int_Tables_number       1
_space_group_crystal_system       triclinic
_cell_length_a                    10.487662
_cell_length_b                    12.627066
_cell_length_c                    13.096716
_cell_angle_alpha                 82.351789
_cell_angle_beta                  90.55186
_cell_angle_gamma                 102.599338
_cell_volume                      1677.21700967

loop_
_atom_site_label
_atom_site_type_symbol
_atom_site_description
_atom_site_fract_x
_atom_site_fract_y
_atom_site_fract_z
_atom_type_partial_charge
O1    O     O_R   0.467970 0.366730 0.627150 -0.616942
O2    O     O_R   0.510820 0.544830 0.662520 -0.607201
C1    C     C_R   0.488835 0.438893 0.691307 0.846579
O3    O     O_R   0.664630 0.410960 0.482340 -0.616177
O4    O     O_R   0.707470 0.589060 0.517710 -0.632090
C2    C     C_R   0.742366 0.500867 0.500343 0.855059
Zn1   Zn    Zn3+2 0.471390 0.381080 0.476380 0.937917
Zn2   Zn    Zn3+2 0.528610 0.618920 0.523620 0.934181
O5    O     O_R   0.489180 0.455170 0.337480 -0.610934
O6    O     O_R   0.532030 0.633270 0.372850 -0.637022
O7    O     O_R   0.292530 0.410940 0.482290 -0.623546
O8    O     O_R   0.335370 0.589040 0.517660 -0.628197
C3    C     C_R   0.517169 0.560982 0.308876 0.847000
C4    C     C_R   0.257628 0.499143 0.499804 0.857182
C5    C     C_3   0.937140 0.420951 0.572571 -0.184782
C6    C     C_3   0.048675 0.517271 0.593337 -0.138765
H1    H     H_    0.092954 0.530884 0.669157 0.163416
H2    H     H_    0.881153 0.356808 0.631599 0.138359
C7    C     C_3   0.121928 0.497987 0.499648 0.012596
C8    C     C_3   0.013041 0.401621 0.478865 -0.137677
C9    C     C_3   0.951377 0.483063 0.406994 -0.171677
C10   C     C_3   0.062909 0.579385 0.427783 -0.194558
C11   C     C_3   0.986956 0.598685 0.521481 -0.109196
C12   C     C_3   0.878101 0.502271 0.500673 0.016659
H3    H     H_    0.027629 0.321333 0.461486 0.147708
H4    H     H_    0.906994 0.469552 0.331186 0.143127
H5    H     H_    0.118932 0.643639 0.368851 0.132667
H6    H     H_    0.972297 0.678928 0.538942 0.164699
C13   C     C_R   0.715722 0.690077 0.073255 -0.135581
H7    H     H_    0.709561 0.731602 0.226290 0.158242
H8    H     H_    0.803506 0.752558 0.054686 0.194575
C14   C     C_R   0.551246 0.596846 0.201169 -0.043501
C15   C     C_R   0.386568 0.304451 0.836953 -0.185643
C16   C     C_R   0.355665 0.278433 0.941338 -0.140375
C17   C     C_R   0.410555 0.350790 0.009307 -0.170690
C18   C     C_R   0.503103 0.448605 0.973876 0.092731
C19   C     C_R   0.548834 0.465083 0.871363 0.038074
C20   C     C_R   0.552046 0.530099 0.036968 0.042141
C21   C     C_R   0.662389 0.615847 0.004372 0.036705
C22   C     C_R   0.719008 0.621759 0.905932 0.283434
C23   C     C_R   0.661355 0.546783 0.840754 -0.297658
C24   C     C_R   0.492715 0.528292 0.132041 -0.215283
C25   C     C_R   0.661181 0.679679 0.171566 -0.219256
C26   C     C_R   0.479726 0.399631 0.801202 -0.088014
H9    H     H_    0.403311 0.470143 0.156849 0.132049
H10   H     H_    0.334397 0.252325 0.783846 0.161176
H11   H     H_    0.381705 0.326651 0.089348 0.127497
H12   H     H_    0.284699 0.204359 0.969127 0.148533
H13   H     H_    0.705991 0.552553 0.765437 0.181145
C27   C     C_R   0.318699 0.087976 0.346578 -0.300785
H14   H     H_    0.297992 0.254610 0.330155 0.126020
H15   H     H_    0.287045 0.881155 0.315726 0.153678
H16   H     H_    0.249095 0.066027 0.287097 0.143915
N1    N     N_R   0.432930 0.222190 0.444670 -0.101268
C28   C     C_R   0.656687 0.800693 0.628028 0.040919
C29   C     C_R   0.690637 0.905781 0.654909 -0.200280
C30   C     C_R   0.630942 0.986638 0.606693 -0.216732
C31   C     C_R   0.537350 0.962834 0.529944 0.020969
C32   C     C_R   0.507358 0.854590 0.504345 0.232028
C33   C     C_R   0.473491 0.041890 0.477219 -0.010090
C34   C     C_R   0.382286 0.011407 0.399627 0.192760
C35   C     C_R   0.355869 0.905032 0.375225 -0.281848
C36   C     C_R   0.417928 0.828045 0.426613 -0.195625
C37   C     C_R   0.496226 0.150738 0.497931 -0.042433
C38   C     C_R   0.345859 0.194092 0.370563 0.010853
N2    N     N_R   0.566370 0.776980 0.554790 -0.139617
H17   H     H_    0.563147 0.181488 0.555385 0.127173
H18   H     H_    0.703091 0.737636 0.665038 0.164372
H19   H     H_    0.660876 0.066661 0.630505 0.142365
H20   H     H_    0.763333 0.924948 0.712641 0.209493
H21   H     H_    0.394763 0.748406 0.403147 0.209655
N3    N     N_R   0.832698 0.703964 0.869448 0.188984
O9    O     O_R   0.835544 0.806927 0.872921 -0.445950
O10   O     O_R   0.922984 0.678079 0.816299 -0.417242

loop_
_geom_bond_atom_site_label_1
_geom_bond_atom_site_label_2
_geom_bond_distance
_ccdc_geom_bond_type
C5    H2    1.110418 S    
C9    H4    1.110416 S    
Zn2   N2    2.043470 S    
C3    C14   1.446273 S    
C7    C8    1.528002 S    
C28   C29   1.388287 A    
C17   H11   1.078957 S    
C28   H18   1.080529 S    
N1    C38   1.354616 A    
Zn1   O7    1.996495 S    
C18   C19   1.403699 A    
C20   C24   1.392569 A    
C32   N2    1.365379 A    
O4    C2    1.293310 A    
O7    C4    1.294026 A    
C8    H3    1.110306 S    
C31   C33   1.421661 A    
C5    C6    1.543621 S    
C29   C30   1.390234 A    
C16   C17   1.391303 A    
H14   C38   1.081962 S    
O5    C3    1.307459 A    
C17   C18   1.419872 A    
C6    H1    1.110380 S    
C11   C12   1.528298 S    
C9    C10   1.543694 S    
C13   C25   1.392346 A    
C15   H10   1.083417 S    
O3    Zn1   1.981641 S    
C23   H13   1.082749 S    
C5    C8    1.543588 S    
C1    C26   1.455496 S    
C27   H16   1.083876 S    
C37   H17   1.076223 S    
C7    C10   1.527816 S    
N3    O10   1.302390 A    
C21   C22   1.410712 A    
C31   C32   1.418413 A    
C33   C34   1.421450 A    
O1    C1    1.302867 A    
C24   H9    1.079752 S    
C35   C36   1.383840 A    
Zn2   O8    1.981643 S    
C2    C12   1.419758 S    
C13   C21   1.411340 A    
C15   C16   1.387253 A    
C11   H6    1.110365 S    
O3    C2    1.293382 A    
C5    C12   1.527475 S    
O8    C4    1.292744 A    
C6    C11   1.543530 S    
C29   H20   1.081035 S    
C10   H5    1.110524 S    
H7    C25   1.083476 S    
C16   H12   1.082657 S    
C28   N2    1.357247 A    
Zn1   O5    1.922674 S    
C22   C23   1.394988 A    
C22   N3    1.437520 S    
O1    Zn1   1.958678 S    
C15   C26   1.401766 A    
C4    C7    1.420047 S    
O2    Zn2   1.922673 S    
C36   H21   1.067222 S    
N3    O9    1.300794 A    
O6    C3    1.303238 A    
O4    Zn2   1.996492 S    
C32   C36   1.401323 A    
C33   C37   1.405183 A    
C19   C26   1.407359 A    
C18   C20   1.411699 A    
O2    C1    1.310552 A    
C13   H8    1.079612 S    
H15   C35   1.084379 S    
C30   C31   1.413103 A    
C20   C21   1.426052 A    
N1    C37   1.351335 A    
C6    C7    1.527864 S    
C14   C25   1.395776 A    
C19   C23   1.409068 A    
C34   C35   1.390426 A    
C27   C38   1.385292 A    
C8    C9    1.543542 S    
Zn2   O6    1.958680 S    
C9    C12   1.527528 S    
C27   C34   1.398498 A    
C14   C24   1.382712 A    
C10   C11   1.543663 S    
Zn1   N1    2.055716 S    
C30   H19   1.077230 S    
