data_mof_unit_31874.cif
_audit_creation_date              2012-12-10T19:12:23-0500
_audit_creation_method            fapswitch 2.2
_symmetry_space_group_name_H-M    P1
_symmetry_Int_Tables_number       1
_space_group_crystal_system       triclinic
_cell_length_a                    15.696894
_cell_length_b                    10.619503
_cell_length_c                    9.735504
_cell_angle_alpha                 89.88356
_cell_angle_beta                  89.374545
_cell_angle_gamma                 90.132462
_cell_volume                      1622.73797767

loop_
_atom_site_label
_atom_site_type_symbol
_atom_type_description
_atom_site_fract_x
_atom_site_fract_y
_atom_site_fract_z
_atom_type_partial_charge
C1    C     C_R   0.503668 0.257875 0.500097 0.927754
C2    C     C_3   0.082607 0.493189 0.498647 0.217747
C3    C     C_3   0.972357 0.607545 0.460069 -0.169275
C4    C     C_3   0.917365 0.492678 0.495997 0.216186
C5    C     C_3   0.029751 0.521335 0.370999 -0.163389
C6    C     C_3   0.972907 0.406381 0.406860 -0.161780
C7    C     C_1   0.173504 0.495183 0.500583 -0.096595
C8    C     C_1   0.826455 0.494365 0.496105 -0.088716
C9    C     C_3   0.553619 0.071895 0.627672 -0.485014
C10   C     C_3   0.550728 0.928083 0.630279 -0.423938
C11   C     C_3   0.411923 0.072146 0.505348 0.255871
C12   C     C_R   0.337854 0.499824 0.500560 0.924171
C13   C     C_3   0.551633 0.072495 0.367127 0.367118
C14   C     C_3   0.505401 0.121303 0.499619 0.049281
C15   C     C_3   0.505439 0.878704 0.499862 0.093499
C16   C     C_3   0.412657 0.927352 0.497336 -0.470698
C17   C     C_3   0.554845 0.928093 0.371847 -0.485574
C18   C     C_3   0.444605 0.395250 0.083715 -0.337022
C19   C     C_3   0.446026 0.392713 0.920920 -0.275770
C20   C     C_3   0.460155 0.616012 0.079361 -0.286079
C21   C     C_3   0.585575 0.478641 0.076247 0.478654
C22   C     C_3   0.463970 0.616345 0.917610 -0.253393
C23   C     C_R   0.503548 0.742257 0.499850 0.870753
C24   C     C_3   0.586113 0.482206 0.914728 -0.299505
C25   C     C_R   0.662143 0.499607 0.499296 0.924062
C26   C     C_3   0.970251 0.464436 0.623560 -0.163492
C27   C     C_3   0.027696 0.378185 0.534492 -0.176038
C28   C     C_1   0.248866 0.497564 0.501441 -0.218867
C29   C     C_1   0.751097 0.496833 0.497416 -0.173783
C30   C     C_3   0.026953 0.579359 0.587657 -0.168477
H1    H     H_    0.052713 0.284573 0.564831 0.123249
H2    H     H_    0.515910 0.896962 0.724711 0.179690
H3    H     H_    0.384661 0.100221 0.607537 0.061574
H4    H     H_    0.375537 0.887928 0.585646 0.133032
H5    H     H_    0.512532 0.100960 0.276992 0.100834
H6    H     H_    0.621969 0.894687 0.375631 0.184024
H7    H     H_    0.526346 0.891590 0.275588 0.130574
H8    H     H_    0.381073 0.894958 0.401729 0.195486
H9    H     H_    0.377801 0.404486 0.121665 0.180171
H10   H     H_    0.943671 0.441168 0.726698 0.129893
H11   H     H_    0.467090 0.303080 0.123565 0.156611
H12   H     H_    0.470950 0.300315 0.885251 0.146026
H13   H     H_    0.379794 0.399589 0.882234 0.167136
H14   H     H_    0.392479 0.624072 0.113601 0.158147
H15   H     H_    0.399002 0.632156 0.876557 0.159685
H16   H     H_    0.602974 0.379993 0.101610 0.078371
H17   H     H_    0.614063 0.393267 0.874176 0.129177
H18   H     H_    0.627929 0.557647 0.872910 0.169752
H19   H     H_    0.490101 0.701839 0.120543 0.131868
H20   H     H_    0.948445 0.335799 0.333016 0.132716
H21   H     H_    0.503128 0.697235 0.881119 0.139197
H22   H     H_    0.056367 0.544560 0.267879 0.128529
H23   H     H_    0.947482 0.701180 0.429498 0.128219
H24   H     H_    0.051223 0.650002 0.661580 0.126233
H25   H     H_    0.524017 0.107674 0.724405 0.168727
H26   H     H_    0.620988 0.104834 0.625525 0.222396
H27   H     H_    0.616689 0.890142 0.635524 0.179531
N1    N     N_3   0.498170 0.499750 0.138610 -0.073714
N2    N     N_3   0.498850 0.496730 0.861320 -0.048503
O1    O     O_R   0.499980 0.314910 0.616040 -0.654225
O2    O     O_R   0.500040 0.314680 0.383960 -0.604514
O3    O     O_R   0.376750 0.500100 0.616020 -0.624107
O4    O     O_R   0.376810 0.499870 0.383940 -0.616851
O5    O     O_R   0.499960 0.685320 0.616040 -0.636415
O6    O     O_R   0.500020 0.685090 0.383960 -0.643890
O7    O     O_R   0.623190 0.500130 0.616060 -0.637564
O8    O     O_R   0.623250 0.499900 0.383980 -0.557608
Zn1   Zn    Zn3+2 0.499960 0.500150 0.654960 0.897633
Zn2   Zn    Zn3+2 0.500040 0.499850 0.345040 0.951681
O9    O     O_3   0.635130 0.124267 0.359202 -0.615699
C31   C     C_3   0.666667 0.122489 0.222658 0.094052
H28   H     H_    0.621719 0.167839 0.150320 0.106107
H29   H     H_    0.678571 0.024129 0.188799 0.131484
C32   C     C_3   0.750299 0.194993 0.215992 -0.812511
H30   H     H_    0.797581 0.150753 0.284957 0.247164
H31   H     H_    0.775880 0.194412 0.109200 0.196418
H32   H     H_    0.739881 0.294081 0.248342 0.276687
O10   O     O_3   0.365087 0.122811 0.394017 -0.621135
C33   C     C_3   0.279451 0.144063 0.433227 0.104402
H33   H     H_    0.275619 0.215006 0.517111 0.130127
H34   H     H_    0.248506 0.054807 0.467693 0.133428
C34   C     C_3   0.231052 0.195246 0.310796 -0.831429
H35   H     H_    0.232482 0.125901 0.225596 0.246057
H36   H     H_    0.163763 0.213529 0.340848 0.204854
H37   H     H_    0.260536 0.284770 0.274884 0.257569
O11   O     O_3   0.653381 0.547533 0.136686 -0.595667
C35   C     C_3   0.653719 0.678968 0.115004 0.128467
H38   H     H_    0.622599 0.725014 0.204000 0.167029
H39   H     H_    0.622530 0.709921 0.019464 0.095824
C36   C     C_3   0.745589 0.724546 0.109040 -0.883463
H40   H     H_    0.779662 0.679305 0.021647 0.256053
H41   H     H_    0.747343 0.828245 0.094623 0.199438
H42   H     H_    0.778384 0.700443 0.206167 0.264284

loop_
_geom_bond_atom_site_label_1
_geom_bond_atom_site_label_2
_ccdc_geom_bond_type
O7    Zn1   S    
C35   H38   S    
C2    C7    S    
C25   O8    A    
C4    C8    S    
C30   H24   S    
C26   C27   S    
C32   H31   S    
C12   C28   S    
C8    C29   T    
O5    Zn1   S    
C13   H5    S    
C10   C15   S    
C5    C6    S    
C11   C14   S    
C13   O9    S    
C15   C16   S    
C15   C17   S    
C18   C19   S    
C16   H4    S    
C35   C36   S    
C18   N1    S    
O4    Zn2   S    
C32   H32   S    
C5    H22   S    
O9    C31   S    
C9    H25   S    
C17   H6    S    
C9    C10   S    
C19   H12   S    
C15   C23   S    
C13   C14   S    
C20   H14   S    
C19   H13   S    
C25   C29   S    
C32   H30   S    
C27   H1    S    
C24   H18   S    
C11   H3    S    
C10   H27   S    
C4    C6    S    
C18   H11   S    
C22   N2    S    
C33   H34   S    
C9    C14   S    
O10   C33   S    
C19   N2    S    
C7    C28   T    
O8    Zn2   S    
C3    C30   S    
C18   H9    S    
C20   H19   S    
C11   O10   S    
N2    Zn1   S    
C31   C32   S    
C12   O3    A    
C11   C16   S    
C36   H41   S    
C6    C27   S    
C9    H26   S    
C17   H7    S    
C6    H20   S    
C2    C27   S    
C23   O5    A    
C20   C22   S    
C26   C30   S    
C34   H36   S    
C35   H39   S    
C1    O1    A    
C2    C5    S    
C20   N1    S    
C3    C4    S    
C36   H42   S    
C31   H29   S    
C21   H16   S    
O2    Zn2   S    
C12   O4    A    
C21   O11   S    
O11   C35   S    
C24   H17   S    
C25   O7    A    
C3    C5    S    
C1    O2    A    
C33   C34   S    
C4    C26   S    
N1    Zn2   S    
O3    Zn1   S    
C34   H37   S    
C13   C17   S    
C2    C30   S    
C23   O6    A    
C21   N1    S    
C3    H23   S    
C26   H10   S    
C36   H40   S    
C24   N2    S    
O6    Zn2   S    
C33   H33   S    
C10   H2    S    
C31   H28   S    
C22   H15   S    
O1    Zn1   S    
C34   H35   S    
C21   C24   S    
C1    C14   S    
C16   H8    S    
C22   H21   S    
