data_mof_unit_32132.cif
_audit_creation_date              2012-12-10T17:02:59-0500
_audit_creation_method            fapswitch 2.2
_symmetry_space_group_name_H-M    P1
_symmetry_Int_Tables_number       1
_space_group_crystal_system       triclinic
_cell_length_a                    9.846287
_cell_length_b                    11.032663
_cell_length_c                    13.461488
_cell_angle_alpha                 93.672222
_cell_angle_beta                  82.637291
_cell_angle_gamma                 111.073396
_cell_volume                      1353.02583605

loop_
_atom_site_label
_atom_site_type_symbol
_atom_type_description
_atom_site_fract_x
_atom_site_fract_y
_atom_site_fract_z
_atom_type_partial_charge
C1    C     C_R   0.556994 0.745492 0.505068 0.860372
C2    C     C_R   0.430202 0.430982 0.967396 0.042953
C3    C     C_R   0.474011 0.434628 0.862715 0.084380
C4    C     C_R   0.540486 0.463723 0.034085 0.088130
C5    C     C_R   0.689233 0.494338 0.994689 0.164877
C6    C     C_R   0.724484 0.472137 0.893724 -0.255346
C7    C     C_R   0.616885 0.435981 0.829634 -0.188317
C8    C     C_R   0.509075 0.472258 0.138163 -0.272263
C9    C     C_R   0.768953 0.566111 0.158841 -0.008752
C10   C     C_R   0.373631 0.436617 0.795492 -0.157054
C11   C     C_2   0.592263 0.884435 0.496810 -0.363293
C12   C     C_R   0.421465 0.474101 0.689156 0.805036
C13   C     C_2   0.491364 0.929266 0.472928 -0.169962
C14   C     C_2   0.417650 0.115637 0.483043 -0.359841
C15   C     C_2   0.525382 0.067474 0.457145 0.219493
C16   C     C_2   0.923803 0.493619 0.490327 0.031118
C17   C     C_2   0.078643 0.511078 0.506410 0.011173
C18   C     C_R   0.445617 0.254832 0.489320 0.859149
C19   C     C_R   0.577327 0.514622 0.309818 0.786119
C20   C     C_R   0.801526 0.547490 0.056250 -0.243073
C21   C     C_R   0.620862 0.519390 0.201018 -0.101500
C22   C     C_R   0.225241 0.405339 0.831526 -0.196395
C23   C     C_R   0.176912 0.379070 0.932580 0.233707
C24   C     C_R   0.278977 0.397069 0.000476 -0.198788
Cu1   Cu    Cu3+1 0.362000 0.479240 0.482530 0.930257
Cu2   Cu    Cu3+1 0.638000 0.520760 0.517470 0.940023
H1    H     H_    0.379275 0.863736 0.469285 0.150333
H2    H     H_    0.306642 0.050701 0.506179 0.110004
H3    H     H_    0.702890 0.949559 0.506387 0.159783
H4    H     H_    0.131697 0.580096 0.562902 0.137285
H5    H     H_    0.873111 0.428804 0.431031 0.141695
H6    H     H_    0.835906 0.483562 0.863886 0.140893
H7    H     H_    0.914887 0.580566 0.023348 0.142017
H8    H     H_    0.397643 0.443142 0.172335 0.156007
H9    H     H_    0.146216 0.399721 0.780670 0.154896
H10   H     H_    0.235776 0.381197 0.078145 0.128284
H11   H     H_    0.648758 0.407532 0.754846 0.188722
N1    N     N_2   0.845330 0.551960 0.543750 -0.140041
N2    N     N_2   0.154690 0.448120 0.456210 -0.136715
O1    O     O_R   0.426290 0.668220 0.490680 -0.581947
O2    O     O_R   0.659360 0.703290 0.520190 -0.569631
O3    O     O_R   0.326580 0.473880 0.629020 -0.583068
O4    O     O_R   0.559660 0.508940 0.658530 -0.586254
O5    O     O_R   0.340640 0.296710 0.479810 -0.578307
O6    O     O_R   0.573710 0.331780 0.509320 -0.575708
O7    O     O_R   0.440340 0.491060 0.341470 -0.584277
O8    O     O_R   0.673420 0.526120 0.370980 -0.573958
C25   C     C_R   0.889698 0.644649 0.217489 0.140431
C26   C     C_R   0.883373 0.757933 0.268908 -0.094512
C27   C     C_R   0.997682 0.833947 0.322854 -0.123296
C28   C     C_R   0.119829 0.798503 0.324960 -0.113569
C29   C     C_R   0.127686 0.686590 0.273666 -0.128432
C30   C     C_R   0.013208 0.609915 0.219846 -0.175652
H12   H     H_    0.789941 0.787326 0.267078 0.102163
H13   H     H_    0.991963 0.920789 0.362509 0.118925
H14   H     H_    0.208561 0.858424 0.365821 0.116387
H15   H     H_    0.222465 0.659263 0.275604 0.147993
H16   H     H_    0.020394 0.523300 0.180805 0.114200
C31   C     C_3   0.093472 0.352731 0.379513 -0.567037
H17   H     H_    0.177062 0.312891 0.344435 0.227354
H18   H     H_    0.998797 0.270756 0.413124 0.168439
H19   H     H_    0.061184 0.397938 0.319606 0.162973
C32   C     C_3   0.905660 0.643992 0.622642 -0.549320
H20   H     H_    0.822104 0.683374 0.658547 0.234894
H21   H     H_    0.936405 0.595296 0.681240 0.157211
H22   H     H_    0.001731 0.726878 0.591144 0.165877
C33   C     C_3   0.016466 0.333206 0.969291 -0.896544
H23   H     H_    0.948772 0.326046 0.907744 0.230328
H24   H     H_    0.982645 0.235710 0.002415 0.239255
H25   H     H_    0.994936 0.401407 0.027591 0.225732
C34   C     C_3   0.677771 0.149445 0.412297 -0.807135
H26   H     H_    0.734341 0.088131 0.369909 0.211200
H27   H     H_    0.672822 0.219221 0.358141 0.221772
H28   H     H_    0.743237 0.201826 0.473261 0.228145

loop_
_geom_bond_atom_site_label_1
_geom_bond_atom_site_label_2
_ccdc_geom_bond_type
Cu1   O3    S    
C34   H28   S    
C6    H6    S    
C23   C24   A    
C32   H21   S    
C14   H2    S    
C6    C7    A    
C17   H4    S    
Cu2   N1    S    
C18   O5    A    
C15   C34   S    
C26   H12   S    
C14   C18   S    
C9    C20   A    
C2    C4    A    
C27   H13   S    
C1    C11   S    
C4    C8    A    
C30   H16   S    
C33   H25   S    
N2    C31   S    
C1    O1    A    
C8    C21   A    
C7    H11   S    
C19   O7    A    
C31   H17   S    
C3    C10   A    
C8    H8    S    
C4    C5    A    
C10   C22   A    
C16   H5    S    
C22   H9    S    
C11   C13   D    
C9    C21   A    
C24   H10   S    
C10   C12   S    
Cu2   O8    S    
C33   H23   S    
C5    C6    A    
C20   H7    S    
Cu1   O5    S    
C1    O2    A    
C25   C26   A    
C19   C21   S    
Cu2   O4    S    
C2    C3    A    
C12   O4    A    
C3    C7    A    
C13   C15   S    
Cu1   O1    S    
C2    C24   A    
C25   C30   A    
C5    C20   A    
C19   O8    A    
C32   H22   S    
C31   H18   S    
C29   H15   S    
C32   H20   S    
C18   O6    A    
C34   H26   S    
C29   C30   A    
C11   H3    S    
C9    C25   S    
C26   C27   A    
C17   N2    D    
C23   C33   S    
C34   H27   S    
C14   C15   D    
C13   H1    S    
C31   H19   S    
C12   O3    A    
Cu2   O6    S    
C27   C28   A    
Cu1   Cu2   S    
N1    C32   S    
Cu1   O7    S    
C22   C23   A    
Cu1   N2    S    
C28   C29   A    
Cu2   O2    S    
C16   N1    D    
C16   C17   S    
C33   H24   S    
C28   H14   S    
