data_mof_unit_48168.cif
_audit_creation_date              2012-10-26T19:24:23-0400
_audit_creation_method            fapswitch 2.2
_symmetry_space_group_name_H-M    P1
_symmetry_Int_Tables_number       1
_space_group_crystal_system       triclinic
_cell_length_a                    27.763311
_cell_length_b                    10.760131
_cell_length_c                    9.601069
_cell_angle_alpha                 90.145539
_cell_angle_beta                  90.231172
_cell_angle_gamma                 92.42095
_cell_volume                      2865.599366

loop_
_atom_site_label
_atom_site_type_symbol
_atom_type_description
_atom_site_fract_x
_atom_site_fract_y
_atom_site_fract_z
_atom_type_partial_charge
C1    C     C_R   0.498300 0.262627 0.499828 0.543646
C2    C     C_R   0.972546 0.386008 0.512520 0.019977
C3    C     C_R   0.976832 0.615113 0.530215 0.029805
C4    C     C_R   0.407500 0.499325 0.499770 0.535176
C5    C     C_R   0.949367 0.501070 0.519689 0.022372
C6    C     C_R   0.943907 0.275490 0.493586 -0.142115
C7    C     C_R   0.893951 0.277915 0.485429 -0.111787
C8    C     C_R   0.870755 0.390209 0.498136 0.027084
C9    C     C_R   0.898393 0.501825 0.517409 -0.034241
C10   C     C_R   0.874968 0.614042 0.534610 0.009279
C11   C     C_R   0.824367 0.613177 0.529241 0.397208
C12   C     C_R   0.278539 0.483361 0.624364 -0.060943
C13   C     C_R   0.820301 0.393649 0.492628 0.399444
C14   C     C_R   0.721664 0.493099 0.378658 -0.057438
C15   C     C_R   0.671393 0.492427 0.376628 -0.147105
C16   C     C_R   0.498278 0.737071 0.500179 0.529023
C17   C     C_R   0.671018 0.515088 0.628195 -0.145359
C18   C     C_R   0.721236 0.516416 0.629779 -0.056759
C19   C     C_R   0.746672 0.504992 0.505215 0.245062
C20   C     C_R   0.023518 0.385560 0.522943 0.022865
C21   C     C_R   0.050671 0.499524 0.511112 0.022512
C22   C     C_R   0.027047 0.612958 0.503501 -0.013562
C23   C     C_R   0.253387 0.497611 0.499146 0.243974
C24   C     C_R   0.048393 0.275148 0.542384 -0.136487
C25   C     C_R   0.103753 0.720884 0.447642 0.108980
C26   C     C_R   0.952691 0.724551 0.570973 -0.001175
C27   C     C_R   0.902168 0.723256 0.564435 -0.105946
C28   C     C_R   0.592510 0.500810 0.500337 0.540198
C29   C     C_R   0.053660 0.718663 0.457867 -0.127800
C30   C     C_R   0.422110 0.122213 0.648065 -0.093317
C31   C     C_R   0.386995 0.054423 0.723825 0.030177
C32   C     C_R   0.387508 0.924595 0.724836 -0.095413
C33   C     C_R   0.422635 0.863071 0.651435 -0.113310
C34   C     C_R   0.101714 0.499956 0.504015 -0.052628
C35   C     C_R   0.459074 0.930385 0.577478 0.022382
C36   C     C_R   0.458889 0.061650 0.576307 0.010408
C37   C     C_R   0.494728 0.128488 0.499255 0.002605
C38   C     C_R   0.528176 0.066902 0.419405 -0.142316
C39   C     C_R   0.528212 0.938849 0.419855 -0.148777
C40   C     C_R   0.175873 0.389429 0.520252 0.400122
C41   C     C_R   0.494865 0.870558 0.500390 0.009798
C42   C     C_R   0.564157 0.664981 0.144986 -0.089761
C43   C     C_R   0.595522 0.745435 0.073325 -0.171607
C44   C     C_R   0.595497 0.745417 0.929829 -0.167349
C45   C     C_R   0.125454 0.387912 0.522772 0.026861
C46   C     C_R   0.564088 0.664989 0.857112 -0.088160
C47   C     C_R   0.531501 0.581097 0.925750 0.157357
C48   C     C_R   0.531512 0.581054 0.075308 0.159236
C49   C     C_R   0.469961 0.422988 0.073296 -0.003776
C50   C     C_R   0.469972 0.423022 0.925419 -0.003096
C51   C     C_R   0.179699 0.608216 0.477938 0.413875
C52   C     C_R   0.278714 0.511825 0.374026 -0.054196
C53   C     C_R   0.328941 0.511907 0.373960 -0.141124
C54   C     C_R   0.328771 0.484047 0.624720 -0.159159
C55   C     C_3   0.977389 0.835687 0.645746 -0.276269
C56   C     C_R   0.098463 0.276738 0.543630 -0.097897
C57   C     C_3   0.004306 0.796217 0.776513 -0.408435
C58   C     C_3   0.348494 0.120486 0.801644 -0.274079
C59   C     C_3   0.357499 0.116887 0.958458 -0.431399
C60   C     C_R   0.128846 0.611859 0.477266 0.026822
C61   C     C_R   0.354448 0.498419 0.499441 0.000901
C62   C     C_R   0.645593 0.502768 0.501581 0.001666
Cu1   Cu    Cu3+1 0.500000 0.499990 0.640660 0.915816
Cu2   Cu    Cu3+1 0.500000 0.500010 0.359340 0.927188
H1    H     H_    0.347428 0.473015 0.722913 0.119779
H2    H     H_    0.360101 0.870629 0.780904 0.123559
H3    H     H_    0.420226 0.762612 0.651695 0.148479
H4    H     H_    0.555216 0.892804 0.359664 0.114672
H5    H     H_    0.445329 0.359835 0.127958 0.114501
H6    H     H_    0.567218 0.673066 0.254742 0.178857
H7    H     H_    0.620029 0.808387 0.129910 0.128199
H8    H     H_    0.620004 0.808297 0.874089 0.133992
H9    H     H_    0.567072 0.672901 0.747401 0.184016
H10   H     H_    0.445335 0.359919 0.869767 0.109291
H11   H     H_    0.115958 0.189783 0.559789 0.185509
H12   H     H_    0.259401 0.522695 0.276899 0.130270
H13   H     H_    0.652792 0.483103 0.277540 0.134614
H14   H     H_    0.741232 0.484373 0.282036 0.127900
H15   H     H_    0.873543 0.190944 0.469550 0.167903
H16   H     H_    0.959305 0.185931 0.479783 0.108467
H17   H     H_    0.029993 0.186450 0.560944 0.109972
H18   H     H_    0.347740 0.523172 0.275892 0.130087
H19   H     H_    0.035563 0.740119 0.749659 0.171619
H20   H     H_    0.979667 0.741043 0.845799 0.162483
H21   H     H_    0.018001 0.880183 0.834097 0.150038
H22   H     H_    0.001422 0.892838 0.578186 0.139404
H23   H     H_    0.652184 0.523774 0.726069 0.132637
H24   H     H_    0.950186 0.901874 0.680771 0.137921
H25   H     H_    0.356315 0.019362 0.996347 0.166036
H26   H     H_    0.393239 0.161796 0.983920 0.143109
H27   H     H_    0.329218 0.168050 0.013078 0.153791
H28   H     H_    0.347583 0.219405 0.768836 0.139073
H29   H     H_    0.312566 0.076072 0.777254 0.177044
H30   H     H_    0.883777 0.807300 0.589334 0.160390
H31   H     H_    0.740453 0.525518 0.727890 0.127256
H32   H     H_    0.035389 0.798354 0.420320 0.134532
H33   H     H_    0.555172 0.118477 0.359042 0.135488
H34   H     H_    0.419836 0.222183 0.644570 0.123835
H35   H     H_    0.259104 0.472408 0.721418 0.127314
I1    I     I_    0.135056 0.894557 0.378964 -0.295938
N1    N     N_R   0.201745 0.498414 0.499160 -0.406319
N2    N     N_R   0.798264 0.504123 0.507759 -0.398101
N3    N     N_R   0.500460 0.501210 0.147910 -0.242178
N4    N     N_R   0.500480 0.501290 0.852040 -0.242266
O1    O     O_R   0.500000 0.319640 0.618810 -0.497711
O2    O     O_R   0.569730 0.499970 0.618800 -0.515812
O3    O     O_R   0.569740 0.499990 0.381230 -0.520772
O4    O     O_2   0.199000 0.282731 0.538234 -0.479913
O5    O     O_2   0.793427 0.287459 0.473562 -0.490285
O6    O     O_2   0.207293 0.712876 0.460629 -0.442293
O7    O     O_2   0.801394 0.720338 0.545116 -0.494814
O8    O     O_R   0.500000 0.319660 0.381240 -0.496614
O9    O     O_R   0.430260 0.500010 0.618770 -0.519101
O10   O     O_R   0.430270 0.500030 0.381200 -0.498896
O11   O     O_R   0.500000 0.680340 0.618760 -0.526187
O12   O     O_R   0.500000 0.680360 0.381190 -0.513876

loop_
_geom_bond_atom_site_label_1
_geom_bond_atom_site_label_2
_ccdc_geom_bond_type
C10   C27   A    
Cu2   N3    S    
C50   N4    A    
C8    C13   A    
Cu2   O12   S    
C22   C29   A    
C39   H4    S    
C35   C36   A    
C24   H17   S    
C26   C55   S    
C7    C8    A    
C39   C41   A    
C54   H1    S    
C31   C32   A    
C12   C23   A    
C26   C27   A    
C31   C58   S    
C7    H15   S    
C36   C37   A    
C58   H29   S    
C50   H10   S    
C1    O8    A    
C30   C31   A    
C19   N2    S    
Cu2   O8    S    
C28   O3    A    
C42   H6    S    
C18   C19   A    
C59   H25   S    
C55   H24   S    
C12   H35   S    
C13   O5    S    
C40   N1    A    
C53   C61   A    
C20   C24   A    
C45   C56   A    
C28   O2    A    
C8    C9    A    
C57   H19   S    
C25   C60   A    
Cu1   O1    S    
C9    C10   A    
C1    C37   S    
C40   O4    S    
Cu1   O11   S    
C15   H13   S    
C56   H11   S    
C49   H5    S    
C21   C22   A    
C34   C60   A    
C18   H31   S    
C2    C6    A    
C38   H33   S    
C16   O12   A    
C44   C46   A    
C25   C29   A    
C38   C39   A    
Cu2   O10   S    
C11   O7    S    
C4    O9    A    
C59   H27   S    
C21   C34   A    
C3    C5    A    
C58   C59   S    
C48   N3    A    
C2    C20   A    
C4    C61   S    
C53   H18   S    
C59   H26   S    
C43   C44   A    
C5    C9    A    
C37   C38   A    
C17   C62   A    
C25   I1    S    
C6    H16   S    
C47   C48   A    
C17   C18   A    
C57   H20   S    
C34   C45   A    
C42   C48   A    
C20   C21   A    
Cu1   O2    S    
C51   O6    S    
C55   C57   S    
C2    C5    A    
C24   C56   A    
C42   C43   A    
C16   O11   A    
C52   C53   A    
C33   H3    S    
Cu2   O3    S    
C32   H2    S    
C4    O10   A    
C46   C47   A    
C43   H7    S    
C47   N4    A    
C17   H23   S    
C14   C19   A    
C3    C26   A    
Cu1   N4    S    
C52   H12   S    
C49   N3    A    
C29   H32   S    
C6    C7    A    
C54   C61   A    
C51   N1    A    
C30   H34   S    
C30   C36   A    
C32   C33   A    
C55   H22   S    
C27   H30   S    
C23   C52   A    
C23   N1    S    
C33   C35   A    
C15   C62   A    
C57   H21   S    
C44   H8    S    
C11   N2    A    
C14   H14   S    
C35   C41   A    
C10   C11   A    
Cu1   Cu2   S    
Cu1   O9    S    
C40   C45   A    
C49   C50   A    
C14   C15   A    
C3    C22   A    
C51   C60   A    
C13   N2    A    
C58   H28   S    
C16   C41   S    
C46   H9    S    
C12   C54   A    
C1    O1    A    
C28   C62   S    
