data_mof_unit_51241.cif
_audit_creation_date              2012-12-11T14:08:19-0500
_audit_creation_method            fapswitch 2.2
_symmetry_space_group_name_H-M    P1
_symmetry_Int_Tables_number       1
_space_group_crystal_system       triclinic
_cell_length_a                    10.95441
_cell_length_b                    11.102338
_cell_length_c                    18.770238
_cell_angle_alpha                 89.88793
_cell_angle_beta                  89.33975
_cell_angle_gamma                 59.778745
_cell_volume                      1972.41421784

loop_
_atom_site_label
_atom_site_type_symbol
_atom_type_description
_atom_site_fract_x
_atom_site_fract_y
_atom_site_fract_z
_atom_type_partial_charge
C1    C     C_R   0.235898 0.645063 0.608404 0.598733
C2    C     C_3   0.678149 0.521775 0.814001 0.495568
C3    C     C_3   0.687959 0.659468 0.818136 0.083706
C4    C     C_3   0.643946 0.621793 0.685475 0.074750
C5    C     C_3   0.796528 0.599636 0.694478 -0.029729
C6    C     C_3   0.631921 0.514150 0.735213 -0.062921
C7    C     C_2   0.668938 0.174723 0.672454 -0.087876
C8    C     C_2   0.724517 0.071479 0.816291 -0.166452
C9    C     C_2   0.826607 0.070456 0.775531 -0.151374
C10   C     C_2   0.801251 0.112802 0.698973 0.239104
C11   C     C_2   0.173358 0.661811 0.679609 -0.058576
C12   C     C_R   0.627567 0.589535 0.609904 0.638469
C13   C     C_2   0.178012 0.671818 0.835584 -0.151654
C14   C     C_2   0.173883 0.570379 0.798633 -0.192379
C15   C     C_2   0.202169 0.550356 0.720989 0.224688
C16   C     C_2   0.661017 0.650741 0.320105 0.270772
C17   C     C_2   0.627013 0.668633 0.158424 -0.028544
C18   C     C_2   0.693464 0.555356 0.199426 0.107155
C19   C     C_2   0.647293 0.566280 0.273608 -0.100849
C20   C     C_2   0.684308 0.127175 0.336873 0.280325
C21   C     C_2   0.643797 0.155172 0.175517 0.127323
C22   C     C_2   0.639335 0.064352 0.221773 -0.062169
C23   C     C_R   0.628956 0.228019 0.601184 0.573302
C24   C     C_2   0.600922 0.099897 0.296008 0.083126
C25   C     C_2   0.187523 0.662475 0.327420 -0.079258
C26   C     C_2   0.186559 0.641892 0.171978 0.099184
C27   C     C_2   0.233297 0.713985 0.207749 -0.107712
C28   C     C_2   0.267220 0.688545 0.282115 -0.123643
C29   C     C_R   0.731677 0.038088 0.891122 0.552538
C30   C     C_R   0.718640 0.684119 0.891361 0.597483
C31   C     C_R   0.115101 0.708902 0.906456 0.550948
C32   C     C_R   0.672848 0.109961 0.102938 0.596623
C33   C     C_R   0.691646 0.689424 0.094803 0.574243
C34   C     C_R   0.225654 0.648165 0.400768 0.516157
C35   C     C_R   0.098575 0.705768 0.110631 0.569525
C36   C     C_R   0.645111 0.624002 0.394807 0.538336
C37   C     C_R   0.622957 0.221316 0.398101 0.563524
C38   C     C_3   0.547734 0.789831 0.791072 0.171420
C39   C     C_3   0.527720 0.775118 0.708566 0.546433
C40   C     C_3   0.813960 0.642658 0.770001 -0.098517
Cr1   Cr    Cr6+3 0.393010 0.398050 0.501480 1.055330
Cr2   Cr    Cr6+3 0.398820 0.707980 0.501630 1.047317
Cr3   Cr    Cr6+3 0.708140 0.393940 0.496850 1.013116
Cr4   Cr    Cr6+3 0.937950 0.938450 0.008940 0.996885
Cr5   Cr    Cr6+3 0.626180 0.937030 0.994750 0.985916
Cr6   Cr    Cr6+3 0.937790 0.625760 0.001410 1.002251
H1    H     H_    0.561355 0.880460 0.801046 0.120121
H2    H     H_    0.707492 0.408983 0.714476 0.124116
H3    H     H_    0.915106 0.556381 0.790756 0.170112
H4    H     H_    0.870480 0.485107 0.690891 0.126077
H5    H     H_    0.929673 0.037088 0.798008 0.139259
H6    H     H_    0.624627 0.095017 0.794790 0.094782
H7    H     H_    0.576912 0.206059 0.705526 0.058137
H8    H     H_    0.147764 0.500199 0.826151 0.146336
H9    H     H_    0.207552 0.741600 0.810385 0.146970
H10   H     H_    0.114830 0.766417 0.701316 0.066040
H11   H     H_    0.621442 0.489248 0.292763 0.090579
H12   H     H_    0.530454 0.758599 0.178387 0.081210
H13   H     H_    0.656086 0.964076 0.203538 0.146691
H14   H     H_    0.228973 0.806538 0.185593 0.128049
H15   H     H_    0.349696 0.706994 0.301228 0.136878
H16   H     H_    0.101708 0.647494 0.310587 0.110747
O1    O     O_R   0.507110 0.256280 0.580300 -0.505442
O2    O     O_R   0.524640 0.695370 0.425100 -0.511203
O3    O     O_R   0.735890 0.504390 0.415980 -0.524282
O4    O     O_R   0.690560 0.277820 0.422350 -0.512388
O5    O     O_3   0.499990 0.499990 0.499980 -0.292846
O6    O     O_R   0.089190 0.825870 0.932320 -0.525816
O7    O     O_R   0.819070 0.053960 0.931440 -0.523230
O8    O     O_R   0.607070 0.076440 0.916460 -0.536867
O9    O     O_R   0.647110 0.806550 0.917690 -0.530397
O10   O     O_R   0.837080 0.593860 0.915300 -0.543362
O11   O     O_R   0.064770 0.636080 0.932550 -0.513404
O12   O     O_R   0.280830 0.527190 0.577940 -0.445492
O13   O     O_R   0.068250 0.829200 0.092940 -0.521667
O14   O     O_R   0.799650 0.057040 0.080330 -0.486402
O15   O     O_R   0.586130 0.079760 0.077080 -0.531818
O16   O     O_R   0.627700 0.809630 0.066580 -0.518244
O17   O     O_R   0.816140 0.597180 0.075920 -0.475426
O18   O     O_R   0.045360 0.639170 0.081440 -0.493372
O19   O     O_3   0.833980 0.833750 0.001700 -0.274133
O20   O     O_R   0.261360 0.738990 0.584270 -0.499125
O21   O     O_R   0.532590 0.694780 0.574370 -0.412398
O22   O     O_R   0.744470 0.503750 0.577000 -0.534770
O23   O     O_R   0.698520 0.277230 0.571620 -0.501460
O24   O     O_R   0.498530 0.256920 0.419280 -0.489397
O25   O     O_R   0.272880 0.527780 0.428680 -0.489207
O26   O     O_R   0.252780 0.739630 0.423250 -0.536933
O27   O     O_3   0.915408 0.077176 0.653737 -0.565878
C41   C     C_3   0.962146 0.173530 0.662844 -0.127016
H17   H     H_    0.994201 0.176072 0.718615 0.105964
H18   H     H_    0.882453 0.278454 0.645266 0.162429
H19   H     H_    0.054005 0.143799 0.627047 0.103597
O28   O     O_3   0.274765 0.416319 0.691927 -0.528910
C42   C     C_3   0.221381 0.332089 0.717394 -0.135322
H20   H     H_    0.104722 0.389995 0.723211 0.096443
H21   H     H_    0.272089 0.282509 0.768492 0.102917
H22   H     H_    0.247227 0.248549 0.677770 0.123012
O29   O     O_3   0.430671 0.799294 0.830301 -0.543242
C43   C     C_3   0.351944 0.925866 0.868663 -0.087369
H23   H     H_    0.353806 0.016536 0.844584 0.059383
H24   H     H_    0.388208 0.911988 0.924515 0.163081
H25   H     H_    0.239844 0.952459 0.870439 0.130666
N1    N     N_3   0.817651 0.430407 0.175090 -0.580369
H26   H     H_    0.860185 0.359464 0.217029 0.238739
H27   H     H_    0.786295 0.384376 0.136308 0.244675
O30   O     O_3   0.705306 0.741994 0.296614 -0.602614
C44   C     C_3   0.784769 0.762552 0.348729 -0.130455
H28   H     H_    0.871657 0.661813 0.369229 0.125920
H29   H     H_    0.715312 0.828947 0.393006 0.134850
H30   H     H_    0.835065 0.817210 0.323492 0.149924
N2    N     N_3   0.471213 0.112005 0.321760 -0.611529
H31   H     H_    0.389084 0.186083 0.290585 0.240778
H32   H     H_    0.476663 0.016289 0.313643 0.248408
N3    N     N_3   0.607706 0.294727 0.193712 -0.664954
H33   H     H_    0.683458 0.289512 0.228519 0.261391
H34   H     H_    0.509654 0.343871 0.219928 0.248223
O31   O     O_3   0.817939 0.092432 0.310897 -0.607703
C45   C     C_3   0.921714 0.022869 0.363277 -0.104513
H35   H     H_    0.899988 0.954417 0.398274 0.084655
H36   H     H_    0.935171 0.098558 0.395838 0.159250
H37   H     H_    0.024110 0.955955 0.335755 0.154645
O32   O     O_3   0.393156 0.788003 0.697461 -0.516314
C46   C     C_3   0.282297 0.926102 0.689304 -0.039676
H38   H     H_    0.292486 0.970301 0.637956 0.152361
H39   H     H_    0.270881 0.993660 0.734842 0.078757
H40   H     H_    0.183137 0.923790 0.687985 0.161966
N4    N     N_3   0.214080 0.507473 0.196219 -0.639462
H41   H     H_    0.117325 0.512226 0.205142 0.251914
H42   H     H_    0.266883 0.435455 0.155209 0.239855
O33   O     O_3   0.546924 0.863610 0.659745 -0.565474
C47   C     C_3   0.523406 0.991655 0.685279 -0.168987
H43   H     H_    0.624776 0.974856 0.704697 0.154586
H44   H     H_    0.439568 0.041225 0.726309 0.065456
H45   H     H_    0.490773 0.063884 0.639708 0.180230
N5    N     N_3   0.824293 0.769531 0.770972 -0.679740
H46   H     H_    0.850674 0.783351 0.822332 0.237451
H47   H     H_    0.911198 0.753546 0.740507 0.232742
N6    N     N_3   0.839449 0.660601 0.636303 -0.569192
H48   H     H_    0.792846 0.768424 0.640393 0.292331
H49   H     H_    0.948994 0.617557 0.637311 0.225051
O34   O     O_3   0.816998 0.401455 0.821546 -0.639680
C48   C     C_3   0.857611 0.342888 0.890295 -0.086904
H50   H     H_    0.862986 0.240947 0.891061 0.139955
H51   H     H_    0.788640 0.408149 0.934806 0.175869
H52   H     H_    0.966174 0.322037 0.900289 0.121572
O35   O     O_3   0.578273 0.531686 0.867404 -0.544909
C49   C     C_3   0.563976 0.412263 0.873466 -0.101222
H53   H     H_    0.594670 0.368100 0.927719 0.144926
H54   H     H_    0.627829 0.330531 0.833931 0.138533
H55   H     H_    0.451647 0.442895 0.867070 0.136785
N7    N     N_3   0.492343 0.527945 0.729099 -0.603703
H56   H     H_    0.424208 0.595078 0.768010 0.314749
H57   H     H_    0.499354 0.431598 0.735797 0.231479

loop_
_geom_bond_atom_site_label_1
_geom_bond_atom_site_label_2
_ccdc_geom_bond_type
C48   H50   S    
C7    C10   D    
Cr5   O9    S    
C42   H20   S    
O35   C49   S    
C24   N2    S    
C49   H55   S    
C21   N3    S    
N4    H41   S    
C15   O28   S    
N2    H32   S    
C30   O9    A    
C42   H22   S    
O32   C46   S    
Cr1   O5    S    
C19   H11   S    
C25   C28   D    
Cr1   O24   S    
C40   N5    S    
C35   O13   A    
C26   C27   D    
C6    H2    S    
C1    O12   A    
C3    C30   S    
C49   H54   S    
C27   H14   S    
C16   C19   D    
C38   C39   S    
C33   O16   A    
C31   O11   A    
N3    H33   S    
C35   O18   A    
C39   O32   S    
C44   H28   S    
C12   O22   A    
C18   C19   S    
Cr4   O14   S    
O31   C45   S    
N2    H31   S    
C16   O30   S    
Cr1   O12   S    
C11   C15   D    
C20   C24   D    
C10   O27   S    
C8    C9    D    
N3    H34   S    
C9    H5    S    
O30   C44   S    
Cr5   O16   S    
C13   C14   D    
C4    C12   S    
C9    C10   S    
C8    H6    S    
Cr6   O10   S    
C25   C34   S    
C25   H16   S    
C6    N7    S    
C28   H15   S    
C47   H44   S    
C23   O1    A    
C32   O15   A    
Cr3   O4    S    
C21   C22   D    
Cr3   O22   S    
C2    C6    S    
C17   C33   S    
C20   O31   S    
N1    H26   S    
C5    N6    S    
C29   O7    A    
C45   H36   S    
C31   O6    A    
Cr1   O25   S    
C21   C32   S    
Cr3   O23   S    
C37   O24   A    
C49   H53   S    
C3    C38   S    
N5    H47   S    
Cr4   O19   S    
C48   H52   S    
C22   H13   S    
C36   O3    A    
C33   O17   A    
C26   N4    S    
C2    O35   S    
C43   H25   S    
C12   O21   A    
Cr4   O13   S    
Cr6   O19   S    
C41   H18   S    
O29   C43   S    
C4    C39   S    
Cr3   O3    S    
C37   O4    A    
C43   H24   S    
C17   C18   D    
C18   N1    S    
Cr4   O7    S    
C34   O26   A    
C38   H1    S    
C46   H40   S    
C4    C6    S    
C14   H8    S    
N7    H57   S    
C3    C40   S    
Cr2   O5    S    
C2    O34   S    
C22   C24   S    
C5    H4    S    
Cr4   O6    S    
Cr2   O26   S    
Cr1   O1    S    
O33   C47   S    
Cr2   O2    S    
N6    H48   S    
C41   H19   S    
C46   H39   S    
C29   O8    A    
C45   H37   S    
C48   H51   S    
Cr5   O8    S    
O34   C48   S    
C13   C31   S    
Cr5   O19   S    
Cr2   O21   S    
C38   O29   S    
N4    H42   S    
C32   O14   A    
C30   O10   A    
C45   H35   S    
C42   H21   S    
N1    H27   S    
C8    C29   S    
C17   H12   S    
C44   H30   S    
C2    C3    S    
C1    O20   A    
C16   C36   S    
Cr6   O18   S    
C20   C37   S    
N6    H49   S    
C41   H17   S    
Cr6   O17   S    
C39   O33   S    
C47   H45   S    
C7    C23   S    
C43   H23   S    
C44   H29   S    
C47   H43   S    
C34   O25   A    
O28   C42   S    
C26   C35   S    
C4    C5    S    
N7    H56   S    
Cr3   O5    S    
C23   O23   A    
C5    C40   S    
C27   C28   S    
C7    H7    S    
C14   C15   S    
N5    H46   S    
Cr5   O15   S    
C1    C11   S    
O27   C41   S    
C36   O2    A    
Cr6   O11   S    
C11   H10   S    
C40   H3    S    
Cr2   O20   S    
C46   H38   S    
C13   H9    S    
