data_mof_unit_49873.cif
_audit_creation_date              2012-12-10T19:34:13-0500
_audit_creation_method            fapswitch 2.2
_symmetry_space_group_name_H-M    P1
_symmetry_Int_Tables_number       1
_space_group_crystal_system       triclinic
_cell_length_a                    18.782165
_cell_length_b                    18.787274
_cell_length_c                    18.735706
_cell_angle_alpha                 109.269809
_cell_angle_beta                  109.982287
_cell_angle_gamma                 109.461843
_cell_volume                      5070.18949755

loop_
_atom_site_label
_atom_site_type_symbol
_atom_type_description
_atom_site_fract_x
_atom_site_fract_y
_atom_site_fract_z
_atom_type_partial_charge
C1    C     C_R   0.620558 0.620389 0.500836 0.930700
C2    C     C_3   0.180860 0.423562 0.207937 0.238880
C3    C     C_3   0.226351 0.486277 0.306973 0.149943
C4    C     C_3   0.314514 0.502274 0.312998 -0.166328
C5    C     C_R   0.696008 0.668446 0.429375 0.090824
C6    C     C_R   0.687695 0.687212 0.503026 -0.186635
C7    C     C_R   0.740152 0.772119 0.575652 -0.345932
C8    C     C_R   0.799637 0.838386 0.572708 0.473518
C9    C     C_R   0.811962 0.816633 0.500459 -0.181463
C10   C     C_R   0.757907 0.732508 0.427868 -0.126623
C11   C     C_3   0.693331 0.701376 0.334527 0.316147
C12   C     C_R   0.381214 0.501560 0.379334 0.909617
C13   C     C_3   0.625046 0.631743 0.337443 -0.156235
C14   C     C_R   0.750321 0.486866 0.674575 0.012593
C15   C     C_R   0.689190 0.504196 0.690008 -0.075024
C16   C     C_R   0.698632 0.530486 0.773649 -0.216506
C17   C     C_R   0.762544 0.528074 0.836736 -0.201339
C18   C     C_R   0.818041 0.501665 0.816631 -0.093002
C19   C     C_R   0.815677 0.487443 0.737351 -0.005298
C20   C     C_3   0.809826 0.411965 0.667273 0.561865
C21   C     C_3   0.736202 0.412249 0.599555 -0.408072
C22   C     C_R   0.299050 0.229729 0.466384 0.040292
C23   C     C_R   0.382195 0.380356 0.502955 0.896268
C24   C     C_R   0.320766 0.316478 0.509994 -0.188196
C25   C     C_R   0.279197 0.337351 0.559513 0.170104
C26   C     C_R   0.209414 0.268801 0.549931 -0.253394
C27   C     C_R   0.186197 0.182729 0.499865 -0.114652
C28   C     C_R   0.235966 0.166440 0.464153 0.030413
C29   C     C_3   0.242631 0.094519 0.408337 -0.146112
C30   C     C_3   0.314404 0.166411 0.407069 0.298913
C31   C     C_R   0.003974 0.619950 0.124113 0.938024
C32   C     C_R   0.124616 0.500694 0.125221 0.895724
C33   C     C_R   0.006362 0.379954 0.886226 0.870535
C34   C     C_R   0.620011 0.499535 0.621609 0.886537
C35   C     C_R   0.883011 0.498829 0.881494 0.859337
C36   C     C_R   0.000562 0.121058 0.619934 0.894393
C37   C     C_R   0.879430 0.880991 0.500516 0.943666
C38   C     C_R   0.997440 0.876845 0.380620 0.925100
C39   C     C_R   0.119735 0.115572 0.496285 0.920916
C40   C     C_R   0.976772 0.665757 0.246680 -0.080406
C41   C     C_R   0.007059 0.685443 0.193232 -0.139938
C42   C     C_R   0.040372 0.770448 0.206905 -0.306723
C43   C     C_R   0.031877 0.831701 0.264481 0.457634
C44   C     C_R   0.997344 0.810366 0.314967 -0.174624
C45   C     C_3   0.324557 0.579539 0.298873 0.527694
C46   C     C_R   0.972502 0.727803 0.307454 -0.234906
C47   C     C_3   0.886538 0.657188 0.287360 0.756374
C48   C     C_3   0.898993 0.587819 0.227906 0.542573
C49   C     C_R   0.056312 0.276911 0.840978 -0.035500
C50   C     C_R   0.006431 0.315110 0.819391 -0.040337
C51   C     C_R   0.969962 0.302267 0.734249 -0.244453
C52   C     C_R   0.969311 0.239990 0.668143 -0.211544
C53   C     C_R   0.008039 0.192059 0.688071 -0.071043
C54   C     C_R   0.056977 0.216047 0.775769 -0.011307
C55   C     C_3   0.061599 0.161484 0.817956 -0.574912
C56   C     C_3   0.236145 0.564722 0.292200 -0.346308
C57   C     C_3   0.058723 0.227472 0.890073 0.884001
C58   C     C_3   0.191693 0.501411 0.193127 -0.111683
C59   C     C_3   0.280441 0.518576 0.199667 -0.223176
C60   C     C_3   0.269628 0.439994 0.214331 -0.258556
H1    H     H_    0.220153 0.614758 0.321280 0.132851
H2    H     H_    0.712987 0.671825 0.289497 0.191202
H3    H     H_    0.568671 0.639936 0.335342 0.147354
H4    H     H_    0.654015 0.548131 0.788517 0.158718
H5    H     H_    0.767411 0.544730 0.900040 0.152330
H6    H     H_    0.753232 0.432881 0.555628 0.202659
H7    H     H_    0.669882 0.354689 0.564208 0.183627
H8    H     H_    0.174785 0.282616 0.583777 0.144467
H9    H     H_    0.182538 0.051359 0.343615 0.204959
H10   H     H_    0.067996 0.788084 0.169077 0.178924
H11   H     H_    0.302170 0.533790 0.155755 0.147725
H12   H     H_    0.939318 0.337592 0.717651 0.138983
H13   H     H_    0.936064 0.227440 0.601664 0.170783
H14   H     H_    0.002922 0.095280 0.777439 0.212031
H15   H     H_    0.124166 0.161095 0.838525 0.182526
H16   H     H_    0.286025 0.390334 0.186154 0.182014
H17   H     H_    0.731451 0.788307 0.632024 0.183141
O1    O     O_R   0.592030 0.539910 0.448670 -0.617387
O2    O     O_R   0.054880 0.643340 0.094730 -0.639322
O3    O     O_R   0.044460 0.448310 0.096120 -0.649778
O4    O     O_R   0.147900 0.551710 0.096100 -0.618964
O5    O     O_R   0.952840 0.356700 0.912890 -0.589476
O6    O     O_R   0.056280 0.460110 0.912860 -0.647078
O7    O     O_R   0.859820 0.448330 0.911520 -0.611213
O8    O     O_R   0.963270 0.551730 0.911500 -0.639759
O9    O     O_R   0.947110 0.091620 0.538800 -0.641462
O10   O     O_R   0.051340 0.091660 0.643070 -0.607099
O11   O     O_R   0.856270 0.908420 0.447910 -0.600333
O12   O     O_R   0.591210 0.643320 0.551340 -0.631459
O13   O     O_R   0.960500 0.908460 0.552180 -0.638318
O14   O     O_R   0.948660 0.908440 0.357030 -0.642041
O15   O     O_R   0.052890 0.908480 0.461300 -0.643994
O16   O     O_R   0.039500 0.091640 0.447920 -0.627694
O17   O     O_R   0.143730 0.091680 0.552190 -0.627892
O18   O     O_R   0.408090 0.448300 0.356360 -0.628650
O19   O     O_R   0.407280 0.551720 0.459030 -0.647491
O20   O     O_R   0.408790 0.356680 0.448660 -0.628439
O21   O     O_R   0.407970 0.460090 0.551330 -0.630829
O22   O     O_R   0.592720 0.448280 0.540970 -0.636538
O23   O     O_R   0.591910 0.551700 0.643640 -0.628525
O24   O     O_R   0.951440 0.539930 0.094760 -0.580847
Zn1   Zn    Zn3+2 0.500550 0.430950 0.431450 0.906193
Zn2   Zn    Zn3+2 0.499450 0.569050 0.568550 0.915910
Zn3   Zn    Zn3+2 0.934790 0.430980 0.003830 0.942219
Zn4   Zn    Zn3+2 0.072930 0.569070 0.003790 0.919573
Zn5   Zn    Zn3+2 0.930400 0.000020 0.430430 0.944342
Zn6   Zn    Zn3+2 0.069600 0.000080 0.569670 0.927712
C61   C     C_3   0.592967 0.536347 0.272582 -0.409811
C62   C     C_3   0.661265 0.507588 0.292206 -0.820683
H18   H     H_    0.720746 0.551885 0.296514 0.290327
H19   H     H_    0.679466 0.506902 0.354831 0.273985
H20   H     H_    0.633539 0.440618 0.238738 0.227739
H21   H     H_    0.536249 0.492430 0.272802 0.235768
H22   H     H_    0.568624 0.526912 0.205271 0.205122
O25   O     O_3   0.880044 0.433195 0.649776 -0.662113
C63   C     C_3   0.964498 0.486309 0.725469 0.062458
H23   H     H_    0.007848 0.463793 0.710097 0.167791
H24   H     H_    0.966303 0.479480 0.782273 0.155607
C64   C     C_3   0.001656 0.581708 0.747686 -0.321903
H25   H     H_    0.001086 0.585957 0.689724 0.225007
H26   H     H_    0.960814 0.607565 0.764125 0.223810
C65   C     C_3   0.095423 0.638530 0.825336 -0.939574
H27   H     H_    0.097535 0.636122 0.884429 0.279796
H28   H     H_    0.120542 0.707166 0.840014 0.254898
H29   H     H_    0.138584 0.615867 0.809715 0.254622
C66   C     C_3   0.783173 0.327252 0.673388 -0.423944
C67   C     C_3   0.693454 0.284622 0.665560 -0.909944
H30   H     H_    0.682054 0.333444 0.705171 0.275982
H31   H     H_    0.640008 0.247313 0.596114 0.249798
H32   H     H_    0.690334 0.237547 0.689546 0.263665
H33   H     H_    0.784499 0.278070 0.621640 0.223045
H34   H     H_    0.832597 0.343092 0.738066 0.183466
C68   C     C_3   0.307532 0.428491 0.626575 -0.362034
C69   C     C_3   0.260897 0.468844 0.584701 -0.845510
H35   H     H_    0.278976 0.477739 0.536810 0.274038
H36   H     H_    0.188718 0.426424 0.550887 0.252347
H37   H     H_    0.280400 0.533640 0.636170 0.236599
H38   H     H_    0.290999 0.425586 0.677571 0.183445
H39   H     H_    0.379671 0.471655 0.664443 0.217568
O26   O     O_3   0.404663 0.659141 0.346440 -0.676778
C70   C     C_3   0.413654 0.715355 0.425041 0.082384
H40   H     H_    0.390056 0.679793 0.456789 0.159603
H41   H     H_    0.375400 0.748045 0.410583 0.140706
C71   C     C_3   0.510232 0.784785 0.489839 -0.339176
H42   H     H_    0.550115 0.752694 0.498616 0.237084
H43   H     H_    0.533136 0.827125 0.463724 0.196513
C72   C     C_3   0.524380 0.841766 0.578870 -0.970273
H44   H     H_    0.485084 0.874604 0.571640 0.263263
H45   H     H_    0.594626 0.892463 0.623799 0.257528
H46   H     H_    0.505195 0.801604 0.608345 0.265147
C73   C     C_3   0.263787 0.040167 0.450645 -0.349790
C74   C     C_3   0.326270 0.089682 0.550424 -0.849041
H47   H     H_    0.302820 0.126858 0.586125 0.278498
H48   H     H_    0.329165 0.041808 0.572000 0.239692
H49   H     H_    0.393772 0.134760 0.570145 0.239201
H50   H     H_    0.200778 0.990913 0.437272 0.245519
H51   H     H_    0.288050 0.002442 0.416624 0.195786
C75   C     C_3   0.409085 0.180237 0.452990 -0.373602
C76   C     C_3   0.467689 0.208929 0.416131 -0.922210
H52   H     H_    0.437513 0.159810 0.346288 0.244850
H53   H     H_    0.481524 0.273471 0.422867 0.299910
H54   H     H_    0.531318 0.214063 0.453083 0.240932
H55   H     H_    0.444941 0.228985 0.524046 0.200115
H56   H     H_    0.405064 0.118294 0.447100 0.215088
C77   C     C_3   0.281830 0.156361 0.313403 -0.365612
C78   C     C_3   0.199483 0.163277 0.275212 -0.921283
H57   H     H_    0.142239 0.113865 0.269767 0.256541
H58   H     H_    0.212294 0.229316 0.316013 0.268195
H59   H     H_    0.181959 0.152493 0.208182 0.254607
H60   H     H_    0.333219 0.207238 0.313560 0.242626
H61   H     H_    0.269096 0.092200 0.267331 0.191598
O27   O     O_3   0.061180 0.913811 0.274050 -0.696629
C79   C     C_3   0.992736 0.916987 0.215051 0.081160
H62   H     H_    0.002487 0.983372 0.248442 0.175767
H63   H     H_    0.926260 0.870486 0.198063 0.146606
C80   C     C_3   0.997083 0.902151 0.131583 -0.386277
H64   H     H_    0.065405 0.943922 0.149481 0.237637
H65   H     H_    0.977087 0.832826 0.092106 0.216412
C81   C     C_3   0.936541 0.923623 0.075593 -0.958719
H66   H     H_    0.958337 0.994079 0.111286 0.264562
H67   H     H_    0.868051 0.884280 0.058555 0.267243
H68   H     H_    0.938313 0.908135 0.013948 0.272440
O28   O     O_3   0.886551 0.640959 0.356563 -0.715801
C82   C     C_3   0.932527 0.716031 0.439691 0.106975
H69   H     H_    0.895547 0.703736 0.473600 0.172488
H70   H     H_    0.935487 0.773846 0.435413 0.154718
C83   C     C_3   0.023621 0.730744 0.494214 -0.382921
H71   H     H_    0.016479 0.669967 0.495209 0.222978
H72   H     H_    0.064214 0.746116 0.464285 0.222295
C84   C     C_3   0.071200 0.804878 0.588522 -0.893549
H73   H     H_    0.085114 0.867759 0.590180 0.292054
H74   H     H_    0.134506 0.810078 0.626950 0.243097
H75   H     H_    0.031184 0.792308 0.619684 0.257676
O29   O     O_3   0.810926 0.663411 0.245485 -0.694376
C85   C     C_3   0.796676 0.674625 0.171098 0.048574
H76   H     H_    0.750427 0.611069 0.110201 0.181646
H77   H     H_    0.855860 0.703868 0.167318 0.148506
C86   C     C_3   0.752783 0.729976 0.169023 -0.334084
H78   H     H_    0.692256 0.700168 0.171321 0.244748
H79   H     H_    0.797511 0.796450 0.226982 0.256987
C87   C     C_3   0.727494 0.735897 0.085423 -1.006597
H80   H     H_    0.785241 0.760810 0.077690 0.263810
H81   H     H_    0.700883 0.780785 0.088507 0.271388
H82   H     H_    0.676406 0.670548 0.027172 0.266820
C88   C     C_3   0.930137 0.535818 0.268847 -0.421166
C89   C     C_3   0.958687 0.480472 0.218641 -0.812178
H83   H     H_    0.962699 0.434015 0.241666 0.222687
H84   H     H_    0.910853 0.440788 0.147463 0.290102
H85   H     H_    0.023979 0.522818 0.230574 0.258935
H86   H     H_    0.986454 0.581382 0.337112 0.195712
H87   H     H_    0.876980 0.492451 0.273489 0.209192
O30   O     O_3   0.830997 0.534635 0.138145 -0.642798
C90   C     C_3   0.751929 0.473696 0.126138 0.109108
H88   H     H_    0.697268 0.479294 0.085948 0.153441
H89   H     H_    0.751152 0.485554 0.187973 0.139110
C91   C     C_3   0.731237 0.379833 0.075575 -0.360221
H90   H     H_    0.743146 0.371120 0.019900 0.238685
H91   H     H_    0.773815 0.365659 0.119667 0.210425
C92   C     C_3   0.636148 0.314162 0.040041 -0.974628
H92   H     H_    0.622698 0.321938 0.094648 0.262791
H93   H     H_    0.623916 0.246872 0.005802 0.266628
H94   H     H_    0.590735 0.323516 0.992567 0.266325
O31   O     O_3   0.978531 0.191817 0.888887 -0.657304
C93   C     C_3   0.975480 0.138167 0.927486 0.102654
H95   H     H_    0.969374 0.167727 0.985345 0.170182
H96   H     H_    0.034433 0.130690 0.949824 0.161417
C94   C     C_3   0.894371 0.047750 0.862855 -0.392097
H97   H     H_    0.835128 0.054040 0.838673 0.236714
H98   H     H_    0.901123 0.015002 0.806425 0.254314
C95   C     C_3   0.883282 0.991308 0.905360 -0.966357
H99   H     H_    0.941269 0.982974 0.928228 0.266356
H100  H     H_    0.824055 0.926022 0.856599 0.271506
H101  H     H_    0.875491 0.021739 0.961951 0.267322
O32   O     O_3   0.132978 0.274423 0.976758 -0.689888
C96   C     C_3   0.215825 0.319600 0.985695 0.020037
H102  H     H_    0.245525 0.389605 0.032932 0.174189
H103  H     H_    0.214123 0.316146 0.924778 0.129773
C97   C     C_3   0.274644 0.285252 0.021898 -0.332355
H104  H     H_    0.267180 0.275237 0.074654 0.226673
H105  H     H_    0.254535 0.221018 0.968991 0.204992
C98   C     C_3   0.370860 0.348187 0.058293 -0.977919
H106  H     H_    0.380117 0.357836 0.006044 0.266141
H107  H     H_    0.411602 0.321137 0.083192 0.265450
H108  H     H_    0.393244 0.412176 0.113348 0.258230
C99   C     C_3   0.097200 0.334523 0.152407 -0.352542
C100  C     C_3   0.110986 0.267583 0.175013 -0.920188
H109  H     H_    0.161506 0.258190 0.161984 0.267607
H110  H     H_    0.131542 0.289029 0.244844 0.267591
H111  H     H_    0.048822 0.204086 0.134331 0.244548
H112  H     H_    0.043863 0.340534 0.161735 0.206178
H113  H     H_    0.076945 0.312114 0.082589 0.252130
C101  C     C_3   0.208168 0.474157 0.377076 -0.393496
C102  C     C_3   0.118910 0.460470 0.362104 -0.896070
H114  H     H_    0.112446 0.516078 0.358961 0.265838
H115  H     H_    0.066452 0.398066 0.301286 0.263476
H116  H     H_    0.112200 0.457310 0.417764 0.254566
H117  H     H_    0.214198 0.418174 0.379735 0.199428
H118  H     H_    0.258454 0.534093 0.441504 0.213198
O33   O     O_3   0.838351 0.925341 0.634298 -0.661124
C103  C     C_3   0.772319 0.948047 0.627899 0.018919
H119  H     H_    0.752815 0.940543 0.675820 0.156947
H120  H     H_    0.712264 0.906923 0.561241 0.127091
C104  C     C_3   0.807666 0.042548 0.648263 -0.323501
H121  H     H_    0.867159 0.086241 0.714198 0.256793
H122  H     H_    0.825145 0.049035 0.598909 0.226238
C105  C     C_3   0.740220 0.071139 0.646058 -0.943767
H123  H     H_    0.680065 0.029445 0.580104 0.257655
H124  H     H_    0.768172 0.139873 0.660756 0.278010
H125  H     H_    0.722864 0.066753 0.696096 0.263467
O34   O     O_3   0.676411 0.764948 0.318858 -0.617680
C106  C     C_3   0.636171 0.799140 0.361102 0.145833
H126  H     H_    0.675600 0.871447 0.395845 0.156570
H127  H     H_    0.634096 0.782824 0.412336 0.071203
C107  C     C_3   0.543523 0.769841 0.292452 -0.349254
H128  H     H_    0.502672 0.697637 0.257007 0.231817
H129  H     H_    0.512743 0.797694 0.325768 0.192778
C108  C     C_3   0.544267 0.799751 0.226023 -0.814247
H130  H     H_    0.584745 0.871914 0.260026 0.242648
H131  H     H_    0.476304 0.779482 0.179309 0.233145
H132  H     H_    0.570810 0.769714 0.188205 0.281381

loop_
_geom_bond_atom_site_label_1
_geom_bond_atom_site_label_2
_ccdc_geom_bond_type
C77   H61   S    
C106  C107  S    
C99   H112  S    
C66   C67   S    
C56   H1    S    
C21   H6    S    
C104  C105  S    
C107  C108  S    
C87   H81   S    
C41   C42   A    
C47   O29   S    
C72   H44   S    
C91   C92   S    
C32   C58   S    
C43   C44   A    
C11   H2    S    
C93   H95   S    
C69   H37   S    
C57   O32   S    
C108  H131  S    
C101  H118  S    
C7    C8    A    
C31   C41   S    
C90   H88   S    
C61   C62   S    
C40   C46   A    
C32   O4    A    
C97   C98   S    
C59   H11   S    
C26   C27   A    
C77   C78   S    
C37   O13   A    
O3    Zn3   S    
C33   C50   S    
C5    C6    A    
C73   H51   S    
C14   C21   S    
C28   C29   S    
C72   H45   S    
C2    C99   S    
C91   H91   S    
O13   Zn6   S    
C18   C19   A    
C13   C61   S    
C102  H114  S    
C89   H84   S    
C90   C91   S    
O1    Zn1   S    
C88   H87   S    
C20   O25   S    
O21   Zn2   S    
C38   O15   A    
C42   H10   S    
C49   C57   S    
C63   H23   S    
O2    Zn4   S    
C95   H101  S    
C106  H127  S    
C98   H106  S    
C87   H80   S    
C61   H22   S    
C29   H9    S    
C40   C48   S    
C39   O16   A    
C83   C84   S    
C36   C53   S    
C37   O11   A    
C84   H75   S    
C97   H104  S    
C55   H14   S    
C80   C81   S    
C45   C59   S    
C76   H52   S    
C45   C56   S    
C27   C39   S    
C16   C17   A    
C48   C88   S    
C34   O23   A    
C73   C74   S    
C76   H53   S    
C12   O18   A    
C86   H78   S    
C107  H128  S    
C4    C12   S    
C25   C68   S    
C33   O5    A    
C100  H109  S    
C15   C34   S    
C5    C13   S    
O20   Zn1   S    
O18   Zn1   S    
C75   H56   S    
O33   C103  S    
C7    H17   S    
C85   C86   S    
C55   H15   S    
C106  H126  S    
C79   H63   S    
O29   C85   S    
C99   H113  S    
C59   C60   S    
C22   C28   A    
C108  H130  S    
O12   Zn2   S    
C78   H58   S    
C1    O1    A    
C96   H103  S    
O14   Zn5   S    
C23   O21   A    
O9    Zn5   S    
C2    C60   S    
C71   C72   S    
O8    Zn4   S    
C14   C19   A    
C9    C10   A    
C53   C54   A    
C103  C104  S    
C101  H117  S    
C34   O22   A    
C97   H105  S    
C4    C45   S    
C64   H26   S    
C36   O10   A    
C100  H110  S    
O17   Zn6   S    
C15   C16   A    
C51   C52   A    
O19   Zn2   S    
C47   C48   S    
C48   O30   S    
C104  H121  S    
C72   H46   S    
C24   C25   A    
C18   C35   S    
O31   C93   S    
C71   H43   S    
C52   H13   S    
C105  H123  S    
C62   H20   S    
C92   H92   S    
C102  H115  S    
C89   H83   S    
C8    C9    A    
C69   H36   S    
C85   H76   S    
C44   C46   A    
C36   O9    A    
C25   C26   A    
C79   H62   S    
C38   O14   A    
C60   H16   S    
O23   Zn2   S    
C3    C4    S    
C1    C6    S    
C98   H107  S    
C70   H41   S    
C61   H21   S    
O28   C82   S    
C67   H31   S    
C39   O17   A    
C38   C44   S    
C29   C30   S    
C35   O7    A    
O16   Zn5   S    
C32   O3    A    
O32   C96   S    
O11   Zn5   S    
C3    C56   S    
O15   Zn6   S    
C94   H97   S    
C13   H3    S    
C74   H49   S    
C66   H34   S    
C96   H102  S    
C91   H90   S    
C4    C60   S    
C86   C87   S    
C9    C37   S    
C17   C18   A    
C76   H54   S    
C50   C51   A    
C46   C47   S    
C73   H50   S    
O26   C70   S    
C95   H100  S    
C33   O6    A    
C47   O28   S    
C90   H89   S    
C6    C7    A    
C105  H124  S    
C75   H55   S    
C63   H24   S    
C82   C83   S    
C103  H120  S    
C80   H64   S    
C94   H98   S    
C29   C73   S    
C68   H39   S    
O24   Zn3   S    
C55   C57   S    
C75   C76   S    
C78   H57   S    
O7    Zn3   S    
C96   C97   S    
C22   C24   A    
C70   C71   S    
C84   H73   S    
C42   C43   A    
C65   H28   S    
C67   H30   S    
C93   C94   S    
C31   O24   A    
O27   C79   S    
C57   O31   S    
C79   C80   S    
C77   H60   S    
C30   C75   S    
O4    Zn4   S    
C88   C89   S    
C54   C55   S    
C40   C41   A    
C1    O12   A    
C22   C30   S    
C87   H82   S    
C23   O20   A    
C20   C21   S    
O34   C106  S    
C64   C65   S    
C84   H74   S    
C30   C77   S    
C74   H48   S    
C71   H42   S    
C105  H125  S    
C93   H96   S    
C102  H116  S    
C86   H79   S    
C64   H25   S    
C2    C58   S    
C31   O2    A    
C69   H35   S    
C43   O27   S    
C19   C20   S    
C17   H5    S    
C82   H70   S    
C63   C64   S    
C98   H108  S    
C26   H8    S    
C81   H68   S    
C8    O33   S    
C62   H19   S    
C2    C3    S    
C58   C59   S    
C67   H32   S    
C5    C10   A    
C104  H122  S    
C70   H40   S    
C103  H119  S    
C92   H94   S    
C11   C13   S    
C89   H85   S    
O25   C63   S    
C68   C69   S    
C66   H33   S    
C65   H29   S    
C80   H65   S    
C11   O34   S    
C56   C58   S    
C20   C66   S    
C107  H129  S    
C3    C101  S    
C45   O26   S    
C95   H99   S    
C83   H72   S    
C10   C11   S    
C88   H86   S    
C23   C24   S    
C81   H66   S    
C35   O8    A    
O6    Zn4   S    
C68   H38   S    
C94   C95   S    
O10   Zn6   S    
O30   C90   S    
C83   H71   S    
C78   H59   S    
C49   C50   A    
C51   H12   S    
C108  H132  S    
C62   H18   S    
C27   C28   A    
O5    Zn3   S    
C14   C15   A    
C12   O19   A    
C82   H69   S    
C74   H47   S    
C16   H4    S    
C85   H77   S    
C65   H27   S    
C99   C100  S    
C92   H93   S    
C21   H7    S    
O22   Zn1   S    
C49   C54   A    
C52   C53   A    
C101  C102  S    
C81   H67   S    
C100  H111  S    
