data_mof_unit_21893.cif
_audit_creation_date              2012-12-11T16:04:45-0500
_audit_creation_method            fapswitch 2.2
_symmetry_space_group_name_H-M    P1
_symmetry_Int_Tables_number       1
_space_group_crystal_system       triclinic
_cell_length_a                    19.750307
_cell_length_b                    19.977037
_cell_length_c                    20.073232
_cell_angle_alpha                 107.403794
_cell_angle_beta                  110.601291
_cell_angle_gamma                 110.058602
_cell_volume                      6118.89683912

loop_
_atom_site_label
_atom_site_type_symbol
_atom_type_description
_atom_site_fract_x
_atom_site_fract_y
_atom_site_fract_z
_atom_type_partial_charge
C1    C     C_R   0.070702 0.333562 0.032174 0.529103
C2    C     C_R   0.068689 0.500401 0.228200 0.544488
C3    C     C_3   0.902692 0.932424 0.701144 0.130646
C4    C     C_3   0.978455 0.939459 0.692435 -0.282874
C5    C     C_3   0.951898 0.875017 0.609805 -1.006369
C6    C     C_3   0.180458 0.539929 0.808704 0.169511
C7    C     C_3   0.167868 0.457585 0.803453 -0.335573
C8    C     C_3   0.206019 0.424241 0.757541 -0.995719
C9    C     C_R   0.199888 0.735746 0.166389 0.582052
C10   C     C_R   0.931134 0.466930 0.764627 0.004577
C11   C     C_R   0.806817 0.473425 0.042659 -0.129066
C12   C     C_R   0.228190 0.742011 0.243617 -0.107414
C13   C     C_R   0.785304 0.528643 0.028114 0.094504
C14   C     C_R   0.997387 0.453443 0.227460 -0.080575
C15   C     C_R   0.997030 0.724843 0.948321 0.057742
C16   C     C_3   0.551406 0.539666 0.032547 -0.145254
C17   C     C_3   0.529166 0.532072 0.097545 -0.222649
C18   C     C_R   0.000775 0.484198 0.756999 -0.118155
C19   C     C_1   0.365769 0.579459 0.080893 -0.027735
C20   C     C_1   0.744667 0.561970 0.061233 -0.051219
C21   C     C_3   0.535994 0.611815 0.041217 -0.150554
C22   C     C_R   0.768998 0.275325 0.843717 -0.138353
C23   C     C_3   0.514223 0.604416 0.106293 0.173772
C24   C     C_3   0.629293 0.672621 0.108273 -0.229109
C25   C     C_3   0.643782 0.599989 0.099605 0.178827
C26   C     C_3   0.605646 0.663885 0.172236 0.044893
C27   C     C_3   0.621224 0.592688 0.163394 0.042893
C28   C     C_1   0.435816 0.596230 0.098065 -0.056085
C29   C     C_R   0.723149 0.273827 0.773643 0.093903
C30   C     C_1   0.704172 0.584389 0.083733 -0.064660
C31   C     C_3   0.920624 0.344080 0.471626 -0.441255
C32   C     C_3   0.073093 0.443756 0.550720 -0.477031
C33   C     C_3   0.071934 0.437442 0.471726 -0.508233
C34   C     C_R   0.232784 0.575931 0.007928 -0.100845
C35   C     C_1   0.991664 0.427609 0.283923 -0.026977
C36   C     C_3   0.987979 0.431404 0.542393 0.183353
C37   C     C_3   0.917067 0.337395 0.391424 -0.367670
C38   C     C_3   0.985413 0.418278 0.408449 0.235706
C39   C     C_3   0.968294 0.488041 0.442348 0.361017
C40   C     C_R   0.279735 0.551899 0.052737 -0.004568
C41   C     C_3   0.974968 0.498763 0.524445 0.368231
C42   C     C_1   0.987000 0.415405 0.336749 -0.070698
C43   C     C_1   0.991914 0.442861 0.617955 -0.067600
C44   C     C_1   0.996537 0.460431 0.681790 0.007341
C45   C     C_3   0.427544 0.929652 0.526261 -0.372120
C46   C     C_R   0.768989 0.343615 0.774795 -0.136892
C47   C     C_3   0.349470 0.999661 0.484039 0.456303
C48   C     C_3   0.421837 0.081073 0.561682 -0.468536
C49   C     C_1   0.640685 0.212913 0.713246 -0.072503
C50   C     C_3   0.386820 0.946584 0.456223 0.048321
C51   C     C_R   0.202911 0.665378 0.235312 -0.227124
C52   C     C_3   0.499835 0.010059 0.602157 -0.532239
C53   C     C_3   0.506518 0.082704 0.586136 0.179583
C54   C     C_3   0.526507 0.074998 0.516616 0.313008
C55   C     C_3   0.452348 0.996701 0.438275 0.219144
C56   C     C_1   0.575670 0.156388 0.658084 0.019031
C57   C     C_1   0.324160 0.871760 0.382894 -0.018582
C58   C     C_R   0.232432 0.506376 0.075478 -0.012110
C59   C     C_1   0.278634 0.811904 0.319539 -0.025837
C60   C     C_3   0.079852 0.049580 0.932079 -0.498048
C61   C     C_3   0.920809 0.971410 0.837088 1.046154
C62   C     C_R   0.806719 0.543124 0.973215 -0.134716
C63   C     C_3   0.925425 0.892551 0.833406 -0.686429
C64   C     C_1   0.995407 0.784232 0.925220 -0.052111
C65   C     C_3   0.996384 0.044296 0.921687 0.217226
C66   C     C_3   0.079333 0.971791 0.930620 -0.443555
C67   C     C_3   0.994134 0.911895 0.916123 0.304144
C68   C     C_3   0.977106 0.950870 0.985105 0.112289
C69   C     C_3   0.986608 0.033037 0.991668 -0.487754
C70   C     C_R   0.071170 0.533485 0.834586 0.543033
C71   C     C_1   0.994385 0.839272 0.914639 -0.079956
C72   C     C_1   0.000178 0.120554 0.932557 0.007937
C73   C     C_R   0.929158 0.428247 0.156167 -0.240543
C74   C     C_1   0.001849 0.183535 0.950988 0.017018
C75   C     C_R   0.931875 0.264275 0.962911 -0.004006
C76   C     C_R   0.001868 0.257035 0.978898 -0.103623
C77   C     C_3   0.171494 0.326887 0.126790 0.106390
C78   C     C_3   0.180457 0.383078 0.204621 -0.260316
C79   C     C_3   0.209706 0.360662 0.271461 -1.011138
C80   C     C_3   0.174890 0.560884 0.363661 0.152478
C81   C     C_3   0.154458 0.628772 0.391512 -0.359576
C82   C     C_3   0.196126 0.673869 0.483540 -0.995923
C83   C     C_3   0.229979 0.869285 0.193785 0.182377
C84   C     C_R   0.067335 0.723891 0.992447 -0.098930
C85   C     C_3   0.150975 0.859599 0.198062 -0.360675
C86   C     C_3   0.160715 0.941956 0.242748 -1.029991
C87   C     C_3   0.836524 0.450198 0.505095 0.260891
C88   C     C_3   0.775925 0.480504 0.508531 -0.268287
C89   C     C_3   0.690682 0.411229 0.480150 -1.060175
C90   C     C_3   0.891818 0.524793 0.354675 0.214841
C91   C     C_3   0.900630 0.601826 0.412359 -0.268386
C92   C     C_3   0.904202 0.660766 0.378097 -1.042750
C93   C     C_3   0.207958 0.936149 0.445110 0.190781
C94   C     C_3   0.145534 0.890253 0.465475 -0.254298
C95   C     C_R   0.928543 0.655767 0.926481 -0.145062
C96   C     C_3   0.056618 0.865806 0.406397 -1.036448
C97   C     C_3   0.515154 0.913926 0.421026 0.232100
C98   C     C_3   0.571661 0.906124 0.386851 -0.272014
C99   C     C_3   0.616042 0.863852 0.418814 -1.043579
C100  C     C_3   0.588784 0.158277 0.469918 0.204532
C101  C     C_3   0.679468 0.220726 0.536588 -0.287801
C102  C     C_3   0.736626 0.237229 0.501411 -1.079853
C103  C     C_3   0.771511 0.913856 0.763979 0.205208
C104  C     C_3   0.743762 0.961330 0.723946 -0.246886
C105  C     C_3   0.661622 0.904806 0.643356 -1.086921
H1    H     H_    0.798249 0.583372 0.949499 0.102616
H2    H     H_    0.927040 0.286885 0.364135 0.161123
H3    H     H_    0.701934 0.198658 0.579757 0.197491
H4    H     H_    0.735212 0.180683 0.468379 0.275702
H5    H     H_    0.801867 0.282803 0.551145 0.275348
H6    H     H_    0.716548 0.261000 0.459229 0.269880
H7    H     H_    0.723613 0.883792 0.778011 0.119281
H8    H     H_    0.772076 0.863761 0.722093 0.061627
H9    H     H_    0.735454 0.005126 0.765086 0.195162
H10   H     H_    0.792278 0.996437 0.713254 0.218303
H11   H     H_    0.668590 0.860637 0.601128 0.274705
H12   H     H_    0.643863 0.940892 0.615523 0.267662
H13   H     H_    0.937247 0.299777 0.484807 0.185251
H14   H     H_    0.610986 0.871446 0.652858 0.275805
H15   H     H_    0.864047 0.942945 0.654318 0.139019
H16   H     H_    0.862186 0.869790 0.686624 0.082482
H17   H     H_    0.014122 0.000539 0.699826 0.208594
H18   H     H_    0.020539 0.932622 0.740474 0.190886
H19   H     H_    0.917955 0.813370 0.601960 0.268320
H20   H     H_    0.008123 0.882260 0.605171 0.270786
H21   H     H_    0.910805 0.881464 0.560614 0.266689
H22   H     H_    0.097677 0.000967 0.081812 0.102097
H23   H     H_    0.027969 0.910231 0.063846 0.110448
H24   H     H_    0.125544 0.503954 0.602549 0.158973
H25   H     H_    0.883524 0.842207 0.959706 0.095588
H26   H     H_    0.881445 0.923896 0.010740 0.112237
H27   H     H_    0.248649 0.580958 0.837006 0.133131
H28   H     H_    0.152660 0.536372 0.748466 0.107883
H29   H     H_    0.198097 0.464749 0.865255 0.218108
H30   H     H_    0.100342 0.412554 0.771981 0.194355
H31   H     H_    0.176589 0.415846 0.695108 0.260939
H32   H     H_    0.195308 0.364636 0.753950 0.273030
H33   H     H_    0.274462 0.466368 0.789339 0.263298
H34   H     H_    0.816862 0.171052 0.874606 0.112425
H35   H     H_    0.085214 0.397021 0.562961 0.193633
H36   H     H_    0.823381 0.223280 0.964036 0.100542
H37   H     H_    0.085547 0.389006 0.447040 0.197708
H38   H     H_    0.122333 0.495461 0.485456 0.159567
H39   H     H_    0.743060 0.237578 0.866892 0.091054
H40   H     H_    0.035455 0.556030 0.570694 0.034254
H41   H     H_    0.857887 0.324909 0.464399 0.150995
H42   H     H_    0.854023 0.322615 0.347306 0.184409
H43   H     H_    0.865461 0.382739 0.132461 0.135482
H44   H     H_    0.019734 0.545630 0.455373 -0.023728
H45   H     H_    0.488870 0.016235 0.653878 0.203137
H46   H     H_    0.380205 0.899343 0.540886 0.219656
H47   H     H_    0.323048 0.015693 0.435984 -0.043151
H48   H     H_    0.425177 0.133014 0.550323 0.166367
H49   H     H_    0.257746 0.625097 0.995649 0.165459
H50   H     H_    0.409388 0.088635 0.612631 0.193954
H51   H     H_    0.419017 0.017597 0.399269 0.102791
H52   H     H_    0.585141 0.071898 0.535565 0.036879
H53   H     H_    0.449689 0.886720 0.509955 0.142054
H54   H     H_    0.129555 0.762376 0.005983 0.159945
H55   H     H_    0.559408 0.009100 0.619167 0.168199
H56   H     H_    0.089926 0.943069 0.881356 0.174570
H57   H     H_    0.089209 0.057693 0.882927 0.197791
H58   H     H_    0.743184 0.366540 0.736352 0.092955
H59   H     H_    0.940971 0.866337 0.787908 0.169290
H60   H     H_    0.863880 0.843911 0.816244 0.170469
H61   H     H_    0.042230 0.084066 0.050743 0.156908
H62   H     H_    0.932299 0.038230 0.992029 0.192425
H63   H     H_    0.133521 0.103041 0.990573 0.179188
H64   H     H_    0.132458 0.987203 0.987803 0.167510
H65   H     H_    0.864458 0.632729 0.881993 0.099819
H66   H     H_    0.257079 0.493116 0.124063 0.137752
H67   H     H_    0.221248 0.650362 0.283219 0.188562
H68   H     H_    0.232030 0.328667 0.141502 0.143353
H69   H     H_    0.124629 0.262948 0.103923 0.096801
H70   H     H_    0.226237 0.446828 0.225864 0.224257
H71   H     H_    0.118991 0.378104 0.191917 0.206120
H72   H     H_    0.164164 0.297378 0.251739 0.263106
H73   H     H_    0.214729 0.402067 0.326475 0.273578
H74   H     H_    0.272012 0.366611 0.286905 0.263181
H75   H     H_    0.243829 0.588158 0.398888 0.140491
H76   H     H_    0.798334 0.449622 0.082629 0.102027
H77   H     H_    0.149631 0.513270 0.379562 0.113213
H78   H     H_    0.176357 0.673419 0.371154 0.208004
H79   H     H_    0.086007 0.602915 0.365326 0.188144
H80   H     H_    0.174958 0.631447 0.506452 0.255624
H81   H     H_    0.179058 0.721137 0.501233 0.269710
H82   H     H_    0.265227 0.703818 0.511952 0.265662
H83   H     H_    0.242703 0.909541 0.166424 0.134166
H84   H     H_    0.286577 0.901750 0.254370 0.120189
H85   H     H_    0.096094 0.826703 0.136019 0.216831
H86   H     H_    0.138277 0.824248 0.229893 0.190044
H87   H     H_    0.488473 0.474870 0.093769 0.127213
H88   H     H_    0.215747 0.976919 0.304917 0.258380
H89   H     H_    0.103948 0.933177 0.246840 0.275025
H90   H     H_    0.168860 0.977157 0.209802 0.268224
H91   H     H_    0.638143 0.578466 0.262899 0.111606
H92   H     H_    0.668575 0.529448 0.206636 0.098712
H93   H     H_    0.815988 0.382326 0.671593 0.110641
H94   H     H_    0.823482 0.470487 0.728263 0.103466
H95   H     H_    0.698889 0.761705 0.280661 0.109364
H96   H     H_    0.614825 0.769957 0.236041 0.106009
H97   H     H_    0.840299 0.418726 0.542212 0.106452
H98   H     H_    0.529207 0.488208 0.974071 0.121748
H99   H     H_    0.810753 0.407325 0.440965 0.138587
H100  H     H_    0.802098 0.526412 0.571775 0.209531
H101  H     H_    0.767844 0.509722 0.469394 0.195995
H102  H     H_    0.663490 0.363938 0.417322 0.269179
H103  H     H_    0.647586 0.434929 0.481264 0.277433
H104  H     H_    0.696760 0.383742 0.520984 0.277458
H105  H     H_    0.832291 0.494280 0.296493 0.117092
H106  H     H_    0.942489 0.539926 0.339837 0.084893
H107  H     H_    0.846347 0.585357 0.421827 0.205582
H108  H     H_    0.958587 0.632495 0.471979 0.207483
H109  H     H_    0.671108 0.730294 0.113623 0.124443
H110  H     H_    0.959827 0.680234 0.370774 0.275827
H111  H     H_    0.908761 0.715078 0.420322 0.278455
H112  H     H_    0.846829 0.631792 0.318441 0.275519
H113  H     H_    0.190814 0.895947 0.382791 0.109170
H114  H     H_    0.204462 0.991299 0.447701 0.102388
H115  H     H_    0.148171 0.834855 0.462819 0.201160
H116  H     H_    0.162488 0.929432 0.527973 0.203670
H117  H     H_    0.052857 0.920158 0.406883 0.269323
H118  H     H_    0.013276 0.835632 0.424686 0.279736
H119  H     H_    0.036720 0.823045 0.344052 0.272313
H120  H     H_    0.499337 0.618961 0.990107 0.118714
H121  H     H_    0.466230 0.851891 0.400675 0.118514
H122  H     H_    0.554168 0.946737 0.487983 0.075238
H123  H     H_    0.533532 0.870793 0.319639 0.209126
H124  H     H_    0.619318 0.967554 0.404068 0.194023
H125  H     H_    0.657066 0.899842 0.485675 0.274245
H126  H     H_    0.655420 0.858137 0.391813 0.272825
H127  H     H_    0.569679 0.802233 0.402389 0.273664
H128  H     H_    0.566607 0.183537 0.430025 0.126328
H129  H     H_    0.584523 0.102115 0.430835 0.121417
H130  H     H_    0.682303 0.277893 0.570272 0.198980
N1    N     N_R   0.043550 0.386750 0.043430 -0.108952
N2    N     N_R   0.843320 0.343600 0.886740 -0.038372
N3    N     N_R   0.156920 0.543410 0.000250 -0.056572
N4    N     N_R   0.843210 0.386780 0.843560 -0.041729
N5    N     N_R   0.157030 0.500230 0.043430 -0.054903
N6    N     N_R   0.043140 0.543420 0.886740 -0.095313
N7    N     N_R   0.957090 0.343580 0.000250 -0.087176
N8    N     N_R   0.156790 0.613220 0.156440 -0.068085
N9    N     N_3   0.669780 0.584261 0.230953 -0.218073
N10   N     N_3   0.852049 0.445336 0.702117 -0.204056
N11   N     N_3   0.633548 0.730242 0.249076 -0.216653
N12   N     N_R   0.842970 0.499770 0.956570 -0.041557
N13   N     N_3   0.035652 0.965021 0.064869 -0.222909
N14   N     N_3   0.891044 0.897957 0.963735 -0.198434
N15   N     N_3   0.852655 0.199604 0.937685 -0.202566
N16   N     N_R   0.956860 0.456580 0.113260 -0.065114
N17   N     N_R   0.042910 0.656420 0.999750 -0.049125
N18   N     N_R   0.956450 0.613250 0.956570 -0.047473
N19   N     N_R   0.043310 0.499740 0.156440 -0.086738
N20   N     N_R   0.156680 0.656400 0.113260 -0.092445
N21   N     N_R   0.843080 0.456590 0.999750 -0.038033
N22   N     N_R   0.956690 0.500260 0.843560 -0.087650
Ni1   Ni    Ni4+2 0.099270 0.499990 0.099040 0.222919
Ni2   Ni    Ni4+2 0.900730 0.500010 0.900960 0.189977
Ni3   Ni    Ni4+2 0.900990 0.400990 0.000000 0.185565
Ni4   Ni    Ni4+2 0.099010 0.599010 0.000000 0.242832
O1    O     O_3   0.153511 0.353498 0.068140 -0.678905
O2    O     O_3   0.929935 0.994286 0.777940 -0.707378
O3    O     O_3   0.154894 0.578129 0.858656 -0.688088
O4    O     O_3   0.151429 0.526513 0.280641 -0.704532
O5    O     O_3   0.220041 0.795493 0.143340 -0.691974
O6    O     O_3   0.915857 0.517604 0.538134 -0.652645
O7    O     O_3   0.887700 0.469889 0.386341 -0.665993
O8    O     O_3   0.289285 0.958478 0.501911 -0.651580
O9    O     O_3   0.476427 0.953618 0.389276 -0.667284
O10   O     O_3   0.537574 0.143771 0.504567 -0.674836
O11   O     O_3   0.847664 0.967583 0.838394 -0.704907

loop_
_geom_bond_atom_site_label_1
_geom_bond_atom_site_label_2
_ccdc_geom_bond_type
C68   N14   S    
C52   H55   S    
C48   H48   S    
H92   N9    S    
C18   C70   A    
C101  C102  S    
C22   C29   A    
N1    Ni1   S    
C8    H31   S    
C105  H11   S    
C100  H129  S    
C11   H76   S    
C88   H100  S    
C87   C88   S    
C27   N9    S    
C99   H125  S    
C81   C82   S    
C100  H128  S    
C7    C8    S    
C39   C41   S    
C29   C49   S    
C77   C78   S    
C68   N13   S    
C70   O3    S    
C5    H19   S    
C26   C27   S    
C77   H69   S    
C74   C76   S    
C82   H81   S    
C34   C40   A    
C32   C36   S    
N4    Ni2   S    
C51   H67   S    
C103  H8    S    
C24   C26   S    
C32   H35   S    
C6    H28   S    
C88   C89   S    
C70   N6    A    
C15   C95   A    
C90   H106  S    
C86   H90   S    
C97   O9    S    
C23   C26   S    
C89   H103  S    
C84   N17   A    
N19   Ni1   S    
H93   N10   S    
C104  H10   S    
H25   N14   S    
C16   C25   S    
N8    N20   A    
C92   H110  S    
C8    H33   S    
C64   C71   T    
N1    N7    A    
C61   C63   S    
C35   C42   T    
C47   O8    S    
C69   H61   S    
C104  C105  S    
C66   H64   S    
C12   C59   S    
C24   H109  S    
C99   H127  S    
C13   C62   A    
N20   Ni4   S    
C68   C69   S    
C96   H119  S    
C5    H21   S    
C101  H130  S    
C94   H116  S    
C60   H57   S    
C15   C64   S    
C79   H72   S    
C52   H45   S    
C92   H111  S    
C80   H77   S    
C16   H98   S    
N3    Ni4   S    
C95   N18   A    
C61   O11   S    
C94   C96   S    
C22   N2    A    
N12   N21   A    
C101  H3    S    
C97   H121  S    
C60   C66   S    
N6    Ni4   S    
C78   H71   S    
H36   N15   S    
C31   H41   S    
C105  H12   S    
C36   C41   S    
C9    N20   A    
C58   N5    A    
C2    N19   A    
C32   H24   S    
C95   H65   S    
C84   H54   S    
C97   C98   S    
C47   C50   S    
C98   H123  S    
C34   H49   S    
C17   H87   S    
C55   H51   S    
N3    N5    A    
C79   H73   S    
C40   C58   A    
C77   O1    S    
C89   H102  S    
C73   H43   S    
C67   C68   S    
C17   C27   S    
C14   C73   A    
C24   C25   S    
C61   O2    S    
C7    H29   S    
C6    H27   S    
C3    H15   S    
H95   N11   S    
C14   C35   S    
C90   H105  S    
C39   O7    S    
C80   C81   S    
N16   N19   A    
C20   C30   T    
C82   H80   S    
C45   C52   S    
C85   H85   S    
C46   N4    A    
C2    O4    S    
C33   H38   S    
C31   C37   S    
C4    H18   S    
C8    H32   S    
N22   Ni2   S    
N8    Ni1   S    
H23   N13   S    
C90   O7    S    
C75   C76   A    
C69   H62   S    
C63   C67   S    
C7    H30   S    
C37   C38   S    
C37   H2    S    
C18   C44   S    
N16   Ni3   S    
C98   H124  S    
N18   Ni2   S    
C82   H82   S    
N12   Ni2   S    
C47   C48   S    
C17   C23   S    
C63   H60   S    
C96   H118  S    
C63   H59   S    
N2    Ni3   S    
C94   H115  S    
C54   O10   S    
C10   N22   A    
C4    H17   S    
C10   N10   S    
C60   H63   S    
C23   C28   S    
C37   H42   S    
C102  H6    S    
C19   C28   T    
C11   N21   A    
C6    C7    S    
C48   C53   S    
N6    N22   A    
N17   Ni4   S    
C104  H9    S    
C72   C74   T    
C83   C85   S    
C48   H50   S    
H91   N9    S    
C60   C65   S    
C96   H117  S    
C46   H58   S    
C21   C23   S    
C43   C44   T    
C78   H70   S    
C79   H74   S    
C83   H83   S    
C41   O6    S    
H34   N15   S    
C25   C27   S    
C81   H78   S    
C65   C72   S    
C22   H39   S    
C3    C4    S    
C75   N15   S    
C80   H75   S    
C87   H99   S    
C91   C92   S    
C12   C51   A    
C52   C53   S    
C9    O5    S    
C53   C56   S    
C25   C30   S    
C54   C55   S    
C77   H68   S    
H96   N11   S    
C87   H97   S    
C13   C20   S    
C97   H122  S    
C78   C79   S    
C50   C57   S    
N7    Ni3   S    
C83   H84   S    
C83   O5    S    
C51   N8    A    
C45   H53   S    
C33   C38   S    
C88   H101  S    
C91   H107  S    
C36   C43   S    
C85   C86   S    
C89   H104  S    
C16   C21   S    
C53   C54   S    
C15   C84   A    
C62   H1    S    
C33   H37   S    
C85   H86   S    
C49   C56   T    
C21   H120  S    
C93   C94   S    
C39   H44   S    
C31   H13   S    
C3    O2    S    
C80   O4    S    
C29   C46   A    
C93   H114  S    
C105  H14   S    
C32   C33   S    
C99   H126  S    
N2    N4    A    
C58   H66   S    
C62   N12   A    
C86   H88   S    
C75   N7    A    
C103  O11   S    
C54   H52   S    
C11   C13   A    
C90   C91   S    
C38   C39   S    
C45   C50   S    
C10   C18   A    
C102  H5    S    
C65   C69   S    
C50   C55   S    
N21   Ni3   S    
C100  C101  S    
C1    C76   A    
C93   O8    S    
C66   C67   S    
C67   C71   S    
C61   C65   S    
C55   O9    S    
C92   H112  S    
C2    C14   A    
C9    C12   A    
C103  H7    S    
C57   C59   T    
C19   C40   S    
H94   N10   S    
C1    O1    S    
C38   C42   S    
C26   N11   S    
C4    C5    S    
C41   H40   S    
C47   H47   S    
C66   H56   S    
C91   H108  S    
C98   C99   S    
C21   C24   S    
C5    H20   S    
C103  C104  S    
C34   N3    A    
C31   C36   S    
C93   H113  S    
C102  H4    S    
C6    O3    S    
H22   N13   S    
C1    N1    A    
C81   H79   S    
N5    Ni1   S    
C45   H46   S    
C3    H16   S    
C86   H89   S    
H26   N14   S    
C16   C17   S    
C87   O6    S    
N17   N18   A    
C73   N16   A    
C100  O10   S    
