data_mof_unit_60653.cif
_audit_creation_date              2012-12-10T20:22:25-0500
_audit_creation_method            fapswitch 2.2
_symmetry_space_group_name_H-M    P1
_symmetry_Int_Tables_number       1
_space_group_crystal_system       triclinic
_cell_length_a                    19.263304
_cell_length_b                    18.590355
_cell_length_c                    15.843652
_cell_angle_alpha                 89.990246
_cell_angle_beta                  89.76002
_cell_angle_gamma                 89.995282
_cell_volume                      5673.74664667

loop_
_atom_site_label
_atom_site_type_symbol
_atom_type_description
_atom_site_fract_x
_atom_site_fract_y
_atom_site_fract_z
_atom_type_partial_charge
C1    C     C_R   0.366151 0.500028 0.500671 0.921320
C2    C     C_R   0.633998 0.500046 0.502184 0.979949
C3    C     C_R   0.709198 0.499324 0.507052 -0.310887
C4    C     C_R   0.291758 0.500062 0.511688 -0.289296
C5    C     C_R   0.963309 0.492413 0.610750 0.340354
C6    C     C_R   0.038930 0.468858 0.461838 0.323125
C7    C     C_R   0.035466 0.503278 0.609951 0.314364
C8    C     C_R   0.967200 0.475550 0.457342 0.351397
C9    C     C_R   0.073187 0.488976 0.536015 -0.168859
C10   C     C_R   0.928630 0.483618 0.532806 -0.177350
C11   C     C_R   0.443397 0.726884 0.530314 -0.023783
C12   C     C_R   0.444028 0.274458 0.466547 -0.044965
C13   C     C_R   0.555928 0.727370 0.468426 -0.037583
C14   C     C_R   0.554416 0.271465 0.532537 -0.026130
C15   C     C_R   0.439142 0.802516 0.520832 0.279342
C16   C     C_R   0.438737 0.198682 0.472755 0.388968
C17   C     C_R   0.558330 0.803371 0.473930 0.366864
C18   C     C_R   0.556095 0.195413 0.525189 0.265039
C19   C     C_R   0.498028 0.841733 0.495731 -0.060364
C20   C     C_R   0.496862 0.158238 0.496878 -0.056251
C21   C     C_R   0.494907 0.961847 0.418454 -0.087057
C22   C     C_R   0.493843 0.038006 0.573260 -0.122791
C23   C     C_R   0.495726 0.961395 0.572895 -0.138510
C24   C     C_R   0.496547 0.038387 0.418819 -0.104779
C25   C     C_R   0.494402 0.076965 0.496199 0.016634
C26   C     C_R   0.497309 0.922933 0.495439 0.014150
C27   C     C_R   0.499714 0.499988 0.339497 0.938267
C28   C     C_R   0.499854 0.500011 0.660510 0.904653
C29   C     C_R   0.451214 0.545271 0.956028 -0.091245
C30   C     C_R   0.543486 0.453041 0.043990 -0.080357
C31   C     C_R   0.450797 0.544764 0.044583 -0.084338
C32   C     C_R   0.543864 0.453473 0.955493 -0.088593
C33   C     C_R   0.497772 0.499631 0.912724 -0.042123
C34   C     C_R   0.497224 0.498930 0.087312 -0.035363
C35   C     C_1   0.498328 0.500036 0.823356 0.040358
C36   C     C_1   0.497948 0.499428 0.176672 0.047665
C37   C     C_1   0.498799 0.499839 0.251395 -0.044333
C38   C     C_1   0.499047 0.500072 0.748620 -0.037200
C39   C     C_R   0.746396 0.446882 0.460724 -0.168641
C40   C     C_R   0.262570 0.462079 0.580601 -0.157513
C41   C     C_R   0.249442 0.539096 0.455499 -0.155898
C42   C     C_R   0.743842 0.544775 0.564728 -0.184398
C43   C     C_R   0.815837 0.434143 0.481669 0.413849
C44   C     C_R   0.190546 0.458224 0.588804 0.414093
C45   C     C_R   0.178101 0.541587 0.470598 0.423123
C46   C     C_R   0.816464 0.544614 0.565591 0.442300
C47   C     C_R   0.852281 0.486299 0.528831 -0.021360
C48   C     C_R   0.148556 0.497701 0.533543 -0.013395
N1    N     N_R   0.500000 0.689440 0.500000 -0.196280
N2    N     N_R   0.500000 0.310560 0.500000 -0.200297
O1    O     O_R   0.398180 0.560840 0.499980 -0.589849
O2    O     O_R   0.601820 0.439160 0.500020 -0.627837
O3    O     O_R   0.601820 0.560840 0.500020 -0.589687
O4    O     O_R   0.398180 0.439160 0.499980 -0.597580
O5    O     O_R   0.499980 0.560800 0.378020 -0.569837
O6    O     O_R   0.500020 0.439200 0.621980 -0.574695
O7    O     O_R   0.500020 0.560800 0.621980 -0.576287
O8    O     O_R   0.499980 0.439200 0.378020 -0.586507
Zn1   Zn    Zn3+2 0.500000 0.581210 0.500000 1.051365
Zn2   Zn    Zn3+2 0.500000 0.418790 0.500000 1.035594
C49   C     C_2   0.400176 0.589996 0.092420 0.973829
O9    O     O_2   0.419792 0.627425 0.151155 -0.607298
O10   O     O_R   0.330059 0.589583 0.069930 -0.771336
H1    H     H_    0.300861 0.622287 0.106988 0.362299
C50   C     C_2   0.590800 0.404171 0.907691 0.984265
O11   O     O_2   0.626908 0.427417 0.850157 -0.607413
O12   O     O_R   0.593606 0.331217 0.928901 -0.765920
H2    H     H_    0.627324 0.303329 0.892074 0.361205
C51   C     C_2   0.405097 0.595467 0.908816 0.987916
O13   O     O_2   0.369971 0.573361 0.850178 -0.597530
O14   O     O_R   0.401955 0.668012 0.931827 -0.769567
H3    H     H_    0.368861 0.696605 0.895235 0.357766
C52   C     C_2   0.592940 0.406507 0.091279 0.963882
O15   O     O_2   0.571864 0.367706 0.148226 -0.597832
O16   O     O_R   0.663512 0.407147 0.070278 -0.779969
H4    H     H_    0.691787 0.373400 0.106822 0.357782
C53   C     C_2   0.714138 0.408375 0.387966 1.033558
O17   O     O_2   0.730276 0.346413 0.371163 -0.596442
O18   O     O_R   0.666177 0.444292 0.337029 -0.828315
H5    H     H_    0.648005 0.413024 0.289610 0.361133
C54   C     C_2   0.305882 0.428446 0.646847 0.954052
O19   O     O_2   0.338377 0.373392 0.631871 -0.613570
O20   O     O_R   0.306959 0.458604 0.727566 -0.745293
H6    H     H_    0.337847 0.430901 0.767767 0.353881
C55   C     C_2   0.277002 0.573182 0.377344 0.953292
O21   O     O_2   0.252774 0.556077 0.309008 -0.588835
O22   O     O_R   0.328158 0.626305 0.381456 -0.777623
H7    H     H_    0.341819 0.645345 0.323768 0.353895
C56   C     C_2   0.707158 0.585763 0.632028 0.944669
O23   O     O_2   0.665218 0.632699 0.614648 -0.607820
O24   O     O_R   0.724039 0.572518 0.716324 -0.745908
H8    H     H_    0.696809 0.603930 0.756961 0.353708
O25   O     O_3   0.850699 0.375979 0.447058 -0.573827
C57   C     C_3   0.846045 0.316118 0.501884 0.157966
H9    H     H_    0.803228 0.280561 0.480595 0.213703
H10   H     H_    0.835376 0.330767 0.568904 0.114577
C58   C     C_3   0.914174 0.274174 0.497117 -0.366742
H11   H     H_    0.924053 0.257637 0.430721 0.244447
H12   H     H_    0.957577 0.309371 0.517516 0.202540
C59   C     C_3   0.912163 0.207300 0.552850 -0.962385
H13   H     H_    0.905617 0.222616 0.620128 0.273129
H14   H     H_    0.961485 0.177025 0.545625 0.273539
H15   H     H_    0.868743 0.171671 0.534035 0.275868
O26   O     O_3   0.160615 0.417965 0.652859 -0.582431
C60   C     C_3   0.159509 0.344357 0.630341 0.091937
H16   H     H_    0.203585 0.316733 0.661724 0.180685
H17   H     H_    0.163858 0.334552 0.560993 0.118490
C61   C     C_3   0.091438 0.311684 0.661755 -0.327909
H18   H     H_    0.085830 0.321772 0.730590 0.242157
H19   H     H_    0.047433 0.337921 0.628764 0.199185
C62   C     C_3   0.088745 0.230908 0.645828 -0.973534
H20   H     H_    0.092430 0.219585 0.577105 0.258676
H21   H     H_    0.038921 0.209110 0.670236 0.279468
H22   H     H_    0.131940 0.203627 0.679215 0.276614
O27   O     O_3   0.135984 0.584034 0.420467 -0.597828
C63   C     C_3   0.133418 0.653770 0.455680 0.079441
H23   H     H_    0.183666 0.682008 0.444909 0.174403
H24   H     H_    0.122405 0.652018 0.524736 0.128176
C64   C     C_3   0.075444 0.696161 0.413192 -0.341322
H25   H     H_    0.086430 0.700639 0.344465 0.242688
H26   H     H_    0.025689 0.666914 0.421721 0.212049
C65   C     C_3   0.068332 0.771347 0.450831 -0.964281
H27   H     H_    0.055860 0.767955 0.519215 0.261400
H28   H     H_    0.025710 0.800577 0.418642 0.271199
H29   H     H_    0.117327 0.801983 0.442234 0.269866
O28   O     O_3   0.853237 0.599119 0.605593 -0.567566
C66   C     C_3   0.838611 0.666949 0.568605 0.115370
H30   H     H_    0.796426 0.694234 0.604309 0.181784
H31   H     H_    0.821879 0.662974 0.501428 0.112048
C67   C     C_3   0.903651 0.713967 0.571136 -0.398277
H32   H     H_    0.948211 0.683469 0.544567 0.215414
H33   H     H_    0.895461 0.762476 0.531376 0.196911
C68   C     C_3   0.920757 0.737878 0.660836 -0.787792
H34   H     H_    0.878680 0.772602 0.686233 0.252194
H35   H     H_    0.969905 0.769055 0.660456 0.231871
H36   H     H_    0.927032 0.690554 0.702786 0.288810
O29   O     O_3   0.925369 0.500129 0.684932 -0.569692
C69   C     C_3   0.941311 0.444893 0.743296 0.139738
H37   H     H_    0.924521 0.463840 0.806657 0.185205
H38   H     H_    0.997784 0.433298 0.748126 0.168620
C70   C     C_3   0.901762 0.375892 0.722267 -0.429824
H39   H     H_    0.845805 0.388364 0.713553 0.260172
H40   H     H_    0.922926 0.353378 0.662783 0.203920
C71   C     C_3   0.909505 0.319661 0.791706 -0.893687
H41   H     H_    0.965051 0.305586 0.800368 0.259858
H42   H     H_    0.880677 0.270248 0.773968 0.269961
H43   H     H_    0.887976 0.340320 0.852162 0.281133
O30   O     O_3   0.076202 0.447640 0.391313 -0.580553
C72   C     C_3   0.084170 0.371959 0.392355 0.095487
H44   H     H_    0.045702 0.347990 0.348458 0.180278
H45   H     H_    0.075963 0.346963 0.455805 0.096117
C73   C     C_3   0.157485 0.353188 0.362375 -0.307113
H46   H     H_    0.165479 0.373936 0.297259 0.250440
H47   H     H_    0.195975 0.379428 0.404418 0.240781
C74   C     C_3   0.169742 0.272079 0.363189 -0.913824
H48   H     H_    0.163880 0.250563 0.428247 0.248214
H49   H     H_    0.223198 0.260331 0.340608 0.297379
H50   H     H_    0.132233 0.244678 0.320953 0.263399
O31   O     O_3   0.069747 0.526542 0.681498 -0.586622
C75   C     C_3   0.059336 0.601206 0.692662 0.114097
H51   H     H_    0.020056 0.609174 0.743344 0.178111
H52   H     H_    0.040830 0.629556 0.634778 0.119458
C76   C     C_3   0.127850 0.635300 0.719904 -0.313128
H53   H     H_    0.144373 0.611596 0.781024 0.258136
H54   H     H_    0.168590 0.623470 0.671947 0.233070
C77   C     C_3   0.120997 0.716637 0.729632 -0.943461
H55   H     H_    0.107136 0.741607 0.668280 0.256820
H56   H     H_    0.171250 0.739458 0.750840 0.289215
H57   H     H_    0.080445 0.729827 0.777222 0.268459
O32   O     O_3   0.934342 0.468639 0.380002 -0.571763
C78   C     C_3   0.945001 0.530863 0.330075 0.153707
H58   H     H_    0.934978 0.515696 0.263423 0.181260
H59   H     H_    0.999418 0.551087 0.332242 0.179793
C79   C     C_3   0.894234 0.590552 0.355357 -0.445124
H60   H     H_    0.840487 0.568824 0.357515 0.252097
H61   H     H_    0.908184 0.610239 0.419036 0.203579
C80   C     C_3   0.896954 0.653576 0.293803 -0.903422
H62   H     H_    0.950307 0.676014 0.290295 0.259374
H63   H     H_    0.861088 0.696526 0.315704 0.274061
H64   H     H_    0.880718 0.635893 0.229905 0.278746
C81   C     C_2   0.387866 0.690293 0.578124 1.065861
O33   O     O_2   0.328275 0.690622 0.551975 -0.647989
O34   O     O_R   0.402971 0.658161 0.655512 -0.768325
H65   H     H_    0.360732 0.634969 0.682525 0.355922
C82   C     C_2   0.391077 0.312513 0.416844 1.053084
O35   O     O_2   0.332405 0.320274 0.445037 -0.670509
O36   O     O_R   0.407308 0.336483 0.335618 -0.765600
H66   H     H_    0.366725 0.361343 0.307347 0.333042
C83   C     C_2   0.613477 0.690910 0.424084 1.083759
O37   O     O_2   0.672840 0.696545 0.450250 -0.657048
O38   O     O_R   0.600681 0.653585 0.349356 -0.763047
H67   H     H_    0.644256 0.631340 0.324476 0.341095
C84   C     C_2   0.611360 0.307230 0.578002 1.043622
O39   O     O_2   0.670801 0.303121 0.551214 -0.682006
O40   O     O_R   0.597805 0.342751 0.653881 -0.763601
H68   H     H_    0.641055 0.364853 0.679307 0.348897
O41   O     O_3   0.378220 0.838672 0.539469 -0.622092
C85   C     C_3   0.336848 0.842286 0.465726 0.130807
H69   H     H_    0.295005 0.801373 0.470179 0.196040
H70   H     H_    0.366078 0.832486 0.405619 0.137300
C86   C     C_3   0.303570 0.916518 0.460116 -0.369268
H71   H     H_    0.272806 0.927074 0.518319 0.240071
H72   H     H_    0.345173 0.957629 0.454993 0.237953
C87   C     C_3   0.256245 0.922399 0.383383 -0.889239
H73   H     H_    0.286564 0.914264 0.324363 0.299443
H74   H     H_    0.232174 0.976612 0.381444 0.265947
H75   H     H_    0.214281 0.881558 0.386930 0.251805
O42   O     O_3   0.378632 0.163377 0.448699 -0.600417
C88   C     C_3   0.327647 0.169025 0.513201 0.133058
H76   H     H_    0.283284 0.200599 0.488366 0.182814
H77   H     H_    0.345752 0.196173 0.572128 0.180415
C89   C     C_3   0.301209 0.094060 0.535502 -0.348783
H78   H     H_    0.280504 0.068487 0.477576 0.234816
H79   H     H_    0.344688 0.060931 0.559916 0.251239
C90   C     C_3   0.243621 0.097028 0.601709 -0.925014
H80   H     H_    0.262547 0.123345 0.660200 0.285769
H81   H     H_    0.226531 0.041551 0.617356 0.274148
H82   H     H_    0.198488 0.127335 0.576760 0.255783
O43   O     O_3   0.617349 0.839915 0.448128 -0.596845
C91   C     C_3   0.658695 0.854803 0.519509 0.151273
H83   H     H_    0.660764 0.808443 0.564340 0.178766
H84   H     H_    0.637770 0.902698 0.553076 0.161641
C92   C     C_3   0.732687 0.871137 0.490206 -0.326982
H85   H     H_    0.753764 0.824028 0.455307 0.249787
H86   H     H_    0.732078 0.917998 0.446735 0.240224
C93   C     C_3   0.780074 0.887595 0.564675 -0.970490
H87   H     H_    0.760771 0.935225 0.599947 0.277195
H88   H     H_    0.833308 0.899185 0.541227 0.267706
H89   H     H_    0.782374 0.840699 0.607993 0.272726
O44   O     O_3   0.612769 0.157346 0.554677 -0.620947
C94   C     C_3   0.656433 0.140521 0.485613 0.126838
H90   H     H_    0.676428 0.190469 0.455206 0.188898
H91   H     H_    0.628439 0.108149 0.437566 0.147202
C95   C     C_3   0.717760 0.096244 0.517189 -0.321243
H92   H     H_    0.746111 0.127193 0.566172 0.239175
H93   H     H_    0.698115 0.045688 0.546148 0.232749
C96   C     C_3   0.767544 0.077652 0.445263 -0.955603
H94   H     H_    0.740265 0.046214 0.395873 0.285452
H95   H     H_    0.811166 0.044906 0.470007 0.269142
H96   H     H_    0.788968 0.127521 0.416613 0.277391
C97   C     C_2   0.483690 0.923415 0.337055 0.947879
O45   O     O_2   0.437242 0.943183 0.290032 -0.613005
O46   O     O_R   0.526006 0.865797 0.313404 -0.746478
H97   H     H_    0.512526 0.844500 0.256901 0.362914
C98   C     C_2   0.493908 0.078002 0.654699 1.026391
O47   O     O_2   0.535506 0.062159 0.709769 -0.578544
O48   O     O_R   0.447008 0.134305 0.667878 -0.825576
H98   H     H_    0.452630 0.157745 0.725202 0.361830
C99   C     C_2   0.492522 0.921167 0.654097 1.006193
O49   O     O_2   0.533898 0.872832 0.668407 -0.642043
O50   O     O_R   0.441580 0.938447 0.713863 -0.763686
H99   H     H_    0.444413 0.907285 0.766252 0.364260
C100  C     C_2   0.507895 0.077117 0.337585 0.947285
O51   O     O_2   0.556511 0.059766 0.292046 -0.606656
O52   O     O_R   0.462851 0.131707 0.312045 -0.733980
H100  H     H_    0.476538 0.153443 0.255698 0.367201

loop_
_geom_bond_atom_site_label_1
_geom_bond_atom_site_label_2
_ccdc_geom_bond_type
C30   C32   A    
O22   H7    S    
C3    C42   A    
O25   C57   S    
O5    Zn1   S    
C74   H49   S    
C86   H72   S    
C52   O15   D    
C14   C18   A    
C76   H53   S    
C11   C81   S    
C78   H58   S    
C6    C9    A    
C91   H84   S    
C58   H11   S    
C44   O26   S    
C92   C93   S    
C4    C41   A    
O50   H99   S    
O4    Zn2   S    
C53   O17   D    
C61   H18   S    
C15   C19   A    
C60   H17   S    
C99   O49   D    
O28   C66   S    
O20   H6    S    
C39   C53   S    
C21   C97   S    
C36   C37   T    
C76   H54   S    
C51   O13   D    
C72   H45   S    
C42   C46   A    
C100  O51   D    
C15   O41   S    
C27   O5    A    
O7    Zn1   S    
C7    O31   S    
C20   C25   S    
O8    Zn2   S    
O46   H97   S    
C81   O33   D    
C90   H82   S    
C88   C89   S    
C13   C83   S    
C63   H23   S    
C49   O10   S    
C97   O45   D    
C86   H71   S    
C23   C26   A    
C51   O14   S    
C19   C26   S    
C31   C49   S    
C79   H60   S    
O26   C60   S    
O2    Zn2   S    
C54   O20   S    
C11   C15   A    
C12   C16   A    
C29   C33   A    
C61   H19   S    
O42   C88   S    
C80   H63   S    
C22   C25   A    
C68   H36   S    
C73   C74   S    
C85   H69   S    
C56   O24   S    
C18   C20   A    
O3    Zn1   S    
C53   O18   S    
C3    C39   A    
C28   O7    A    
C96   H94   S    
C74   H50   S    
C77   H56   S    
C87   H73   S    
C52   O16   S    
C62   H22   S    
C49   O9    D    
C70   H39   S    
C95   H93   S    
C71   H43   S    
C59   H14   S    
C91   H83   S    
C58   H12   S    
C21   C26   A    
C8    O32   S    
C54   O19   D    
C29   C51   S    
C55   O22   S    
C28   O6    A    
C85   H70   S    
C78   C79   S    
C99   O50   S    
C30   C34   A    
O38   H67   S    
C75   C76   S    
C4    C40   A    
C76   C77   S    
C24   C25   A    
C92   H85   S    
C71   H42   S    
C18   O44   S    
C81   O34   S    
O43   C91   S    
C5    C7    A    
C30   C52   S    
C17   C19   A    
C6    C8    A    
C57   C58   S    
C50   O12   S    
C55   O21   D    
C27   O8    A    
C59   H15   S    
O40   H68   S    
C97   O46   S    
C95   C96   S    
C75   H52   S    
C67   H33   S    
O16   H4    S    
C66   H31   S    
O34   H65   S    
C11   N1    A    
C6    O30   S    
C14   N2    A    
C45   O27   S    
C12   N2    A    
O31   C75   S    
C89   C90   S    
C28   C38   S    
C16   C20   A    
C80   H64   S    
C35   C38   T    
C85   C86   S    
C84   O40   S    
C88   H76   S    
C96   H96   S    
C31   C34   A    
C57   H9    S    
C62   H21   S    
C61   C62   S    
C60   C61   S    
O30   C72   S    
C57   H10   S    
C1    O1    A    
C79   C80   S    
C64   H26   S    
C2    O2    A    
C80   H62   S    
C1    O4    A    
C13   N1    A    
C8    C10   A    
O12   H2    S    
C94   H90   S    
C14   C84   S    
C73   H47   S    
C93   H87   S    
C93   H88   S    
C96   H95   S    
C77   H55   S    
C86   C87   S    
O18   H5    S    
C72   C73   S    
C67   C68   S    
O1    Zn1   S    
C95   H92   S    
C65   H28   S    
O52   H100  S    
C69   C70   S    
O24   H8    S    
C58   C59   S    
C100  O52   S    
C60   H16   S    
C45   C48   A    
C83   O37   D    
O44   C94   S    
C46   C47   A    
C70   C71   S    
C62   H20   S    
C64   C65   S    
C40   C54   S    
C46   O28   S    
C77   H57   S    
C89   H79   S    
C71   H41   S    
C16   O42   S    
C2    O3    A    
C17   O43   S    
C22   C98   S    
C39   C43   A    
C64   H25   S    
C92   H86   S    
C5    O29   S    
C66   H30   S    
C69   H38   S    
C78   H59   S    
C93   H89   S    
C41   C55   S    
O29   C69   S    
N1    Zn1   S    
C63   C64   S    
C13   C17   A    
C43   O25   S    
C42   C56   S    
N2    Zn2   S    
C75   H51   S    
C1    C4    S    
C65   H29   S    
C70   H40   S    
C2    C3    S    
C65   H27   S    
C66   C67   S    
C5    C10   A    
C23   C99   S    
C44   C48   A    
C72   H44   S    
C32   C33   A    
C87   H74   S    
C33   C35   S    
C82   O35   D    
C68   H34   S    
C27   C37   S    
C12   C82   S    
C59   H13   S    
C88   H77   S    
C98   O48   S    
C63   H24   S    
C24   C100  S    
C67   H32   S    
C87   H75   S    
C34   C36   S    
C50   O11   D    
C90   H80   S    
O41   C85   S    
C79   H61   S    
C90   H81   S    
C82   O36   S    
C94   C95   S    
C94   H91   S    
O10   H1    S    
C7    C9    A    
C40   C44   A    
O6    Zn2   S    
C89   H78   S    
C9    C48   S    
C29   C31   A    
C84   O39   D    
O32   C78   S    
C21   C24   A    
C74   H48   S    
C68   H35   S    
C41   C45   A    
C22   C23   A    
C32   C50   S    
O36   H66   S    
C73   H46   S    
O14   H3    S    
C56   O23   D    
C98   O47   D    
C10   C47   S    
C43   C47   A    
C91   C92   S    
C69   H37   S    
O27   C63   S    
O48   H98   S    
C83   O38   S    
