data_mof_unit_47170.cif
_audit_creation_date              2012-12-10T17:12:03-0500
_audit_creation_method            fapswitch 2.2
_symmetry_space_group_name_H-M    P1
_symmetry_Int_Tables_number       1
_space_group_crystal_system       triclinic
_cell_length_a                    11.68686
_cell_length_b                    12.995413
_cell_length_c                    15.840316
_cell_angle_alpha                 92.24902
_cell_angle_beta                  74.053718
_cell_angle_gamma                 99.156425
_cell_volume                      2283.68185266

loop_
_atom_site_label
_atom_site_type_symbol
_atom_type_description
_atom_site_fract_x
_atom_site_fract_y
_atom_site_fract_z
_atom_type_partial_charge
C1    C     C_R   0.519816 0.700290 0.501848 0.862250
C2    C     C_R   0.480177 0.299717 0.498167 0.860718
C3    C     C_R   0.360123 0.426653 0.082641 -0.217404
C4    C     C_R   0.646843 0.506989 0.911080 -0.221876
C5    C     C_R   0.277279 0.409534 0.033509 -0.122344
C6    C     C_R   0.730234 0.521208 0.959777 -0.122416
C7    C     C_R   0.467529 0.187193 0.503066 -0.115950
C8    C     C_R   0.532454 0.812834 0.496983 -0.116161
C9    C     C_R   0.643669 0.971763 0.423593 -0.120202
C10   C     C_R   0.356361 0.028301 0.576531 -0.119618
C11   C     C_R   0.634117 0.865907 0.437636 -0.268869
C12   C     C_R   0.365940 0.134163 0.562515 -0.268881
C13   C     C_R   0.440819 0.866278 0.546099 0.322157
C14   C     C_R   0.559116 0.133740 0.453899 0.322275
C15   C     C_R   0.448819 0.973388 0.531201 0.032257
C16   C     C_R   0.551161 0.026650 0.468855 0.032661
C17   C     C_R   0.933609 0.585001 0.590679 -0.247830
C18   C     C_R   0.066366 0.414928 0.409354 -0.245069
C19   C     C_R   0.816908 0.578323 0.580839 -0.050467
C20   C     C_R   0.183080 0.421636 0.419182 -0.049587
C21   C     C_R   0.863758 0.465441 0.459164 0.807282
C22   C     C_R   0.136224 0.534524 0.540850 0.807894
C23   C     C_R   0.426935 0.493931 0.668080 0.843450
C24   C     C_R   0.572969 0.504508 0.331839 0.840985
C25   C     C_R   0.982389 0.469695 0.466606 -0.119350
C26   C     C_R   0.017587 0.530249 0.533417 -0.120255
C27   C     C_R   0.383361 0.480192 0.763750 -0.107812
C28   C     C_R   0.616333 0.505996 0.235489 -0.112146
C29   C     C_R   0.227097 0.416471 0.894059 0.400106
C30   C     C_R   0.777830 0.533701 0.101063 0.393483
C31   C     C_R   0.263509 0.439715 0.804507 -0.186453
C32   C     C_R   0.739007 0.528250 0.192457 -0.172902
C33   C     C_R   0.466518 0.499185 0.813311 -0.227367
C34   C     C_R   0.532448 0.486449 0.186451 -0.235197
C35   C     C_R   0.434791 0.471752 0.902580 0.040831
C36   C     C_R   0.568253 0.487456 0.094210 0.044597
C37   C     C_R   0.312104 0.432598 0.943846 0.056429
C38   C     C_R   0.693008 0.514109 0.051268 0.056077
C39   C     C_R   0.521787 0.482889 0.951673 0.095625
C40   C     C_R   0.482800 0.466166 0.043941 0.097676
Cu1   Cu    Cu3+1 0.386820 0.492450 0.493500 1.026852
Cu2   Cu    Cu3+1 0.613180 0.507550 0.506500 1.026037
H1    H     H_    0.185048 0.378456 0.067099 0.214831
H2    H     H_    0.824551 0.539080 0.924565 0.216744
H3    H     H_    0.247132 0.379360 0.374655 0.160653
H4    H     H_    0.752857 0.620591 0.625370 0.162264
H5    H     H_    0.957544 0.632568 0.642775 0.218748
H6    H     H_    0.042427 0.367341 0.357269 0.217994
H7    H     H_    0.438757 0.473772 0.222111 0.161919
H8    H     H_    0.555943 0.536492 0.780400 0.158248
H9    H     H_    0.804771 0.543962 0.229843 0.205359
H10   H     H_    0.198552 0.423845 0.766457 0.198568
H11   H     H_    0.325186 0.404219 0.150728 0.145297
H12   H     H_    0.684351 0.512087 0.840931 0.149006
H13   H     H_    0.295225 0.175593 0.600263 0.175204
H14   H     H_    0.704903 0.824510 0.399962 0.174954
H15   H     H_    0.723614 0.009374 0.376467 0.210634
H16   H     H_    0.276456 0.990718 0.623713 0.211158
N1    N     N_R   0.216750 0.481110 0.483710 -0.234894
N2    N     N_R   0.783250 0.518890 0.516290 -0.234485
O1    O     O_R   0.419950 0.645670 0.495380 -0.512525
O2    O     O_R   0.580050 0.354330 0.504620 -0.512946
O3    O     O_R   0.611110 0.658410 0.506370 -0.604286
O4    O     O_R   0.388890 0.341590 0.493630 -0.605239
O5    O     O_R   0.350820 0.490050 0.621260 -0.527595
O6    O     O_R   0.649180 0.509950 0.378740 -0.529741
O7    O     O_R   0.541970 0.502800 0.632250 -0.611167
O8    O     O_R   0.458030 0.497200 0.367750 -0.610601
Cl1   Cl    Cl    0.074875 0.362905 0.939716 -0.547046
Cl2   Cl    Cl    0.933672 0.568609 0.052462 -0.544974
Cl3   Cl    Cl    0.679431 0.200475 0.370859 -0.540010
Cl4   Cl    Cl    0.320332 0.799498 0.628968 -0.538660
F1    F     F_    0.170945 0.591860 0.605326 -0.613217
F2    F     F_    0.829022 0.408088 0.394699 -0.615681

loop_
_geom_bond_atom_site_label_1
_geom_bond_atom_site_label_2
_ccdc_geom_bond_type
C8    C13   A    
C5    C37   A    
C1    C8    S    
Cu1   Cu2   S    
C2    C7    S    
Cu1   O1    S    
C31   H10   S    
C19   H4    S    
C27   C33   A    
C17   C26   A    
C10   H16   S    
C9    C16   A    
C10   C15   A    
C15   C16   A    
C30   C38   A    
C14   Cl3   S    
C23   O7    A    
C17   C19   A    
C7    C14   A    
C6    C38   A    
C23   C27   S    
Cu2   O2    S    
C18   C20   A    
C20   H3    S    
C24   O6    A    
C5    H1    S    
C28   C34   A    
C6    H2    S    
C18   C25   A    
C1    O3    A    
C30   Cl2   S    
C2    O4    A    
Cu1   O8    S    
C29   Cl1   S    
C7    C12   A    
C27   C31   A    
C17   H5    S    
C28   C32   A    
Cu1   N1    S    
C9    H15   S    
C4    C6    A    
Cu2   N2    S    
C39   C40   A    
Cu1   O5    S    
C25   C26   A    
C21   F2    S    
C1    O1    A    
C35   C39   A    
C32   H9    S    
C4    C39   A    
C36   C40   A    
C20   N1    A    
C9    C11   A    
C10   C12   A    
C21   N2    A    
C3    C40   A    
C13   C15   A    
Cu2   O7    S    
C14   C16   A    
C22   N1    A    
C35   C37   A    
C21   C25   A    
C34   H7    S    
C4    H12   S    
C24   C28   S    
C3    C5    A    
C18   H6    S    
C13   Cl4   S    
C19   N2    A    
Cu1   O4    S    
C23   O5    A    
C36   C38   A    
C33   H8    S    
C29   C31   A    
C30   C32   A    
C3    H11   S    
C8    C11   A    
C33   C35   A    
C34   C36   A    
C12   H13   S    
C24   O8    A    
C22   C26   A    
C29   C37   A    
Cu2   O6    S    
C22   F1    S    
Cu2   O3    S    
C11   H14   S    
C2    O2    A    
