data_mof_unit_28332.cif
_audit_creation_date              2012-12-11T16:53:35-0500
_audit_creation_method            fapswitch 2.2
_symmetry_space_group_name_H-M    P1
_symmetry_Int_Tables_number       1
_space_group_crystal_system       triclinic
_cell_length_a                    14.983639
_cell_length_b                    14.744573
_cell_length_c                    16.982993
_cell_angle_alpha                 109.142696
_cell_angle_beta                  106.464558
_cell_angle_gamma                 108.035057
_cell_volume                      3045.23257088

loop_
_atom_site_label
_atom_site_type_symbol
_atom_type_description
_atom_site_fract_x
_atom_site_fract_y
_atom_site_fract_z
_atom_type_partial_charge
C1    C     C_R   0.088633 0.273832 0.048788 -0.131171
C2    C     C_R   0.023523 0.584607 0.746905 0.065070
C3    C     C_R   0.751795 0.194062 0.723477 0.053637
C4    C     C_R   0.291569 0.463268 0.965856 -0.088981
C5    C     C_R   0.275581 0.687325 0.250890 -0.015739
C6    C     C_R   0.703521 0.493377 0.911264 0.172861
C7    C     C_R   0.889574 0.462243 0.187442 -0.236019
C8    C     C_R   0.078952 0.809309 0.045908 0.698003
C9    C     C_R   0.907796 0.724885 0.972116 -0.314454
C10   C     C_R   0.062329 0.544391 0.265789 0.715044
C11   C     C_R   0.281345 0.782814 0.174370 -0.000409
C12   C     C_R   0.934166 0.522006 0.748417 -0.134182
C13   C     C_R   0.697690 0.405523 0.994730 -0.174661
C14   C     C_R   0.338493 0.778992 0.251735 -0.021538
C15   C     C_R   0.638701 0.434564 0.938060 0.025629
C16   C     C_R   0.969961 0.530189 0.275265 -0.116964
C17   C     C_R   0.990685 0.826325 0.030144 0.020255
C18   C     C_R   0.407958 0.483106 0.889830 -0.093545
C19   C     C_R   0.357126 0.427452 0.928818 0.119719
C20   C     C_R   0.378937 0.344658 0.938679 -0.127911
C21   C     C_R   0.465512 0.335033 0.928893 -0.215232
C22   C     C_R   0.529569 0.408791 0.909728 0.120753
C23   C     C_R   0.767830 0.199767 0.810036 -0.130896
C24   C     C_R   0.492884 0.473745 0.880132 0.080304
C25   C     C_3   0.547759 0.590241 0.905329 -0.596330
C26   C     C_3   0.454756 0.600606 0.916536 0.692793
C27   C     C_R   0.957537 0.571597 0.360996 0.152750
C28   C     C_R   0.027773 0.626957 0.680126 0.126423
C29   C     C_R   0.128145 0.706431 0.610214 -0.196573
C30   C     C_R   0.123409 0.690987 0.685849 -0.156764
C31   C     C_R   0.935910 0.591561 0.603066 -0.265548
C32   C     C_R   0.940613 0.600958 0.525558 0.188432
C33   C     C_R   0.037917 0.654531 0.527690 0.147282
C34   C     C_R   0.254842 0.531657 0.946210 -0.148247
C35   C     C_R   0.044763 0.643946 0.445354 -0.231644
C36   C     C_R   0.859253 0.529501 0.360606 -0.147957
C37   C     C_R   0.850709 0.545864 0.442832 -0.224242
C38   C     C_R   0.710386 0.097395 0.636365 0.123344
C39   C     C_R   0.447838 0.851020 0.316481 0.126527
C40   C     C_R   0.592645 0.027984 0.388331 0.147639
C41   C     C_R   0.500756 0.945631 0.313117 -0.227567
C42   C     C_R   0.495132 0.832636 0.389648 -0.240744
C43   C     C_R   0.581431 0.916301 0.467902 0.142545
C44   C     C_R   0.626961 0.016728 0.469468 0.123205
C45   C     C_R   0.779433 0.297621 0.734353 -0.118015
C46   C     C_R   0.694675 0.106219 0.554289 -0.263490
C47   C     C_R   0.676492 0.995507 0.632807 -0.169187
C48   C     C_R   0.613351 0.904863 0.548424 -0.183857
C49   C     C_R   0.097166 0.056959 0.977088 0.036900
C50   C     C_R   0.004568 0.066463 0.966280 0.001571
C51   C     C_R   0.910763 0.970449 0.910551 -0.162574
C52   C     C_R   0.910755 0.874200 0.857117 -0.215609
C53   C     C_R   0.003899 0.871436 0.858621 0.079780
C54   C     C_R   0.096232 0.961735 0.924019 0.070581
C55   C     C_3   0.193160 0.018166 0.917126 -0.214382
C56   C     C_R   0.261015 0.444781 0.031219 0.686950
C57   C     C_3   0.193985 0.123137 0.974680 0.592957
C58   C     C_R   0.106082 0.606682 0.824511 -0.152574
C59   C     C_R   0.916821 0.191059 0.973427 -0.105601
C60   C     C_R   0.003608 0.172839 0.998143 0.034809
H1    H     H_    0.166180 0.289886 0.089583 0.229402
H2    H     H_    0.807298 0.433914 0.167628 0.145624
H3    H     H_    0.826853 0.707911 0.946639 0.152001
H4    H     H_    0.311832 0.832464 0.144656 0.160435
H5    H     H_    0.668953 0.346548 0.017277 0.112614
H6    H     H_    0.337139 0.295543 0.963391 0.190616
H7    H     H_    0.488363 0.279185 0.946997 0.136209
H8    H     H_    0.619770 0.635818 0.971032 0.226593
H9    H     H_    0.855334 0.503564 0.707403 0.088086
H10   H     H_    0.556509 0.602970 0.846427 0.163375
H11   H     H_    0.411475 0.621822 0.866210 -0.027830
H12   H     H_    0.119875 0.684095 0.447741 0.196369
H13   H     H_    0.789325 0.477428 0.297250 0.132600
H14   H     H_    0.203262 0.749798 0.613475 0.134091
H15   H     H_    0.775169 0.506342 0.440622 0.140360
H16   H     H_    0.195373 0.723218 0.745796 0.114637
H17   H     H_    0.860908 0.545403 0.598014 0.116813
H18   H     H_    0.725273 0.183877 0.556265 0.145477
H19   H     H_    0.747628 0.133118 0.825180 0.087930
H20   H     H_    0.692215 0.985492 0.694785 0.113825
H21   H     H_    0.581096 0.827513 0.547375 0.132380
H22   H     H_    0.468295 0.958982 0.254862 0.137966
H23   H     H_    0.458439 0.758263 0.391649 0.134049
H24   H     H_    0.836538 0.970571 0.901962 0.124158
H25   H     H_    0.837872 0.803591 0.810148 0.134472
H26   H     H_    0.257912 0.003975 0.953559 0.174417
H27   H     H_    0.262668 0.562514 0.897897 0.126330
H28   H     H_    0.181988 0.173596 0.940578 0.010441
H29   H     H_    0.776274 0.324949 0.682536 0.096502
H30   H     H_    0.185473 0.665806 0.852371 0.101749
H31   H     H_    0.837415 0.132846 0.945418 0.086502
H32   H     H_    0.299937 0.648671 0.290931 0.166270
N1    N     N_R   0.055640 0.348550 0.045600 -0.058674
N2    N     N_R   0.798340 0.505430 0.954400 -0.063663
N3    N     N_R   0.931580 0.439470 0.128350 -0.070081
N4    N     N_R   0.051950 0.704140 0.002340 -0.111498
N5    N     N_R   0.944360 0.651450 0.954400 -0.076525
N6    N     N_R   0.039170 0.492150 0.176290 -0.103055
N7    N     N_R   0.188710 0.696600 0.128350 -0.064150
N8    N     N_R   0.794820 0.447010 0.002340 -0.045668
N9    N     N_R   0.960830 0.507850 0.823710 -0.039916
N10   N     N_R   0.811290 0.303400 0.871650 -0.039020
N11   N     N_R   0.205180 0.552990 0.997660 -0.080931
N12   N     N_R   0.814810 0.361830 0.823710 -0.035813
N13   N     N_R   0.201660 0.494570 0.045600 -0.113826
N14   N     N_R   0.068420 0.560530 0.871650 -0.042742
N15   N     N_R   0.948050 0.295860 0.997660 -0.044725
N16   N     N_R   0.185190 0.638170 0.176290 -0.065619
Ni1   Ni    Ni4+2 0.119330 0.493420 0.109950 0.266434
Ni2   Ni    Ni4+2 0.880670 0.506580 0.890050 0.193435
Ni3   Ni    Ni4+2 0.872590 0.372590 0.000000 0.203402
Ni4   Ni    Ni4+2 0.127410 0.627410 0.000000 0.230572
N17   N     N_2   0.671858 0.499973 0.826544 -0.119777
H33   H     H_    0.731477 0.547283 0.817950 0.162723
C61   C     C_3   0.599422 0.400878 0.743086 -0.900344
H34   H     H_    0.525504 0.405081 0.713498 0.254761
H35   H     H_    0.582997 0.329472 0.755877 0.253869
H36   H     H_    0.631630 0.389708 0.691105 0.235741
F1    F     F_    0.177595 0.887723 0.095579 -0.720598
F2    F     F_    0.159544 0.595166 0.334236 -0.751817
F3    F     F_    0.478896 0.663993 0.007588 -0.674600
N18   N     N_2   0.642116 0.125907 0.385768 -0.119975
H37   H     H_    0.594247 0.139570 0.338670 0.186671
C62   C     C_3   0.740055 0.143951 0.379905 -0.894664
H38   H     H_    0.775853 0.224304 0.383638 0.250814
H39   H     H_    0.727345 0.082255 0.313433 0.262483
H40   H     H_    0.794804 0.141262 0.437952 0.256700
N19   N     N_2   0.179114 0.996972 0.823056 -0.106851
H41   H     H_    0.247873 0.016132 0.816259 0.182394
C63   C     C_3   0.107356 0.023453 0.768182 -0.905364
H42   H     H_    0.086356 0.976188 0.694113 0.261544
H43   H     H_    0.144670 0.109797 0.786273 0.231746
H44   H     H_    0.034820 0.004152 0.777826 0.256135
F4    F     F_    0.276510 0.179780 0.061345 -0.646713
F5    F     F_    0.302466 0.405512 0.085807 -0.700435

loop_
_geom_bond_atom_site_label_1
_geom_bond_atom_site_label_2
_ccdc_geom_bond_type
C12   H9    S    
C61   H35   S    
C3    C23   A    
C19   C20   A    
C8    N4    A    
C2    C12   A    
N19   H41   S    
N3    N6    A    
C10   C16   A    
C6    N17   S    
C13   H5    S    
C53   C54   A    
C48   H21   S    
N7    N16   A    
N4    Ni4   S    
C18   C24   A    
C20   H6    S    
C36   C37   A    
C11   C14   A    
C23   N10   A    
C41   H22   S    
C49   C54   A    
C29   C33   A    
C49   C57   S    
N16   Ni1   S    
C11   N7    A    
C18   C19   A    
C10   N6    A    
C14   C39   S    
C4    C19   S    
C15   C22   S    
C47   C48   A    
C3    C38   S    
C6    N2    A    
C18   C26   S    
C26   F3    S    
C45   H29   S    
C43   C48   A    
C16   C27   S    
C6    C15   A    
C59   C60   A    
N6    Ni1   S    
C21   C22   A    
C4    C56   A    
C26   H11   S    
N10   Ni3   S    
C25   H8    S    
C47   H20   S    
C44   C46   A    
C31   H17   S    
C39   C42   A    
C4    C34   A    
C51   C52   A    
C24   C25   S    
C39   C41   A    
C11   H4    S    
C1    C60   A    
C46   H18   S    
N14   Ni4   S    
C29   H14   S    
C27   C35   A    
N9    Ni2   S    
N2    Ni2   S    
C59   N15   A    
C1    H1    S    
N11   Ni4   S    
C58   N14   A    
C63   H43   S    
C43   C44   A    
C7    H2    S    
C29   C30   A    
C45   N12   A    
C30   H16   S    
C31   C32   A    
N2    N8    A    
C61   H36   S    
N4    N5    A    
C50   C51   A    
C38   C47   A    
N11   N13   A    
C59   H31   S    
C32   C37   A    
C20   C21   A    
N10   N12   A    
C58   H30   S    
C5    C14   A    
C62   H40   S    
C9    C17   A    
C40   C41   A    
C52   H25   S    
C35   H12   S    
C55   C57   S    
C22   C24   A    
C57   F4    S    
C63   H44   S    
C42   C43   A    
N18   C62   S    
C56   F5    S    
C7    N3    A    
C52   C53   A    
C62   H39   S    
N17   H33   S    
N9    N14   A    
N13   Ni1   S    
C54   C55   S    
C7    C16   A    
C9    N5    A    
C9    H3    S    
N15   Ni3   S    
C28   C31   A    
C42   H23   S    
C34   N11   A    
N19   C63   S    
C2    C58   A    
C27   C36   A    
C40   N18   S    
C8    C17   A    
C57   H28   S    
C50   C60   S    
C32   C33   A    
C13   N8    A    
C13   C15   A    
C63   H42   S    
C25   C26   S    
C12   N9    A    
N3    Ni3   S    
N1    N15   A    
N12   Ni2   S    
N5    Ni2   S    
C55   H26   S    
N7    Ni4   S    
C28   C30   A    
C33   C35   A    
C3    C45   A    
C34   H27   S    
C37   H15   S    
C56   N13   A    
C38   C46   A    
C5    H32   S    
C10   F2    S    
C36   H13   S    
C40   C44   A    
C55   N19   S    
N8    Ni3   S    
C1    N1    A    
C49   C50   A    
C2    C28   S    
C25   H10   S    
C23   H19   S    
N18   H37   S    
C51   H24   S    
C21   H7    S    
C61   H34   S    
C8    F1    S    
N1    Ni1   S    
C62   H38   S    
N17   C61   S    
C5    N16   A    
