data_mof_unit_6202.cif
_audit_creation_date              2012-12-11T15:07:30-0500
_audit_creation_method            fapswitch 2.2
_symmetry_space_group_name_H-M    P1
_symmetry_Int_Tables_number       1
_space_group_crystal_system       triclinic
_cell_length_a                    21.595432
_cell_length_b                    7.19663
_cell_length_c                    18.820336
_cell_angle_alpha                 90.000033
_cell_angle_beta                  95.41214
_cell_angle_gamma                 90.0
_cell_volume                      2911.91056095

loop_
_atom_site_label
_atom_site_type_symbol
_atom_type_description
_atom_site_fract_x
_atom_site_fract_y
_atom_site_fract_z
_atom_type_partial_charge
O1    O     O_R   0.449650 0.506500 0.414480 -0.534985
O2    O     O_R   0.550350 0.006500 0.585520 -0.534985
O3    O     O_R   0.432010 0.173150 0.560250 -0.538378
O4    O     O_R   0.567990 0.673150 0.439750 -0.538378
C1    C     C_R   0.417221 0.344363 0.582453 0.696742
C2    C     C_R   0.582779 0.844363 0.417547 0.696742
O5    O     O_R   0.442320 0.176650 0.413480 -0.536023
O6    O     O_R   0.557680 0.676650 0.586520 -0.536023
O7    O     O_R   0.560730 0.008380 0.437700 -0.540001
O8    O     O_R   0.439270 0.508380 0.562300 -0.540001
C3    C     C_R   0.426956 0.345815 0.389041 0.709043
C4    C     C_R   0.573044 0.845815 0.610958 0.709043
O9    O     O_3   0.538840 0.339860 0.508120 -0.374478
O10   O     O_3   0.461160 0.839860 0.491880 -0.374478
V1    V     V_3+5 0.492800 0.064220 0.498490 1.407574
V2    V     V_3+5 0.507200 0.564220 0.501510 1.407574
C5    C     C_R   0.879876 0.923954 0.691662 -0.246065
C6    C     C_R   0.120124 0.423955 0.308338 -0.246065
H1    H     H_    0.804911 0.902375 0.576656 0.118874
H2    H     H_    0.195089 0.402376 0.423344 0.118874
H3    H     H_    0.902315 0.920966 0.642490 0.123939
H4    H     H_    0.097685 0.420966 0.357510 0.123939
C7    C     C_R   0.888953 0.939017 0.820201 -0.127185
C8    C     C_R   0.111047 0.439017 0.179799 -0.127185
C9    C     C_R   0.586692 0.847249 0.743000 0.162712
C10   C     C_R   0.413308 0.347249 0.257000 0.162712
C11   C     C_R   0.622961 0.857971 0.808001 -0.132770
C12   C     C_R   0.377038 0.357971 0.191999 -0.132770
C13   C     C_R   0.686937 0.877960 0.811337 -0.200877
C14   C     C_R   0.313063 0.377959 0.188663 -0.200877
C15   C     C_R   0.718480 0.888185 0.749172 0.063996
C16   C     C_R   0.281520 0.388185 0.250828 0.063996
C17   C     C_R   0.682430 0.876310 0.680621 0.007524
C18   C     C_R   0.317570 0.376309 0.319379 0.007524
C19   C     C_R   0.785120 0.908272 0.753738 0.093025
C20   C     C_R   0.214879 0.408272 0.246261 0.093025
C21   C     C_R   0.814941 0.910355 0.690096 0.039234
C22   C     C_R   0.185059 0.410355 0.309904 0.039234
C23   C     C_R   0.780424 0.898845 0.624447 -0.166332
C24   C     C_R   0.219576 0.398845 0.375553 -0.166332
C25   C     C_R   0.715663 0.884846 0.618241 0.129039
C26   C     C_R   0.284337 0.384846 0.381759 0.129039
C27   C     C_R   0.823813 0.925229 0.819154 -0.288080
C28   C     C_R   0.176186 0.425229 0.180846 -0.288080
C29   C     C_R   0.916914 0.940104 0.756103 0.402639
C30   C     C_R   0.083086 0.440104 0.243897 0.402639
C31   C     C_R   0.615282 0.855887 0.678268 -0.080997
C32   C     C_R   0.384717 0.355886 0.321732 -0.080997
H5    H     H_    0.805236 0.928335 0.870148 0.108131
H6    H     H_    0.194764 0.428336 0.129851 0.108131
H7    H     H_    0.710431 0.883699 0.864301 0.111655
H8    H     H_    0.289569 0.383699 0.135698 0.111655
H9    H     H_    0.601145 0.850820 0.857508 0.123937
H10   H     H_    0.398855 0.350820 0.142492 0.123937
C33   C     C_R   0.642789 0.709876 0.321193 -0.162860
C34   C     C_R   0.357211 0.209876 0.678807 -0.162861
C35   C     C_R   0.632278 0.856668 0.367828 -0.102673
C36   C     C_R   0.367721 0.356668 0.632171 -0.102673
C37   C     C_R   0.668405 0.019292 0.365803 -0.207442
C38   C     C_R   0.331595 0.519292 0.634197 -0.207442
C39   C     C_R   0.715118 0.035673 0.318933 -0.007901
C40   C     C_R   0.284881 0.535673 0.681067 -0.007901
C41   C     C_R   0.724512 0.888799 0.271384 0.008462
C42   C     C_R   0.275488 0.388799 0.728616 0.008461
C43   C     C_R   0.687880 0.726212 0.272273 0.147104
C44   C     C_R   0.312119 0.226212 0.727727 0.147105
C45   C     C_R   0.752619 0.196145 0.318693 0.387309
C46   C     C_R   0.247381 0.696145 0.681307 0.387310
C47   C     C_R   0.797700 0.211119 0.269848 -0.256703
C48   C     C_R   0.202300 0.711119 0.730152 -0.256703
C49   C     C_R   0.806939 0.066991 0.221923 0.025902
C50   C     C_R   0.193061 0.566991 0.778077 0.025902
C51   C     C_R   0.770096 0.905200 0.222348 -0.002939
C52   C     C_R   0.229904 0.405200 0.777652 -0.002939
C53   C     C_R   0.778268 0.760597 0.173380 0.010602
C54   C     C_R   0.221732 0.260597 0.826620 0.010602
C55   C     C_R   0.741259 0.599826 0.174943 -0.193721
C56   C     C_R   0.258741 0.099826 0.825057 -0.193721
C57   C     C_R   0.696619 0.583106 0.223734 -0.151099
C58   C     C_R   0.303381 0.083106 0.776266 -0.151099
C59   C     C_R   0.852829 0.082063 0.174097 -0.244547
C60   C     C_R   0.147171 0.582063 0.825903 -0.244547
C61   C     C_R   0.862471 0.938010 0.125924 -0.176790
C62   C     C_R   0.137529 0.438010 0.874075 -0.176790
C63   C     C_R   0.823021 0.779699 0.123598 0.354415
C64   C     C_R   0.176978 0.279699 0.876402 0.354415
H11   H     H_    0.614860 0.584759 0.321727 0.132124
H12   H     H_    0.385140 0.084759 0.678273 0.132125
H13   H     H_    0.660762 0.132429 0.401933 0.175785
H14   H     H_    0.339238 0.632429 0.598067 0.175785
H15   H     H_    0.824935 0.337258 0.268956 0.148998
H16   H     H_    0.175065 0.837258 0.731044 0.148998
H17   H     H_    0.882113 0.204666 0.175526 0.176409
H18   H     H_    0.117887 0.704665 0.824474 0.176409
H19   H     H_    0.746817 0.485579 0.138632 0.164964
H20   H     H_    0.253182 0.985579 0.861368 0.164964
H21   H     H_    0.668846 0.457636 0.223476 0.130187
H22   H     H_    0.331154 0.957637 0.776524 0.130187
O11   O     O_R   0.060820 0.290050 0.937800 -0.510584
O12   O     O_R   0.939180 0.790050 0.062200 -0.510584
O13   O     O_R   0.057690 0.616620 0.086540 -0.552076
O14   O     O_R   0.942310 0.116620 0.913460 -0.552076
C65   C     C_R   0.071537 0.448398 0.111803 0.733337
C66   C     C_R   0.928463 0.948398 0.888197 0.733337
O15   O     O_R   0.068010 0.619890 0.939770 -0.538533
O16   O     O_R   0.931990 0.119890 0.060230 -0.538533
O17   O     O_R   0.949640 0.787940 0.914460 -0.533926
O18   O     O_R   0.050360 0.287940 0.085540 -0.533927
C67   C     C_R   0.085445 0.450727 0.920505 0.718754
C68   C     C_R   0.914555 0.950727 0.079494 0.718754
O19   O     O_3   0.961210 0.453080 0.991940 -0.373016
O20   O     O_3   0.038790 0.953080 0.008060 -0.373016
V3    V     V_3+5 0.007200 0.728820 0.001500 1.471788
V4    V     V_3+5 0.992800 0.228820 0.998500 1.471788
O21   O     O_3   0.980982 0.940603 0.756571 -0.561346
C69   C     C_3   0.000764 0.121787 0.740956 0.086067
H23   H     H_    0.991677 0.219052 0.784819 0.129841
H24   H     H_    0.977118 0.174255 0.689652 0.111917
C70   C     C_3   0.070330 0.118627 0.734099 -0.700011
H25   H     H_    0.080313 0.030260 0.688173 0.206140
H26   H     H_    0.087269 0.261694 0.725275 0.185065
H27   H     H_    0.095266 0.061461 0.783572 0.235794
O22   O     O_3   0.019017 0.440603 0.243429 -0.561346
C71   C     C_3   0.999236 0.621788 0.259044 0.086067
H28   H     H_    0.008323 0.719052 0.215181 0.129841
H29   H     H_    0.022882 0.674256 0.310348 0.111917
C72   C     C_3   0.929669 0.618627 0.265901 -0.700011
H30   H     H_    0.919686 0.530260 0.311827 0.206140
H31   H     H_    0.912731 0.761694 0.274725 0.185065
H32   H     H_    0.904734 0.561461 0.216427 0.235794
O23   O     O_3   0.741741 0.345219 0.362150 -0.554851
C73   C     C_3   0.788425 0.349796 0.419822 0.088315
H33   H     H_    0.835085 0.373842 0.400855 0.115324
H34   H     H_    0.789026 0.217806 0.450928 0.111593
C74   C     C_3   0.774848 0.508852 0.469176 -0.695863
H35   H     H_    0.728848 0.487507 0.489776 0.226909
H36   H     H_    0.811197 0.515048 0.514961 0.174166
H37   H     H_    0.774424 0.642534 0.439617 0.222000
O24   O     O_3   0.258259 0.845219 0.637850 -0.554851
C75   C     C_3   0.211575 0.849797 0.580178 0.088314
H38   H     H_    0.164915 0.873843 0.599146 0.115324
H39   H     H_    0.210973 0.717807 0.549072 0.111593
C76   C     C_3   0.225152 0.008852 0.530824 -0.695862
H40   H     H_    0.271151 0.987507 0.510224 0.226909
H41   H     H_    0.188803 0.015049 0.485039 0.174166
H42   H     H_    0.225576 0.142534 0.560383 0.222000
O25   O     O_3   0.829209 0.641050 0.073746 -0.546071
C77   C     C_3   0.790255 0.684868 0.011443 0.089924
H43   H     H_    0.802746 0.822231 0.989600 0.081679
H44   H     H_    0.740513 0.687362 0.022632 0.108871
C78   C     C_3   0.797717 0.537818 0.954819 -0.672240
H45   H     H_    0.787477 0.397967 0.975783 0.208674
H46   H     H_    0.765094 0.566518 0.906883 0.167932
H47   H     H_    0.845914 0.539855 0.939014 0.234938
O26   O     O_3   0.170791 0.141050 0.926254 -0.546071
C79   C     C_3   0.209745 0.184867 0.988556 0.089926
H48   H     H_    0.197254 0.322230 0.010400 0.081678
H49   H     H_    0.259487 0.187362 0.977368 0.108871
C80   C     C_3   0.202283 0.037817 0.045180 -0.672240
H50   H     H_    0.212523 0.897967 0.024217 0.208674
H51   H     H_    0.234906 0.066517 0.093116 0.167932
H52   H     H_    0.154086 0.039854 0.060986 0.234938
C81   C     C_3   0.517182 0.827077 0.746288 -0.796806
H53   H     H_    0.489975 0.819045 0.693474 0.204536
H54   H     H_    0.507617 0.698441 0.775968 0.207069
H55   H     H_    0.499478 0.947985 0.774974 0.200413
C82   C     C_3   0.482818 0.327076 0.253712 -0.796807
H56   H     H_    0.510025 0.319044 0.306526 0.204536
H57   H     H_    0.492383 0.198441 0.224031 0.207069
H58   H     H_    0.500521 0.447985 0.225026 0.200413
C83   C     C_3   0.685608 0.880311 0.543266 -0.790992
H59   H     H_    0.719648 0.890800 0.502786 0.194226
H60   H     H_    0.661428 0.745927 0.533638 0.209331
H61   H     H_    0.654528 0.001912 0.534293 0.214234
C84   C     C_3   0.314392 0.380311 0.456733 -0.790992
H62   H     H_    0.280352 0.390800 0.497214 0.194227
H63   H     H_    0.338572 0.245926 0.466362 0.209331
H64   H     H_    0.345472 0.501912 0.465707 0.214234

loop_
_geom_bond_atom_site_label_1
_geom_bond_atom_site_label_2
_ccdc_geom_bond_type
C74   H37   S    
C22   C24   A    
C83   H59   S    
C41   C43   A    
O12   C68   A    
C60   H18   S    
C11   C13   A    
O13   V3    S    
C81   H53   S    
O1    C3    A    
C77   C78   S    
O2    C4    A    
O11   V4    S    
O22   C71   S    
C84   H63   S    
O5    C3    A    
C83   H60   S    
C52   C54   A    
C1    C36   S    
O16   V4    S    
C7    C29   A    
C16   C20   A    
O15   V3    S    
C79   H48   S    
C81   H54   S    
C54   C56   A    
C26   C84   S    
O16   C68   A    
H2    C24   S    
C56   C58   A    
C35   C37   A    
C36   C38   A    
C76   H40   S    
O11   C67   A    
C7    C27   A    
C69   H23   S    
C38   C40   A    
C37   H13   S    
C78   H47   S    
O18   V4    S    
C47   C49   A    
C29   O21   S    
O17   V3    S    
C40   C42   A    
C59   C61   A    
C53   C63   A    
O25   C77   S    
C56   H20   S    
C73   H33   S    
C33   H11   S    
C18   C26   A    
C78   H45   S    
C80   H51   S    
C65   O18   A    
C84   H64   S    
C19   C27   A    
C9    C31   A    
C10   C32   A    
C58   H22   S    
C24   C26   A    
O13   C65   A    
C74   H36   S    
C13   C15   A    
C51   C53   A    
C2    C35   S    
C3    C32   S    
C73   H34   S    
C2    O7    A    
C4    C31   S    
C6    C30   A    
O20   V3    S    
C33   C43   A    
C82   H58   S    
C70   H26   S    
C83   H61   S    
C48   H16   S    
C10   C82   S    
C37   C39   A    
C74   H35   S    
C81   H55   S    
C55   C57   A    
C77   H43   S    
C50   C52   A    
C38   H14   S    
C76   H42   S    
C82   H56   S    
C49   C51   A    
C12   H10   S    
C27   H5    S    
O5    V1    S    
C41   C51   A    
C55   H19   S    
C5    H3    S    
C5    C29   A    
C82   H57   S    
C45   C47   A    
C42   C44   A    
O4    V2    S    
C64   O26   S    
C72   H31   S    
O14   V4    S    
C59   H17   S    
C39   C45   A    
C80   H50   S    
O6    C4    A    
C43   C57   A    
C15   C17   A    
C80   H52   S    
O1    V2    S    
C5    C21   A    
C75   H38   S    
C75   C76   S    
O14   C66   A    
O2    V1    S    
C53   C55   A    
H1    C23   S    
C69   H24   S    
C71   C72   S    
C46   C48   A    
C61   C63   A    
C8    C28   A    
C60   C62   A    
C33   C35   A    
C17   C31   A    
C15   C19   A    
C30   O22   S    
C20   C28   A    
O4    C2    A    
C18   C32   A    
C72   H30   S    
C54   C64   A    
O3    V1    S    
C71   H29   S    
C13   H7    S    
C70   H27   S    
C28   H6    S    
C76   H41   S    
O15   C67   A    
C61   C68   S    
C19   C21   A    
C6    H4    S    
C57   H21   S    
C39   C41   A    
C45   O23   S    
O12   V3    S    
C63   O25   S    
C77   H44   S    
O3    C1    A    
O24   C75   S    
C11   H9    S    
C75   H39   S    
C79   C80   S    
C9    C11   A    
C44   C58   A    
C10   C12   A    
C62   C67   S    
C69   C70   S    
C40   C46   A    
C8    C65   S    
C8    C30   A    
C79   H49   S    
C25   C83   S    
O7    V1    S    
C72   H32   S    
C17   C25   A    
C12   C14   A    
C21   C23   A    
C84   H62   S    
O8    V2    S    
C14   C16   A    
O21   C69   S    
C14   H8    S    
C9    C81   S    
C73   C74   S    
C34   C44   A    
C20   C22   A    
C34   C36   A    
O19   V4    S    
C78   H46   S    
C7    C66   S    
C6    C22   A    
C34   H12   S    
C1    O8    A    
C23   C25   A    
O6    V2    S    
C70   H25   S    
O9    V2    S    
O26   C79   S    
C42   C52   A    
O10   V1    S    
C62   C64   A    
C46   O24   S    
C48   C50   A    
C47   H15   S    
C66   O17   A    
C50   C60   A    
O23   C73   S    
C16   C18   A    
C71   H28   S    
C49   C59   A    
