data_mof_unit_35760.cif
_audit_creation_date              2012-12-10T17:25:36-0500
_audit_creation_method            fapswitch 2.2
_symmetry_space_group_name_H-M    P1
_symmetry_Int_Tables_number       1
_space_group_crystal_system       triclinic
_cell_length_a                    10.177862
_cell_length_b                    11.098135
_cell_length_c                    23.797402
_cell_angle_alpha                 89.870713
_cell_angle_beta                  82.965596
_cell_angle_gamma                 94.858694
_cell_volume                      2658.00567541

loop_
_atom_site_label
_atom_site_type_symbol
_atom_type_description
_atom_site_fract_x
_atom_site_fract_y
_atom_site_fract_z
_atom_type_partial_charge
C1    C     C_R   0.556243 0.730700 0.494045 0.952282
C2    C     C_R   0.439965 0.394468 0.298675 0.171128
C3    C     C_R   0.507174 0.607441 0.761375 -0.240595
C4    C     C_R   0.430163 0.405206 0.240572 -0.231001
C5    C     C_R   0.491602 0.497041 0.792648 0.190488
C6    C     C_R   0.487946 0.506186 0.207925 0.215723
C7    C     C_2   0.591693 0.859552 0.495024 -0.365705
C8    C     C_2   0.421844 0.134384 0.512182 -0.249909
C9    C     C_2   0.493788 0.931252 0.508305 -0.163244
C10   C     C_2   0.519635 0.061142 0.510858 -0.196499
C11   C     C_2   0.920918 0.480844 0.514120 -0.158116
C12   C     C_R   0.446530 0.268125 0.508611 0.822389
C13   C     C_2   0.069827 0.469959 0.507351 -0.139650
C14   C     C_R   0.502896 0.501547 0.610028 0.906106
C15   C     C_R   0.497073 0.498806 0.389594 0.906055
C16   C     C_R   0.521717 0.399550 0.117347 0.519159
C17   C     C_R   0.562123 0.593555 0.879960 0.516154
C18   C     C_R   0.461717 0.601256 0.116946 0.565525
C19   C     C_R   0.436183 0.404164 0.889662 0.570376
C20   C     C_R   0.496368 0.609260 0.058082 -0.060100
C21   C     C_R   0.469312 0.391353 0.944861 -0.053329
C22   C     C_R   0.509530 0.500123 0.029481 -0.064703
C23   C     C_R   0.477922 0.387723 0.760804 0.237773
C24   C     C_R   0.511849 0.497764 0.970933 -0.060744
C25   C     C_R   0.509321 0.392257 0.059473 -0.019945
C26   C     C_R   0.543447 0.603881 0.939156 -0.014442
C27   C     C_R   0.508955 0.718685 0.026390 0.223485
C28   C     C_R   0.447541 0.282794 0.977314 0.220180
C29   C     C_R   0.546626 0.715469 0.967259 -0.233569
C30   C     C_R   0.486991 0.282116 0.031745 -0.239823
C31   C     C_3   0.559952 0.881466 0.091831 -0.654449
C32   C     C_3   0.442333 0.108234 0.916475 -0.708996
C33   C     C_R   0.111626 0.645050 0.561683 0.257975
C34   C     C_R   0.539859 0.608175 0.236264 0.242755
C35   C     C_R   0.156615 0.660067 0.615240 -0.154034
C36   C     C_R   0.107235 0.745407 0.653428 -0.197864
C37   C     C_R   0.004025 0.811512 0.641030 -0.085859
C38   C     C_R   0.956224 0.797954 0.588840 -0.139417
C39   C     C_R   0.014654 0.720914 0.548419 -0.232551
C40   C     C_R   0.890701 0.370232 0.432165 0.273956
C41   C     C_R   0.833688 0.250598 0.430864 -0.150412
C42   C     C_R   0.888871 0.166698 0.393606 -0.202985
C43   C     C_R   0.002468 0.201060 0.356469 -0.095016
C44   C     C_R   0.059725 0.320282 0.356161 -0.125896
C45   C     C_R   0.476570 0.392070 0.701543 -0.151391
C46   C     C_R   0.003033 0.405399 0.392877 -0.212376
C47   C     C_3   0.587619 0.224387 0.797977 -0.805902
C48   C     C_3   0.735537 0.708465 0.180944 -0.821210
C49   C     C_R   0.439255 0.279595 0.671420 0.109637
C50   C     C_R   0.319635 0.268419 0.647852 -0.150097
C51   C     C_R   0.267933 0.155120 0.631062 -0.169840
C52   C     C_R   0.339644 0.053788 0.635092 -0.101342
C53   C     C_R   0.462239 0.066133 0.655693 -0.164001
C54   C     C_R   0.512759 0.178702 0.672788 -0.152884
C55   C     C_R   0.546727 0.722584 0.326687 0.106108
C56   C     C_R   0.529880 0.606894 0.296294 -0.146996
C57   C     C_R   0.439469 0.760833 0.362793 -0.137783
C58   C     C_R   0.447264 0.875974 0.385900 -0.127138
C59   C     C_R   0.561103 0.955106 0.372519 -0.095853
C60   C     C_R   0.667561 0.918382 0.336265 -0.161595
C61   C     C_R   0.662610 0.801101 0.315443 -0.151386
C62   C     C_3   0.580775 0.754189 0.618808 -0.802050
C63   C     C_3   0.421700 0.246694 0.380752 -0.749205
C64   C     C_R   0.506511 0.501995 0.671707 -0.126574
C65   C     C_R   0.489652 0.498181 0.327512 -0.133746
C66   C     C_R   0.530826 0.610377 0.701712 0.171404
H1    H     H_    0.562856 0.798948 0.942768 0.167533
H2    H     H_    0.875951 0.523375 0.551618 0.186171
H3    H     H_    0.447786 0.892877 0.024929 0.209490
H4    H     H_    0.619355 0.963013 0.072842 0.210064
H5    H     H_    0.630646 0.817666 0.102733 0.248175
H6    H     H_    0.497621 0.908682 0.130489 0.269933
H7    H     H_    0.317181 0.129714 0.992099 0.218924
H8    H     H_    0.427140 0.010940 0.928598 0.200676
H9    H     H_    0.551606 0.133366 0.911679 0.224713
H10   H     H_    0.400698 0.117140 0.875722 0.288362
H11   H     H_    0.218805 0.600311 0.631590 0.175875
H12   H     H_    0.481164 0.197288 0.054876 0.178234
H13   H     H_    0.142597 0.753725 0.694480 0.152915
H14   H     H_    0.959422 0.871675 0.672150 0.136238
H15   H     H_    0.874659 0.847920 0.579318 0.136638
H16   H     H_    0.978069 0.715608 0.507695 0.147320
H17   H     H_    0.753775 0.217342 0.461738 0.161559
H18   H     H_    0.847556 0.073554 0.395883 0.134258
H19   H     H_    0.047100 0.134831 0.328618 0.130150
H20   H     H_    0.149083 0.346723 0.327912 0.159128
H21   H     H_    0.050663 0.496460 0.392724 0.142326
H22   H     H_    0.387117 0.209594 0.779649 0.254497
H23   H     H_    0.508078 0.693539 0.782562 0.191253
H24   H     H_    0.575078 0.123845 0.799148 0.233629
H25   H     H_    0.618887 0.258908 0.838122 0.250091
H26   H     H_    0.670354 0.256157 0.765320 0.233216
H27   H     H_    0.572527 0.796055 0.219728 0.250770
H28   H     H_    0.782616 0.801904 0.172330 0.236974
H29   H     H_    0.740940 0.659151 0.140236 0.253341
H30   H     H_    0.792849 0.663058 0.210468 0.247853
H31   H     H_    0.262605 0.345517 0.644787 0.157562
H32   H     H_    0.178706 0.147333 0.610702 0.145218
H33   H     H_    0.303319 0.967334 0.619373 0.148862
H34   H     H_    0.380710 0.330510 0.219915 0.175356
H35   H     H_    0.516069 0.988030 0.660435 0.143386
H36   H     H_    0.606226 0.185405 0.689129 0.147131
H37   H     H_    0.348051 0.703210 0.371410 0.148723
H38   H     H_    0.364028 0.904521 0.414028 0.138038
H39   H     H_    0.568641 0.043723 0.390768 0.151884
H40   H     H_    0.754152 0.980306 0.324180 0.138755
H41   H     H_    0.747392 0.773700 0.288610 0.152523
H42   H     H_    0.627814 0.787189 0.700266 0.232732
H43   H     H_    0.618146 0.850027 0.611335 0.212953
H44   H     H_    0.473680 0.743337 0.612997 0.253758
H45   H     H_    0.613177 0.093920 0.525807 0.167950
H46   H     H_    0.645645 0.704307 0.588519 0.270728
H47   H     H_    0.371008 0.205949 0.299259 0.230147
H48   H     H_    0.388819 0.150158 0.389469 0.216690
H49   H     H_    0.356679 0.296202 0.411119 0.267425
H50   H     H_    0.529346 0.262057 0.385340 0.256027
H51   H     H_    0.391172 0.894321 0.517528 0.195282
H52   H     H_    0.425333 0.189854 0.548799 0.125832
H53   H     H_    0.695121 0.895455 0.485480 0.150830
H54   H     H_    0.107205 0.391593 0.485776 0.178229
N1    N     N_R   0.492904 0.503408 0.146398 -0.336893
N2    N     N_2   0.396935 0.278670 0.324848 -0.326416
N3    N     N_R   0.497918 0.497022 0.854373 -0.333920
N4    N     N_2   0.842710 0.448880 0.476480 -0.142547
N5    N     N_2   0.157290 0.551120 0.523520 -0.140453
N6    N     N_2   0.474915 0.829627 0.052031 -0.273030
N7    N     N_2   0.371874 0.179675 0.959202 -0.255015
N8    N     N_2   0.464524 0.271906 0.788045 -0.257893
N9    N     N_2   0.597850 0.712984 0.204565 -0.285981
N10   N     N_2   0.600026 0.717283 0.674786 -0.308881
O1    O     O_R   0.431060 0.692470 0.504730 -0.620790
O2    O     O_2   0.647026 0.676338 0.849834 -0.575833
O3    O     O_2   0.392267 0.686453 0.144104 -0.539524
O4    O     O_2   0.332000 0.333995 0.874702 -0.532250
O5    O     O_R   0.568940 0.307530 0.495270 -0.630793
O6    O     O_R   0.651120 0.659650 0.489640 -0.628893
O7    O     O_R   0.348880 0.340350 0.510360 -0.617283
O8    O     O_R   0.389950 0.516450 0.591390 -0.658750
O9    O     O_R   0.610050 0.483550 0.408610 -0.598723
O10   O     O_R   0.610020 0.483630 0.576300 -0.617846
O11   O     O_R   0.389980 0.516370 0.423700 -0.630888
O12   O     O_2   0.559572 0.303771 0.143964 -0.571000
Zn1   Zn    Zn3+2 0.353060 0.521920 0.510080 0.924198
Zn2   Zn    Zn3+2 0.646940 0.478080 0.489920 0.944644

loop_
_geom_bond_atom_site_label_1
_geom_bond_atom_site_label_2
_ccdc_geom_bond_type
C55   C56   S    
C34   C56   A    
C23   C45   A    
C48   H29   S    
C27   C29   A    
C9    H51   S    
C41   C42   A    
C62   N10   S    
C16   O12   S    
C35   C36   A    
C43   C44   A    
C2    C65   A    
C13   H54   S    
C32   H9    S    
C8    H52   S    
C47   N8    S    
C53   C54   A    
C52   C53   A    
C19   O4    S    
C40   C46   A    
C19   N3    A    
C59   H39   S    
C48   H28   S    
C17   C26   A    
C32   N7    S    
C36   C37   A    
C19   C21   A    
C45   C64   A    
C24   C26   A    
O8    Zn1   S    
O11   Zn1   S    
C32   H8    S    
C38   C39   A    
C27   N6    S    
C44   H20   S    
C49   C54   A    
C41   H17   S    
C16   C25   A    
C22   C25   A    
C18   O3    S    
C47   H26   S    
C15   O11   A    
C63   H48   S    
C17   N3    A    
C31   H4    S    
H47   N2    S    
C14   O8    A    
C34   N9    S    
C53   H35   S    
C12   O5    A    
C5    C23   A    
C1    O6    A    
C9    C10   S    
H42   N10   S    
C28   N7    S    
C63   H49   S    
C51   H32   S    
C31   H5    S    
O7    Zn1   S    
C59   C60   A    
C29   H1    S    
C17   O2    S    
H27   N9    S    
O1    Zn1   S    
C44   C46   A    
C15   O9    A    
C2    N2    S    
C57   H37   S    
C37   H14   S    
C31   N6    S    
C51   C52   A    
C43   H19   S    
C7    H53   S    
C42   H18   S    
C4    C6    A    
C1    O1    A    
C58   C59   A    
H7    N7    S    
C35   H11   S    
C6    C34   A    
C60   C61   A    
C64   C66   A    
C2    C4    A    
C16   N1    A    
C37   C38   A    
O9    Zn2   S    
C62   H44   S    
C45   C49   S    
C8    C12   S    
C14   C64   S    
C33   N5    S    
C50   C51   A    
C10   H45   S    
C33   C39   A    
C40   N4    S    
C63   H50   S    
C8    C10   D    
C31   H6    S    
C21   C28   A    
C14   O10   A    
H3    N6    S    
C55   C57   A    
C38   H15   S    
C47   H24   S    
C22   C24   A    
C48   N9    S    
C3    C66   A    
C58   H38   S    
C42   C43   A    
C63   N2    S    
C60   H40   S    
C11   H2    S    
C46   H21   S    
C25   C30   A    
C7    C9    D    
C40   C41   A    
C50   H31   S    
C48   H30   S    
C1    C7    S    
C47   H25   S    
C54   H36   S    
O10   Zn2   S    
C39   H16   S    
C20   C22   A    
C3    C5    A    
C36   H13   S    
C32   H10   S    
C20   C27   A    
C5    N3    S    
C52   H33   S    
C6    N1    S    
C3    H23   S    
C4    H34   S    
C13   N5    D    
H22   N8    S    
C11   C13   S    
C57   C58   A    
C62   H43   S    
N5    Zn1   S    
C55   C61   A    
C28   C30   A    
C33   C35   A    
C18   C20   A    
C61   H41   S    
O5    Zn2   S    
C18   N1    A    
C30   H12   S    
C62   H46   S    
C26   C29   A    
O6    Zn2   S    
C49   C50   A    
C21   C24   A    
C12   O7    A    
N4    Zn2   S    
C11   N4    D    
C56   C65   A    
C23   N8    S    
C66   N10   S    
C15   C65   S    
