data_mof_unit_8336.cif
_audit_creation_date              2012-12-10T19:09:02-0500
_audit_creation_method            fapswitch 2.2
_symmetry_space_group_name_H-M    P1
_symmetry_Int_Tables_number       1
_space_group_crystal_system       triclinic
_cell_length_a                    17.705292
_cell_length_b                    10.861327
_cell_length_c                    9.553096
_cell_angle_alpha                 91.12787
_cell_angle_beta                  89.694291
_cell_angle_gamma                 90.836008
_cell_volume                      1836.51383606

loop_
_atom_site_label
_atom_site_type_symbol
_atom_type_description
_atom_site_fract_x
_atom_site_fract_y
_atom_site_fract_z
_atom_type_partial_charge
C1    C     C_R   0.497693 0.262534 0.498753 0.823380
C2    C     C_R   0.885655 0.494437 0.496771 0.065500
C3    C     C_1   0.966520 0.497415 0.498770 -0.062820
C4    C     C_1   0.034256 0.499836 0.499610 0.006761
C5    C     C_R   0.153630 0.427185 0.590991 -0.235349
C6    C     C_R   0.232157 0.428300 0.591406 0.610874
C7    C     C_R   0.272899 0.505346 0.500619 -0.238882
C8    C     C_R   0.234087 0.583330 0.408722 0.208818
C9    C     C_R   0.154443 0.579695 0.409258 -0.172221
C10   C     C_R   0.114974 0.502329 0.500024 -0.009672
C11   C     C_R   0.483237 0.067508 0.622399 0.074906
C12   C     C_R   0.355749 0.501415 0.500320 0.862021
C13   C     C_R   0.488852 0.129800 0.496804 -0.057890
C14   C     C_R   0.484130 0.061780 0.370585 -0.181445
C15   C     C_R   0.484966 0.933226 0.372514 -0.224199
C16   C     C_R   0.491040 0.871494 0.500506 -0.046172
C17   C     C_R   0.484379 0.940699 0.624899 0.013853
C18   C     C_3   0.531177 0.944766 0.754956 0.431184
C19   C     C_3   0.529023 0.083726 0.751734 -0.456360
C20   C     C_R   0.560887 0.545251 0.074206 0.057611
C21   C     C_R   0.445200 0.439444 0.073510 0.580920
C22   C     C_R   0.445183 0.439558 0.924858 0.593624
C23   C     C_R   0.498638 0.737995 0.500878 0.780680
C24   C     C_R   0.561263 0.543441 0.926732 0.023175
C25   C     C_3   0.593998 0.669394 0.920795 -0.364886
C26   C     C_3   0.592386 0.673975 0.079695 0.063093
C27   C     C_R   0.644435 0.499145 0.499605 0.792053
C28   C     C_R   0.846570 0.528200 0.618844 -0.186417
C29   C     C_R   0.767960 0.529295 0.620032 -0.173337
C30   C     C_R   0.727429 0.497222 0.498635 -0.088720
C31   C     C_R   0.766719 0.462176 0.376477 -0.205942
C32   C     C_R   0.845802 0.460897 0.374008 0.290095
Cu1   Cu    Cu3+1 0.500000 0.499980 0.640670 1.024586
Cu2   Cu    Cu3+1 0.500000 0.500020 0.359330 1.002717
H1    H     H_    0.876988 0.554193 0.713319 0.149935
H2    H     H_    0.484390 0.883161 0.273515 0.154478
H3    H     H_    0.501133 0.907561 0.847557 0.048488
H4    H     H_    0.495865 0.125160 0.839408 0.181469
H5    H     H_    0.585036 0.128042 0.732171 0.217874
H6    H     H_    0.651439 0.670725 0.873288 0.219199
H7    H     H_    0.553304 0.731269 0.873853 0.208099
H8    H     H_    0.738986 0.556156 0.715648 0.158069
H9    H     H_    0.552488 0.742996 0.123669 0.146566
H10   H     H_    0.736023 0.433061 0.283564 0.156197
H11   H     H_    0.122930 0.366744 0.660847 0.176234
H12   H     H_    0.122367 0.637599 0.341236 0.154730
H13   H     H_    0.483787 0.107225 0.270685 0.179120
N1    N     N_R   0.500470 0.500930 0.147930 -0.280612
N2    N     N_R   0.500480 0.500890 0.852020 -0.273730
O1    O     O_R   0.500000 0.319640 0.618810 -0.545848
O2    O     O_R   0.500010 0.319680 0.381230 -0.563802
O3    O     O_R   0.391250 0.499990 0.618840 -0.497706
O4    O     O_R   0.391260 0.500020 0.381250 -0.511884
O5    O     O_R   0.499990 0.680320 0.618770 -0.576545
O6    O     O_R   0.500000 0.680360 0.381190 -0.607516
O7    O     O_R   0.608740 0.499980 0.618750 -0.574528
O8    O     O_R   0.608750 0.500010 0.381160 -0.582576
F1    F     F_    0.603384 0.901038 0.731511 -0.662026
F2    F     F_    0.389538 0.377621 0.141507 -0.602369
F3    F     F_    0.389726 0.377455 0.855290 -0.558679
N3    N     N_2   0.668216 0.681606 0.136917 -0.406930
H14   H     H_    0.696245 0.599642 0.145134 0.254165
C33   C     C_3   0.679715 0.767838 0.252243 -0.593365
H15   H     H_    0.740753 0.773471 0.278072 0.220828
H16   H     H_    0.648045 0.737186 0.346015 0.234522
H17   H     H_    0.660793 0.860977 0.223195 0.227658
N4    N     N_2   0.883964 0.422164 0.249237 -0.432143
H18   H     H_    0.937031 0.386789 0.263416 0.262593
C34   C     C_3   0.881513 0.508481 0.136037 -0.682737
H19   H     H_    0.911262 0.469452 0.043026 0.231766
H20   H     H_    0.909803 0.596639 0.167708 0.228724
H21   H     H_    0.822277 0.526035 0.105918 0.226441
F4    F     F_    0.268368 0.350759 0.677225 -0.590225
N5    N     N_2   0.276104 0.665543 0.320882 -0.390368
H22   H     H_    0.321335 0.709935 0.368446 0.239244
C35   C     C_3   0.237631 0.738896 0.219256 -0.626720
H23   H     H_    0.280041 0.788605 0.154584 0.225856
H24   H     H_    0.201437 0.807920 0.273248 0.216467
H25   H     H_    0.203290 0.678759 0.148090 0.240049

loop_
_geom_bond_atom_site_label_1
_geom_bond_atom_site_label_2
_ccdc_geom_bond_type
C33   H16   S    
C29   H8    S    
C35   H25   S    
C7    C8    A    
Cu1   O3    S    
C11   C19   S    
Cu2   O2    S    
N5    C35   S    
C6    F4    S    
C28   C29   A    
C26   N3    S    
C35   H24   S    
C21   F2    S    
C25   H6    S    
C22   F3    S    
C5    C6    A    
Cu1   N2    S    
C15   C16   A    
C24   N2    A    
C2    C32   A    
C18   C19   S    
N3    C33   S    
C14   H13   S    
C18   F1    S    
C20   C24   A    
C28   H1    S    
C8    C9    A    
Cu2   O8    S    
C1    O1    A    
C12   O4    A    
C21   N1    A    
Cu1   O7    S    
C33   H17   S    
Cu2   O6    S    
C13   C14   A    
C27   C30   S    
C34   H19   S    
C12   O3    A    
C26   H9    S    
Cu1   Cu2   S    
C7    C12   S    
C34   H20   S    
C31   H10   S    
N4    H18   S    
C35   H23   S    
C27   O8    A    
C25   H7    S    
C27   O7    A    
C16   C17   A    
C25   C26   S    
C5    H11   S    
N4    C34   S    
C34   H21   S    
C29   C30   A    
C19   H4    S    
C31   C32   A    
C8    N5    S    
C17   C18   S    
C24   C25   S    
C1    O2    A    
C20   N1    A    
C19   H5    S    
C22   N2    A    
C16   C23   S    
C32   N4    S    
C1    C13   S    
C4    C10   S    
C3    C4    T    
C15   H2    S    
C23   O5    A    
C9    C10   A    
Cu1   O5    S    
C11   C17   A    
C18   H3    S    
C23   O6    A    
C6    C7    A    
C2    C3    S    
Cu1   O1    S    
C5    C10   A    
C11   C13   A    
C30   C31   A    
C20   C26   S    
N3    H14   S    
C33   H15   S    
C9    H12   S    
Cu2   N1    S    
N5    H22   S    
Cu2   O4    S    
C14   C15   A    
C2    C28   A    
C21   C22   A    
