data_mof_unit_61259.cif
_audit_creation_date              2012-12-10T17:20:31-0500
_audit_creation_method            fapswitch 2.2
_symmetry_space_group_name_H-M    P1
_symmetry_Int_Tables_number       1
_space_group_crystal_system       triclinic
_cell_length_a                    18.695554
_cell_length_b                    18.730788
_cell_length_c                    18.797692
_cell_angle_alpha                 109.289308
_cell_angle_beta                  109.774351
_cell_angle_gamma                 109.139426
_cell_volume                      5080.30291536

loop_
_atom_site_label
_atom_site_type_symbol
_atom_type_description
_atom_site_fract_x
_atom_site_fract_y
_atom_site_fract_z
_atom_type_partial_charge
C1    C     C_R   0.618991 0.618859 0.500024 0.806932
C2    C     C_3   0.190263 0.417408 0.191639 0.063889
C3    C     C_3   0.216115 0.459814 0.288675 -0.196664
C4    C     C_3   0.312614 0.499809 0.312407 -0.025035
C5    C     C_R   0.755864 0.758815 0.579132 -0.255096
C6    C     C_R   0.820754 0.822448 0.579481 0.590994
C7    C     C_R   0.814275 0.814368 0.500334 -0.140390
C8    C     C_R   0.743361 0.742103 0.421223 -0.277586
C9    C     C_R   0.680119 0.677091 0.421130 -0.193062
C10   C     C_R   0.686041 0.685668 0.500077 -0.106064
C11   C     C_R   0.678239 0.496268 0.759238 0.002751
C12   C     C_R   0.380235 0.499643 0.380495 0.780069
C13   C     C_R   0.744347 0.496015 0.822078 -0.225382
C14   C     C_R   0.816561 0.497583 0.814233 -0.065127
C15   C     C_R   0.823329 0.499207 0.742189 0.003404
C16   C     C_R   0.757032 0.499014 0.679113 -0.226410
C17   C     C_R   0.684932 0.497688 0.687109 -0.069269
C18   C     C_R   0.248441 0.327417 0.512400 -0.266014
C19   C     C_R   0.183921 0.263024 0.511689 0.534443
C20   C     C_R   0.185700 0.185893 0.500242 -0.271966
C21   C     C_R   0.251452 0.172917 0.488454 0.542678
C22   C     C_R   0.314405 0.236364 0.486727 -0.266257
C23   C     C_R   0.380671 0.381052 0.499650 0.847861
C24   C     C_R   0.313414 0.313962 0.499305 -0.204077
C25   C     C_R   0.002956 0.618872 0.121760 0.769042
C26   C     C_R   0.123322 0.499908 0.123143 0.773921
C27   C     C_R   0.006370 0.381261 0.887146 0.850520
C28   C     C_R   0.884153 0.498760 0.882769 0.801318
C29   C     C_R   0.000887 0.880991 0.381867 0.782101
C30   C     C_R   0.881099 0.881028 0.499934 0.815454
C31   C     C_R   0.998229 0.117864 0.617846 0.834718
C32   C     C_R   0.118860 0.118927 0.500126 0.918127
C33   C     C_R   0.000786 0.756737 0.179536 -0.175684
C34   C     C_R   0.618541 0.498852 0.619787 0.787588
C35   C     C_R   0.998764 0.820036 0.242359 -0.152051
C36   C     C_R   0.001344 0.814012 0.315408 0.001160
C37   C     C_R   0.004460 0.743732 0.324709 -0.175197
C38   C     C_R   0.003462 0.678893 0.260400 -0.178176
C39   C     C_R   0.002359 0.685711 0.188112 -0.007692
C40   C     C_R   0.083877 0.319441 0.822400 -0.091898
C41   C     C_R   0.078692 0.252456 0.756485 -0.208597
C42   C     C_R   0.997736 0.184134 0.684990 -0.137262
C43   C     C_R   0.919378 0.181258 0.679051 -0.121100
C44   C     C_R   0.924175 0.245421 0.747842 0.524385
C45   C     C_3   0.313232 0.581311 0.310980 0.056448
C46   C     C_R   0.005609 0.314693 0.818952 -0.211842
C47   C     C_3   0.216191 0.542063 0.286744 -0.195291
C48   C     C_3   0.190946 0.499012 0.190302 -0.017754
C49   C     C_3   0.287676 0.539121 0.214253 -0.213925
C50   C     C_3   0.287125 0.456573 0.215749 -0.215946
Cu1   Cu    Cu3+1 0.500500 0.438200 0.438680 0.950774
Cu2   Cu    Cu3+1 0.499500 0.561800 0.561320 0.969893
Cu3   Cu    Cu3+1 0.942090 0.438180 0.003770 1.002888
Cu4   Cu    Cu3+1 0.065710 0.561750 0.003750 0.959199
Cu5   Cu    Cu3+1 0.062280 0.999890 0.562170 1.023691
Cu6   Cu    Cu3+1 0.937720 0.999930 0.437650 0.987058
H1    H     H_    0.184515 0.575551 0.313380 0.123853
H2    H     H_    0.625810 0.621054 0.359658 0.151936
H3    H     H_    0.739555 0.494741 0.877626 0.151289
H4    H     H_    0.761725 0.500063 0.623455 0.152680
H5    H     H_    0.247136 0.387199 0.522084 0.183757
H6    H     H_    0.364812 0.225693 0.477220 0.187057
H7    H     H_    0.999627 0.762294 0.123632 0.139569
H8    H     H_    0.996737 0.874370 0.234836 0.143806
H9    H     H_    0.006154 0.738400 0.380852 0.140840
H10   H     H_    0.005089 0.624328 0.267671 0.137192
H11   H     H_    0.138590 0.255062 0.759573 0.169260
H12   H     H_    0.316211 0.572136 0.183437 0.159643
H13   H     H_    0.316584 0.421088 0.187481 0.148610
H14   H     H_    0.189020 0.428840 0.321567 0.129767
H15   H     H_    0.760721 0.765824 0.640415 0.168749
H16   H     H_    0.737870 0.735417 0.359833 0.166676
O1    O     O_R   0.590610 0.537990 0.448230 -0.586156
O2    O     O_R   0.055400 0.642330 0.093210 -0.583895
O3    O     O_R   0.042570 0.447790 0.094640 -0.586973
O4    O     O_R   0.146970 0.552140 0.094620 -0.586072
O5    O     O_R   0.952400 0.357600 0.914310 -0.527487
O6    O     O_R   0.056800 0.461950 0.914290 -0.596916
O7    O     O_R   0.860830 0.447790 0.912900 -0.568024
O8    O     O_R   0.965230 0.552140 0.912880 -0.583243
O9    O     O_R   0.053290 0.909730 0.462990 -0.574714
O10   O     O_R   0.948100 0.909770 0.357840 -0.602209
O11   O     O_R   0.962410 0.909720 0.552480 -0.542480
O12   O     O_R   0.589770 0.642360 0.551790 -0.581974
O13   O     O_R   0.857220 0.909750 0.447330 -0.603685
O14   O     O_R   0.051900 0.090060 0.641980 -0.584208
O15   O     O_R   0.946710 0.090090 0.536830 -0.572128
O16   O     O_R   0.142780 0.090070 0.552500 -0.562327
O17   O     O_R   0.037590 0.090110 0.447350 -0.559281
O18   O     O_R   0.409550 0.447810 0.357350 -0.593334
O19   O     O_R   0.408710 0.552190 0.460910 -0.578652
O20   O     O_R   0.410230 0.357640 0.448210 -0.585398
O21   O     O_R   0.409390 0.462010 0.551770 -0.581883
O22   O     O_R   0.591290 0.447810 0.539090 -0.587014
O23   O     O_R   0.590450 0.552190 0.642650 -0.576582
O24   O     O_R   0.951000 0.537980 0.093230 -0.590409
C51   C     C_R   0.602058 0.491746 0.769469 0.116365
C52   C     C_R   0.518967 0.417605 0.710753 -0.125391
C53   C     C_R   0.448123 0.411975 0.723302 -0.105897
C54   C     C_R   0.459491 0.480536 0.793660 -0.104528
C55   C     C_R   0.541979 0.554540 0.852226 -0.140045
C56   C     C_R   0.613245 0.559998 0.840611 -0.135317
H17   H     H_    0.509446 0.363852 0.656226 0.116880
H18   H     H_    0.384486 0.354251 0.678902 0.139623
H19   H     H_    0.404508 0.476087 0.803086 0.133097
H20   H     H_    0.550824 0.607431 0.906960 0.128499
H21   H     H_    0.677050 0.617317 0.886869 0.124843
C57   C     C_R   0.896767 0.497932 0.729263 0.113572
C58   C     C_R   0.955478 0.569736 0.731769 -0.126340
C59   C     C_R   0.024358 0.568157 0.718610 -0.138486
C60   C     C_R   0.034364 0.494617 0.701873 -0.108426
C61   C     C_R   0.975463 0.422513 0.698166 -0.124692
C62   C     C_R   0.906984 0.424152 0.712122 -0.143453
H22   H     H_    0.948146 0.626934 0.744397 0.130110
H23   H     H_    0.069810 0.623835 0.721110 0.132924
H24   H     H_    0.087518 0.493345 0.691408 0.137819
H25   H     H_    0.982807 0.365328 0.684155 0.140702
H26   H     H_    0.861426 0.367885 0.708735 0.164622
F1    F     F_    0.121030 0.276619 0.524080 -0.663993
F2    F     F_    0.253412 0.098191 0.476683 -0.653764
C63   C     C_R   0.385264 0.672881 0.379040 0.109051
C64   C     C_R   0.366901 0.736091 0.420990 -0.135741
C65   C     C_R   0.435066 0.819951 0.486605 -0.126577
C66   C     C_R   0.521817 0.840890 0.511447 -0.111501
C67   C     C_R   0.540365 0.778250 0.469981 -0.123552
C68   C     C_R   0.472460 0.695101 0.402959 -0.126527
H27   H     H_    0.300267 0.720949 0.403405 0.122471
H28   H     H_    0.420651 0.868460 0.518758 0.145194
H29   H     H_    0.574633 0.905450 0.562995 0.148899
H30   H     H_    0.607340 0.793650 0.490417 0.136013
H31   H     H_    0.487925 0.647357 0.371247 0.100294
C69   C     C_R   0.172122 0.391777 0.893701 0.128462
C70   C     C_R   0.226628 0.377549 0.953449 -0.181847
C71   C     C_R   0.310826 0.445120 0.019504 -0.139254
C72   C     C_R   0.341915 0.526663 0.025079 -0.125920
C73   C     C_R   0.289206 0.540423 0.963969 -0.146833
C74   C     C_R   0.204944 0.472979 0.897858 -0.073560
H32   H     H_    0.203714 0.314289 0.949064 0.138729
H33   H     H_    0.352108 0.434177 0.066149 0.128211
H34   H     H_    0.407107 0.578922 0.076264 0.122365
H35   H     H_    0.313786 0.603221 0.967568 0.122663
H36   H     H_    0.165224 0.484006 0.850064 0.134034
C75   C     C_R   0.832221 0.113092 0.602038 0.171497
C76   C     C_R   0.778035 0.136805 0.554098 -0.051518
C77   C     C_R   0.696781 0.072839 0.480050 -0.147490
C78   C     C_R   0.669450 0.984885 0.452843 -0.120312
C79   C     C_R   0.722988 0.960937 0.500177 -0.126938
C80   C     C_R   0.803349 0.024627 0.575362 -0.117016
H37   H     H_    0.799175 0.204723 0.573532 0.131305
H38   H     H_    0.655436 0.091447 0.443265 0.136811
H39   H     H_    0.607039 0.935292 0.394902 0.136254
H40   H     H_    0.702783 0.893015 0.477974 0.131701
H41   H     H_    0.843796 0.005137 0.611860 0.146988
F3    F     F_    0.848993 0.241280 0.744534 -0.674661
C81   C     C_R   0.121385 0.324841 0.122409 0.109790
C82   C     C_R   0.086519 0.262498 0.144713 -0.136621
C83   C     C_R   0.023139 0.176630 0.079613 -0.135409
C84   C     C_R   0.994207 0.152414 0.991993 -0.096905
C85   C     C_R   0.028622 0.214035 0.969330 -0.106527
C86   C     C_R   0.091997 0.299804 0.034286 -0.136690
H42   H     H_    0.108490 0.279703 0.212132 0.124246
H43   H     H_    0.996556 0.128804 0.097125 0.136228
H44   H     H_    0.945134 0.085965 0.941715 0.143084
H45   H     H_    0.006088 0.195443 0.901488 0.146414
H46   H     H_    0.117152 0.347174 0.015996 0.110204
F4    F     F_    0.888555 0.892669 0.656677 -0.678368

loop_
_geom_bond_atom_site_label_1
_geom_bond_atom_site_label_2
_ccdc_geom_bond_type
C22   H6    S    
C8    C9    A    
Cu5   Cu6   S    
C6    F4    S    
C2    C81   S    
C31   C42   S    
C41   C42   A    
C12   O19   A    
C43   C75   S    
C35   C36   A    
C74   H36   S    
C27   O6    A    
C77   C78   A    
Cu6   O13   S    
C65   C66   A    
C41   H11   S    
Cu3   Cu4   S    
C1    O12   A    
C40   C46   A    
C29   C36   S    
C54   H19   S    
C33   C39   A    
C67   C68   A    
C18   C24   A    
C12   O18   A    
C82   C83   A    
C49   H12   S    
C50   H13   S    
C25   O2    A    
C21   F2    S    
Cu1   O18   S    
C5    C6    A    
C16   C17   A    
C52   H17   S    
C32   O16   A    
C64   H27   S    
C57   C58   A    
Cu2   O23   S    
C9    H2    S    
C16   H4    S    
Cu5   O16   S    
Cu2   O12   S    
C28   O7    A    
C59   C60   A    
C2    C50   S    
Cu1   O1    S    
Cu4   O2    S    
C67   H30   S    
C83   C84   A    
C79   C80   A    
C42   C43   A    
C69   C70   A    
C37   H9    S    
C26   O4    A    
C23   C24   S    
C84   C85   A    
C60   H24   S    
Cu5   O9    S    
C9    C10   A    
C51   C56   A    
C26   C48   S    
C62   H26   S    
C53   H18   S    
C40   C69   S    
C19   F1    S    
C70   H32   S    
C31   O14   A    
C21   C22   A    
Cu3   O24   S    
C85   C86   A    
Cu3   O3    S    
C61   C62   A    
C44   C46   A    
C51   C52   A    
C6    C7    A    
Cu4   O8    S    
C4    C45   S    
C45   C47   S    
C72   H34   S    
C8    H16   S    
C31   O15   A    
C15   C16   A    
Cu1   Cu2   S    
C55   C56   A    
C38   H10   S    
C72   C73   A    
C3    H14   S    
C34   O23   A    
C30   O11   A    
C71   H33   S    
C18   C19   A    
Cu6   O15   S    
C2    C48   S    
C69   C74   A    
C23   O21   A    
C4    C50   S    
C15   C57   S    
Cu3   O5    S    
C43   C44   A    
C29   O9    A    
C37   C38   A    
Cu1   O20   S    
C47   H1    S    
C47   C48   S    
C85   H45   S    
C45   C49   S    
C33   H7    S    
C26   O3    A    
C56   H21   S    
C86   H46   S    
C30   O13   A    
C63   C64   A    
C35   H8    S    
C58   H22   S    
Cu4   O4    S    
C84   H44   S    
C27   C46   S    
C40   C41   A    
C34   O22   A    
C82   H42   S    
C52   C53   A    
C32   O17   A    
C70   C71   A    
C22   C24   A    
C4    C12   S    
C17   C34   S    
Cu5   O11   S    
C3    C4    S    
C78   C79   A    
C20   C32   S    
C55   H20   S    
Cu6   O17   S    
C11   C17   A    
C60   C61   A    
Cu3   O7    S    
C81   C86   A    
C14   C15   A    
C1    C10   S    
C77   H38   S    
C76   C77   A    
C27   O5    A    
C18   H5    S    
Cu6   O10   S    
C71   C72   A    
C13   H3    S    
C57   C62   A    
C53   C54   A    
Cu2   O21   S    
C61   H25   S    
C11   C51   S    
C45   C63   S    
C19   C20   A    
C79   H40   S    
C1    O1    A    
C5    C10   A    
C5    H15   S    
C58   C59   A    
C25   C39   S    
C11   C13   A    
C65   H28   S    
C38   C39   A    
C68   H31   S    
Cu5   O14   S    
C48   C49   S    
C59   H23   S    
C3    C47   S    
C54   C55   A    
C33   C35   A    
C73   H35   S    
C66   H29   S    
C2    C3    S    
C28   O8    A    
C76   H37   S    
C29   O10   A    
C75   C80   A    
C7    C8    A    
Cu1   O22   S    
C78   H39   S    
C63   C68   A    
C66   C67   A    
C20   C21   A    
C25   O24   A    
C36   C37   A    
C49   C50   S    
C80   H41   S    
C81   C82   A    
C7    C30   S    
C23   O20   A    
C73   C74   A    
Cu2   O19   S    
C14   C28   S    
C64   C65   A    
C13   C14   A    
C83   H43   S    
C75   C76   A    
C44   F3    S    
Cu4   O6    S    
