data_mof_unit_40145.cif
_audit_creation_date              2012-12-11T15:55:41-0500
_audit_creation_method            fapswitch 2.2
_symmetry_space_group_name_H-M    P1
_symmetry_Int_Tables_number       1
_space_group_crystal_system       triclinic
_cell_length_a                    11.11776
_cell_length_b                    11.137669
_cell_length_c                    18.687312
_cell_angle_alpha                 89.842722
_cell_angle_beta                  89.276227
_cell_angle_gamma                 59.162947
_cell_volume                      1986.66677289

loop_
_atom_site_label
_atom_site_type_symbol
_atom_type_description
_atom_site_fract_x
_atom_site_fract_y
_atom_site_fract_z
_atom_type_partial_charge
C1    C     C_R   0.357044 0.775813 0.398575 0.562290
C2    C     C_R   0.610839 0.138926 0.156628 0.020467
C3    C     C_R   0.345900 0.329927 0.165093 -0.033908
C4    C     C_R   0.471498 0.238682 0.273151 -0.175498
C5    C     C_R   0.474571 0.238273 0.198479 -0.089478
C6    C     C_R   0.048891 0.694744 0.307582 0.346975
C7    C     C_R   0.939349 0.795665 0.351080 0.302056
C8    C     C_R   0.708919 0.002402 0.182944 0.224440
C9    C     C_R   0.829249 0.911012 0.143546 -0.021604
C10   C     C_R   0.227780 0.433893 0.205384 0.184759
C11   C     C_R   0.231559 0.437181 0.280263 0.009226
C12   C     C_R   0.384959 0.353131 0.388649 0.567281
C13   C     C_R   0.892793 0.753771 0.410996 -0.152810
C14   C     C_R   0.955332 0.612052 0.428223 0.205031
C15   C     C_R   0.057900 0.512222 0.382630 -0.067288
C16   C     C_R   0.107727 0.549852 0.322076 -0.002620
C17   C     C_R   0.355851 0.336543 0.314160 -0.016726
C18   C     C_R   0.946641 0.311978 0.193741 0.005934
C19   C     C_R   0.807241 0.390014 0.212349 0.043167
C20   C     C_R   0.762736 0.405271 0.282428 0.040988
C21   C     C_R   0.001525 0.272557 0.321415 0.180068
C22   C     C_R   0.045595 0.266411 0.249056 -0.073954
C23   C     C_R   0.788927 0.372840 0.407527 0.544137
C24   C     C_3   0.701024 0.359057 0.188892 -0.219165
C25   C     C_3   0.648299 0.380590 0.264881 0.085497
C26   C     C_R   0.855720 0.340096 0.337154 -0.021128
C27   C     C_R   0.288943 0.939234 0.189519 0.055867
C28   C     C_R   0.415886 0.898955 0.222333 -0.031881
C29   C     C_R   0.434599 0.866806 0.295077 -0.038758
C30   C     C_R   0.194383 0.929292 0.306511 -0.054056
C31   C     C_R   0.174158 0.961667 0.233358 0.239367
C32   C     C_3   0.557725 0.778987 0.203240 0.120127
C33   C     C_3   0.581168 0.750739 0.283098 -0.157671
C34   C     C_R   0.341430 0.771992 0.602842 0.561120
C35   C     C_R   0.328162 0.865810 0.335738 0.020330
C36   C     C_R   0.298793 0.306162 0.808265 0.020792
C37   C     C_R   0.414078 0.201611 0.771966 0.025770
C38   C     C_R   0.426854 0.203987 0.700042 0.095624
C39   C     C_R   0.193794 0.404525 0.693109 -0.127271
C40   C     C_R   0.181803 0.401568 0.768114 -0.147754
C41   C     C_3   0.565863 0.140186 0.785619 -0.259049
C42   C     C_3   0.582281 0.143732 0.705570 -0.224889
C43   C     C_R   0.323654 0.313877 0.659966 0.063725
C44   C     C_R   0.811821 0.328324 0.836846 -0.005160
C45   C     C_R   0.368133 0.347751 0.593879 0.585282
C46   C     C_R   0.747927 0.459585 0.803855 -0.058229
C47   C     C_R   0.743033 0.469162 0.730548 0.093845
C48   C     C_R   0.838647 0.222444 0.718251 -0.130785
C49   C     C_R   0.843142 0.209888 0.793171 0.198312
C50   C     C_3   0.767525 0.583211 0.810300 -0.236239
C51   C     C_3   0.772738 0.585283 0.729430 0.101336
C52   C     C_R   0.794817 0.351932 0.686259 -0.056418
C53   C     C_R   0.290497 0.871490 0.820743 -0.031643
C54   C     C_R   0.207049 0.829354 0.788513 0.027278
C55   C     C_R   0.217347 0.807897 0.715919 -0.002783
C56   C     C_R   0.761585 0.377656 0.610658 0.550759
C57   C     C_R   0.363777 0.908250 0.702646 0.243938
C58   C     C_R   0.362492 0.919397 0.777264 -0.079470
C59   C     C_3   0.200063 0.702037 0.804860 -0.233970
C60   C     C_3   0.219078 0.673466 0.725066 0.114884
C61   C     C_R   0.301802 0.838134 0.672413 0.016782
C62   C     C_R   0.980474 0.287414 0.117138 0.553953
C63   C     C_R   0.324465 0.292471 0.093744 0.566545
C64   C     C_R   0.270452 0.961383 0.111994 0.563903
C65   C     C_R   0.881462 0.309568 0.905504 0.574793
C66   C     C_R   0.293234 0.285589 0.884088 0.556282
C67   C     C_R   0.855493 0.947206 0.076783 -0.169743
C68   C     C_R   0.273050 0.900807 0.896395 0.559530
C69   C     C_R   0.763624 0.077868 0.049135 -0.032651
C70   C     C_R   0.645954 0.176019 0.088114 0.253478
Cr1   Cr    Cr6+3 0.601740 0.606840 0.505840 1.073821
Cr2   Cr    Cr6+3 0.291500 0.601560 0.495070 1.054010
Cr3   Cr    Cr6+3 0.606780 0.291630 0.499130 1.015032
Cr4   Cr    Cr6+3 0.062440 0.063060 0.008240 1.030018
Cr5   Cr    Cr6+3 0.062950 0.375000 0.998920 1.017608
Cr6   Cr    Cr6+3 0.374550 0.061770 0.992470 1.001311
H1    H     H_    0.630738 0.435557 0.149395 0.211450
H2    H     H_    0.664791 0.286743 0.292985 0.150728
H3    H     H_    0.900361 0.807655 0.163907 0.220925
H4    H     H_    0.628954 0.807052 0.175929 0.153199
H5    H     H_    0.659045 0.772722 0.306454 0.143683
H6    H     H_    0.867738 0.131332 0.685342 0.145179
H7    H     H_    0.867314 0.562351 0.833395 0.128301
H8    H     H_    0.418524 0.964470 0.801003 0.160787
H9    H     H_    0.947471 0.873525 0.046258 0.126787
H10   H     H_    0.288798 0.624453 0.837850 0.138630
O1    O     O_R   0.748670 0.497520 0.427970 -0.473449
O2    O     O_R   0.300170 0.471020 0.567120 -0.465667
O3    O     O_R   0.491630 0.259030 0.574940 -0.534183
O4    O     O_R   0.718640 0.304340 0.577850 -0.524441
O5    O     O_3   0.500010 0.500010 0.500020 -0.250611
O6    O     O_R   0.186620 0.923750 0.087000 -0.449321
O7    O     O_R   0.957350 0.194160 0.084660 -0.482250
O8    O     O_R   0.935120 0.407280 0.085350 -0.476332
O9    O     O_R   0.203800 0.365060 0.067090 -0.498706
O10   O     O_R   0.417470 0.174910 0.067830 -0.501431
O11   O     O_R   0.375160 0.946380 0.070880 -0.526950
O12   O     O_R   0.476470 0.723930 0.429450 -0.508251
O13   O     O_R   0.160500 0.919670 0.926690 -0.491852
O14   O     O_R   0.933140 0.190380 0.936050 -0.499066
O15   O     O_R   0.909010 0.403210 0.925030 -0.527644
O16   O     O_R   0.179590 0.361290 0.918480 -0.509116
O17   O     O_R   0.391360 0.170840 0.907510 -0.518504
O18   O     O_R   0.350950 0.942600 0.922260 -0.519843
O19   O     O_3   0.166650 0.166610 0.999880 -0.311521
O20   O     O_R   0.264730 0.744140 0.416740 -0.521209
O21   O     O_R   0.309440 0.472410 0.418220 -0.501979
O22   O     O_R   0.501630 0.260530 0.414310 -0.530323
O23   O     O_R   0.727920 0.305730 0.428950 -0.510684
O24   O     O_R   0.738670 0.496020 0.588600 -0.454561
O25   O     O_R   0.467190 0.722540 0.578350 -0.457496
O26   O     O_R   0.254720 0.742640 0.577370 -0.516636
H11   H     H_    0.566560 0.169194 0.300692 0.189123
H12   H     H_    0.811909 0.831785 0.445776 0.077241
O27   O     O_3   0.924004 0.568029 0.491066 -0.676780
H13   H     H_    0.851721 0.650927 0.518032 0.324392
H14   H     H_    0.109900 0.404872 0.399112 0.190447
O28   O     O_3   0.102228 0.203553 0.372667 -0.743950
H15   H     H_    0.055613 0.209769 0.419181 0.323736
H16   H     H_    0.156152 0.215456 0.236056 0.112960
H17   H     H_    0.757160 0.247988 0.173811 0.139085
O29   O     O_3   0.515748 0.499983 0.275617 -0.682010
H18   H     H_    0.452489 0.495885 0.240182 0.330779
H19   H     H_    0.107863 0.940924 0.338893 0.188652
O30   O     O_3   0.044199 0.010295 0.203435 -0.661799
H20   H     H_    0.973511 0.033334 0.241890 0.363689
O31   O     O_3   0.547474 0.674639 0.167607 -0.685311
H21   H     H_    0.557951 0.687194 0.115784 0.340101
H22   H     H_    0.593813 0.652698 0.302177 0.236588
H23   H     H_    0.108908 0.486101 0.662712 0.115930
H24   H     H_    0.085864 0.477585 0.794446 0.105892
H25   H     H_    0.615379 0.032339 0.807359 0.147163
H26   H     H_    0.587423 0.213459 0.815182 0.148411
H27   H     H_    0.613079 0.219819 0.689093 0.171843
O32   O     O_3   0.885363 0.935452 0.336416 -0.680248
H28   H     H_    0.811445 0.992990 0.372283 0.322755
H29   H     H_    0.644176 0.038110 0.680848 0.154723
O33   O     O_3   0.886395 0.079375 0.820754 -0.697782
H30   H     H_    0.832355 0.092628 0.865533 0.325413
H31   H     H_    0.673292 0.675472 0.834099 0.157121
O34   O     O_3   0.662548 0.707299 0.700789 -0.640137
H32   H     H_    0.692393 0.777265 0.703018 0.329049
H33   H     H_    0.876914 0.554333 0.705577 0.104938
O35   O     O_3   0.433464 0.957681 0.662134 -0.700401
H34   H     H_    0.402750 0.967338 0.611840 0.323474
H35   H     H_    0.094626 0.728869 0.825027 0.127541
O36   O     O_3   0.349785 0.555233 0.706919 -0.692729
H36   H     H_    0.425340 0.561768 0.731113 0.329708
H37   H     H_    0.128873 0.676013 0.698863 0.149641
H38   H     H_    0.785263 0.104907 0.996964 0.147826
O37   O     O_3   0.569857 0.305841 0.056440 -0.705137
H39   H     H_    0.504583 0.375078 0.091509 0.310009
O38   O     O_3   0.099441 0.742309 0.253787 -0.649272
H40   H     H_    0.199570 0.672876 0.245019 0.330404
O39   O     O_3   0.690661 0.950474 0.245924 -0.719339
H41   H     H_    0.589834 0.986121 0.251937 0.310784
O40   O     O_3   0.105649 0.531673 0.172857 -0.674521
H42   H     H_    0.132849 0.570821 0.132276 0.337219

loop_
_geom_bond_atom_site_label_1
_geom_bond_atom_site_label_2
_ccdc_geom_bond_type
C44   C49   A    
Cr6   O18   S    
C7    C13   A    
C21   C26   A    
Cr2   O26   S    
O40   H42   S    
C29   C33   S    
C34   O26   A    
C41   C42   S    
C66   O16   A    
C19   C20   A    
C65   O15   A    
C41   H26   S    
O33   H30   S    
Cr5   O9    S    
O32   H28   S    
C53   C54   A    
C22   H16   S    
Cr6   O19   S    
C30   C35   A    
C69   H38   S    
C32   O31   S    
C21   C22   A    
C36   C37   A    
Cr3   O4    S    
C38   C42   S    
C30   C31   A    
C50   H31   S    
C20   C25   S    
C15   C16   A    
Cr1   O24   S    
C63   O9    A    
C18   C19   A    
C9    H3    S    
C23   C26   S    
Cr4   O6    S    
C8    O39   S    
C53   C68   S    
O28   H15   S    
C54   C55   A    
C11   C17   A    
O36   H36   S    
C8    C9    A    
Cr1   O25   S    
C12   C17   S    
Cr5   O16   S    
O37   H39   S    
C60   O36   S    
C45   O3    A    
C25   O29   S    
C13   H12   S    
C1    O20   A    
Cr6   O17   S    
C56   O4    A    
C59   C60   S    
C23   O1    A    
C55   C60   S    
C42   H29   S    
C34   O25   A    
Cr4   O7    S    
C44   C65   S    
C56   O24   A    
Cr2   O2    S    
C44   C46   A    
C50   H7    S    
C54   C59   S    
C51   O34   S    
C39   C43   A    
C23   O23   A    
Cr1   O12   S    
C67   H9    S    
C27   C31   A    
C25   H2    S    
C4    H11   S    
C28   C32   S    
C45   O2    A    
C24   C25   S    
Cr3   O5    S    
C21   O28   S    
C27   C64   S    
C39   C40   A    
C12   O22   A    
Cr2   O5    S    
C18   C62   S    
Cr3   O22   S    
C47   C51   S    
Cr6   O11   S    
C63   O10   A    
C34   C61   S    
C15   H14   S    
C67   C69   A    
C47   C52   A    
C9    C67   A    
C7    O32   S    
C37   C38   A    
C58   H8    S    
C32   H4    S    
C11   C16   S    
Cr2   O21   S    
C36   C40   A    
C50   C51   S    
C12   O21   A    
C57   C61   A    
C43   C45   S    
C10   O40   S    
C6    C7    A    
Cr1   O1    S    
C4    C17   A    
C64   O11   A    
C40   H24   S    
C30   H19   S    
Cr5   O19   S    
C51   H33   S    
C62   O8    A    
O30   H20   S    
C2    C5    S    
C31   O30   S    
O31   H21   S    
C27   C28   A    
C1    C35   S    
C33   H22   S    
C46   C50   S    
C46   C47   A    
C28   C29   A    
C57   O35   S    
C18   C22   A    
C66   O17   A    
C2    C8    A    
C70   O37   S    
C68   O18   A    
C65   O14   A    
Cr2   O20   S    
O35   H34   S    
C3    C5    A    
C1    O12   A    
C41   H25   S    
Cr4   O14   S    
C53   C58   A    
Cr3   O23   S    
Cr4   O13   S    
C39   H23   S    
C3    C63   S    
C29   C35   A    
C42   H27   S    
C32   C33   S    
C19   C24   S    
O29   H18   S    
C68   O13   A    
Cr3   O3    S    
C38   C43   A    
C3    C10   A    
C2    C70   A    
O34   H32   S    
Cr6   O10   S    
Cr4   O19   S    
C57   C58   A    
C20   C26   A    
C48   C49   A    
C4    C5    A    
C55   C61   A    
C24   H17   S    
C48   H6    S    
C36   C66   S    
C60   H37   S    
C37   C41   S    
C69   C70   A    
C59   H10   S    
C6    O38   S    
C10   C11   A    
C6    C16   A    
C59   H35   S    
C52   C56   S    
C24   H1    S    
C48   C52   A    
Cr1   O5    S    
C62   O7    A    
O39   H41   S    
Cr5   O15   S    
C64   O6    A    
C14   C15   A    
C49   O33   S    
O27   H13   S    
O38   H40   S    
C13   C14   A    
C33   H5    S    
C14   O27   S    
Cr5   O8    S    
