data_mof_unit_19322.cif
_audit_creation_date              2012-12-10T20:31:09-0500
_audit_creation_method            fapswitch 2.2
_symmetry_space_group_name_H-M    P1
_symmetry_Int_Tables_number       1
_space_group_crystal_system       triclinic
_cell_length_a                    14.957477
_cell_length_b                    10.680498
_cell_length_c                    9.871442
_cell_angle_alpha                 89.89365
_cell_angle_beta                  89.993382
_cell_angle_gamma                 90.103755
_cell_volume                      1576.99015325

loop_
_atom_site_label
_atom_site_type_symbol
_atom_type_description
_atom_site_fract_x
_atom_site_fract_y
_atom_site_fract_z
_atom_type_partial_charge
C1    C     C_R   0.497255 0.260068 0.500250 0.902529
C2    C     C_R   0.185244 0.434422 0.403644 -0.238112
C3    C     C_R   0.231311 0.504070 0.500386 -0.199181
C4    C     C_R   0.326873 0.501050 0.500099 0.953838
C5    C     C_R   0.186426 0.576469 0.596583 0.682458
C6    C     C_R   0.489374 0.063594 0.623462 0.067726
C7    C     C_R   0.483080 0.128812 0.501775 -0.240136
C8    C     C_R   0.459297 0.065829 0.382663 -0.210827
C9    C     C_R   0.458599 0.936305 0.381766 0.639318
C10   C     C_R   0.482633 0.871498 0.500560 -0.210306
C11   C     C_R   0.489733 0.935895 0.622662 -0.109730
C12   C     C_R   0.906823 0.577737 0.598853 -0.182339
C13   C     C_3   0.558942 0.928672 0.731926 0.407881
C14   C     C_3   0.558543 0.070595 0.732553 0.429004
C15   C     C_R   0.456915 0.407418 0.071489 -0.049316
C16   C     C_R   0.496787 0.739998 0.499790 0.982693
C17   C     C_R   0.549202 0.584490 0.071755 -0.015852
C18   C     C_R   0.549242 0.584461 0.927821 -0.043685
C19   C     C_R   0.457153 0.407190 0.928793 0.007647
C20   C     C_3   0.360060 0.375279 0.922955 1.001107
C21   C     C_3   0.359518 0.377077 0.076417 0.934838
C22   C     C_R   0.673142 0.501535 0.500045 0.938788
C23   C     C_R   0.953332 0.368238 0.303782 -0.156490
C24   C     C_R   0.813786 0.575310 0.598410 0.666307
C25   C     C_R   0.768767 0.505073 0.500196 -0.223175
C26   C     C_R   0.814569 0.437897 0.401391 -0.314694
C27   C     C_R   0.906939 0.437833 0.400959 0.158898
C28   C     C_R   0.953437 0.507776 0.499878 -0.048150
C29   C     C_R   0.046126 0.367020 0.304517 -0.122578
C30   C     C_R   0.092832 0.435998 0.401929 0.122352
C31   C     C_R   0.046611 0.507277 0.499782 0.012937
C32   C     C_R   0.093640 0.577694 0.597567 -0.123629
C33   C     C_R   0.047230 0.647849 0.694238 -0.209579
C34   C     C_R   0.954394 0.647865 0.695496 0.683385
F1    F     F_    0.766577 0.642795 0.690643 -0.565142
F2    F     F_    0.911813 0.716359 0.791555 -0.571401
F3    F     F_    0.440912 0.876223 0.263593 -0.605098
F4    F     F_    0.639189 0.880436 0.685526 -0.621518
F5    F     F_    0.523517 0.118750 0.851265 -0.608658
F6    F     F_    0.307900 0.468487 0.866373 -0.589712
F7    F     F_    0.344517 0.258237 0.867690 -0.585378
F8    F     F_    0.308148 0.473005 0.129125 -0.624601
F9    F     F_    0.342214 0.261755 0.134968 -0.642788
F10   F     F_    0.233076 0.647714 0.686365 -0.599312
H1    H     H_    0.587563 0.654279 0.125858 0.167859
H2    H     H_    0.221462 0.377581 0.331234 0.242033
H3    H     H_    0.082612 0.702322 0.769709 0.244068
H4    H     H_    0.446985 0.115710 0.288933 0.252516
H5    H     H_    0.533983 0.884523 0.826755 0.145919
H6    H     H_    0.622241 0.115316 0.699953 0.101579
H7    H     H_    0.587760 0.654048 0.873404 0.195127
H8    H     H_    0.778075 0.383807 0.326529 0.188095
H9    H     H_    0.917854 0.314406 0.227828 0.163052
H10   H     H_    0.081343 0.312339 0.229127 0.184850
N1    N     N_R   0.499390 0.499140 0.142800 -0.099473
N2    N     N_R   0.499390 0.499180 0.857150 -0.110991
O1    O     O_R   0.500010 0.316790 0.614690 -0.591967
O2    O     O_R   0.500000 0.316760 0.385350 -0.618158
O3    O     O_R   0.367850 0.499990 0.614680 -0.528817
O4    O     O_R   0.367840 0.499950 0.385340 -0.567844
O5    O     O_R   0.500000 0.683240 0.614650 -0.604138
O6    O     O_R   0.499990 0.683210 0.385310 -0.578037
O7    O     O_R   0.632160 0.500050 0.614660 -0.577383
O8    O     O_R   0.632150 0.500010 0.385320 -0.640199
Zn1   Zn    Zn3+2 0.500010 0.500020 0.653130 1.094641
Zn2   Zn    Zn3+2 0.499990 0.499980 0.346870 1.056947

loop_
_geom_bond_atom_site_label_1
_geom_bond_atom_site_label_2
_ccdc_geom_bond_type
C19   N2    A    
C22   O7    A    
O7    Zn1   S    
C29   C30   A    
C1    O1    A    
C6    C14   S    
C20   F7    S    
C9    C10   A    
C17   N1    A    
C34   F2    S    
C19   C20   S    
C20   F6    S    
C18   N2    A    
C2    C30   A    
C5    C32   A    
C32   C33   A    
C4    O4    A    
C27   C28   A    
C8    H4    S    
C17   C18   A    
C26   C27   A    
O4    Zn2   S    
C7    C8    A    
C10   C16   S    
C1    O2    A    
O3    Zn1   S    
C15   C19   A    
C11   C13   S    
O8    Zn2   S    
C13   F4    S    
C14   H6    S    
C16   O6    A    
C12   C28   A    
C13   H5    S    
C23   C29   A    
C4    O3    A    
C9    F3    S    
C5    F10   S    
C17   H1    S    
C18   H7    S    
C23   H9    S    
C6    C7    A    
C26   H8    S    
C23   C27   A    
C30   C31   A    
C33   H3    S    
C24   F1    S    
C16   O5    A    
O6    Zn2   S    
C12   C34   A    
N2    Zn1   S    
O5    Zn1   S    
C15   C21   S    
N1    Zn2   S    
C33   C34   A    
C24   C25   A    
C20   C21   S    
C10   C11   A    
C29   H10   S    
O1    Zn1   S    
C6    C11   A    
C12   C24   A    
C2    C3    A    
C21   F8    S    
C13   C14   S    
C1    C7    S    
C25   C26   A    
C21   F9    S    
C22   O8    A    
O2    Zn2   S    
C28   C31   A    
C2    H2    S    
C3    C4    S    
C31   C32   A    
C14   F5    S    
C8    C9    A    
C3    C5    A    
C22   C25   S    
C15   N1    A    
