data_mof_unit_31453.cif
_audit_creation_date              2012-12-10T17:43:18-0500
_audit_creation_method            fapswitch 2.2
_symmetry_space_group_name_H-M    P1
_symmetry_Int_Tables_number       1
_space_group_crystal_system       triclinic
_cell_length_a                    15.081874
_cell_length_b                    13.704286
_cell_length_c                    10.624786
_cell_angle_alpha                 90.546053
_cell_angle_beta                  90.10973
_cell_angle_gamma                 90.010281
_cell_volume                      2195.89406363

loop_
_atom_site_label
_atom_site_type_symbol
_atom_type_description
_atom_site_fract_x
_atom_site_fract_y
_atom_site_fract_z
_atom_type_partial_charge
C1    C     C_R   0.328485 0.499991 0.500247 0.822467
C2    C     C_R   0.671516 0.499997 0.499700 0.819036
C3    C     C_R   0.953527 0.499938 0.499690 0.063925
C4    C     C_R   0.046475 0.499939 0.500124 0.063029
C5    C     C_R   0.907122 0.589334 0.501136 0.101875
C6    C     C_R   0.092889 0.410551 0.498586 0.094076
C7    C     C_R   0.953746 0.322096 0.496308 -0.168724
C8    C     C_R   0.046253 0.677779 0.503543 -0.170636
C9    C     C_R   0.046197 0.322097 0.496735 -0.167600
C10   C     C_R   0.953816 0.677779 0.503022 -0.179090
C11   C     C_R   0.453562 0.793758 0.589578 0.107851
C12   C     C_R   0.547823 0.206393 0.411977 0.110019
C13   C     C_R   0.545179 0.792485 0.409384 0.118158
C14   C     C_R   0.450846 0.207705 0.586401 0.119833
C15   C     C_R   0.543623 0.895784 0.403170 -0.129415
C16   C     C_R   0.447017 0.104377 0.587156 -0.129334
C17   C     C_R   0.453142 0.897352 0.594149 -0.127024
C18   C     C_R   0.550030 0.102881 0.409225 -0.121863
C19   C     C_R   0.498534 0.948400 0.498673 -0.016844
C20   C     C_R   0.498604 0.051801 0.498435 -0.018338
C21   C     C_R   0.586668 0.947205 0.305267 0.299315
C22   C     C_R   0.394439 0.052919 0.675229 0.311165
C23   C     C_R   0.407031 0.950670 0.689133 0.265970
C24   C     C_R   0.599880 0.049711 0.318046 0.270507
C25   C     C_R   0.500050 0.499530 0.259113 0.810000
C26   C     C_R   0.501005 0.500337 0.740920 0.810585
C27   C     C_3   0.434809 0.556331 0.042186 -0.119568
C28   C     C_3   0.567682 0.442741 0.957798 -0.147958
C29   C     C_3   0.513370 0.591474 0.961181 -0.054613
C30   C     C_3   0.489250 0.407411 0.039035 -0.090943
C31   C     C_3   0.423433 0.465246 0.956647 -0.173401
C32   C     C_3   0.579046 0.533671 0.043587 -0.167459
C33   C     C_3   0.501814 0.500583 0.877760 -0.042762
C34   C     C_3   0.500562 0.498569 0.122359 -0.028156
C35   C     C_R   0.814755 0.588730 0.500824 -0.218229
C36   C     C_R   0.185260 0.411195 0.498740 -0.196771
C37   C     C_R   0.768366 0.499971 0.499335 -0.086078
C38   C     C_R   0.231635 0.499968 0.500514 -0.089771
C39   C     C_R   0.814708 0.411188 0.497674 -0.197448
C40   C     C_R   0.185281 0.588728 0.502354 -0.210796
C41   C     C_R   0.907082 0.410549 0.497825 0.095338
C42   C     C_R   0.092913 0.589334 0.502060 0.099408
Cu1   Cu    Cu3+1 0.500000 0.597420 0.500000 0.971656
Cu2   Cu    Cu3+1 0.500000 0.402580 0.500000 0.972609
H1    H     H_    0.359845 0.437255 0.917774 0.170308
H2    H     H_    0.642582 0.561744 0.082526 0.168044
H3    H     H_    0.380514 0.602861 0.079700 0.176329
H4    H     H_    0.622048 0.396416 0.920079 0.169831
H5    H     H_    0.525610 0.666151 0.926563 0.220500
H6    H     H_    0.479406 0.331981 0.073619 0.184490
H7    H     H_    0.779124 0.657455 0.501971 0.165915
H8    H     H_    0.220907 0.342506 0.497183 0.194672
H9    H     H_    0.779037 0.342481 0.496397 0.190210
H10   H     H_    0.220937 0.657453 0.503907 0.172022
H11   H     H_    0.918745 0.253019 0.494816 0.175377
H12   H     H_    0.081242 0.746859 0.505047 0.167854
H13   H     H_    0.081176 0.253021 0.495606 0.180396
H14   H     H_    0.918852 0.746860 0.504148 0.159733
H15   H     H_    0.415249 0.751650 0.655304 0.189062
H16   H     H_    0.582139 0.248735 0.342315 0.193612
H17   H     H_    0.583698 0.749733 0.343504 0.187570
H18   H     H_    0.416250 0.250869 0.656041 0.195127
N1    N     N_R   0.500000 0.743810 0.500000 -0.225838
N2    N     N_R   0.500000 0.256190 0.500000 -0.228912
O1    O     O_R   0.370260 0.582280 0.500030 -0.588444
O2    O     O_R   0.629740 0.417720 0.499970 -0.582353
O3    O     O_R   0.629740 0.582280 0.499970 -0.593295
O4    O     O_R   0.370260 0.417720 0.500030 -0.581530
O5    O     O_R   0.499980 0.582260 0.316850 -0.573552
O6    O     O_R   0.500020 0.417740 0.683150 -0.586526
O7    O     O_R   0.500020 0.582260 0.683150 -0.586920
O8    O     O_R   0.499980 0.417740 0.316850 -0.594574
S1    S     S_3+6 0.610520 0.885399 0.160341 0.031112
O9    O     O_2   0.697961 0.833576 0.171499 -0.300536
O10   O     O_2   0.539146 0.811543 0.132733 -0.295792
O11   O     O_3   0.614057 0.963357 0.039152 -0.437631
H19   H     H_    0.622845 0.921662 0.963533 0.381235
S2    S     S_3+6 0.306127 0.114666 0.754885 0.025277
O12   O     O_2   0.343046 0.168624 0.867155 -0.296600
O13   O     O_2   0.263404 0.186638 0.667703 -0.340113
O14   O     O_3   0.227085 0.036571 0.801864 -0.425092
H20   H     H_    0.185250 0.076836 0.851908 0.384535
S3    S     S_3+6 0.376473 0.891737 0.831829 0.062507
O15   O     O_2   0.290125 0.838932 0.812414 -0.227472
O16   O     O_2   0.446254 0.818848 0.867322 -0.333238
O17   O     O_3   0.366085 0.971072 0.952626 -0.404252
H21   H     H_    0.426938 0.995495 0.968638 0.376926
S4    S     S_3+6 0.684930 0.109797 0.231039 0.046722
O18   O     O_2   0.643539 0.162370 0.122230 -0.234401
O19   O     O_2   0.731852 0.183164 0.313629 -0.348593
O20   O     O_3   0.761465 0.031133 0.176077 -0.408703
H22   H     H_    0.791454 0.005873 0.252137 0.351000

loop_
_geom_bond_atom_site_label_1
_geom_bond_atom_site_label_2
_ccdc_geom_bond_type
C29   C33   S    
C27   C29   S    
S1    O9    D    
Cu2   O2    S    
C19   C20   A    
C2    C37   S    
C7    H11   S    
C8    H12   S    
C6    C9    A    
O14   H20   S    
Cu1   N1    S    
C39   C41   A    
C29   H5    S    
Cu2   N2    S    
C15   C19   A    
C17   C23   A    
C23   S3    S    
C18   C24   A    
C35   C37   A    
C8    C42   A    
C29   C32   S    
C11   N1    A    
C30   C31   S    
C12   N2    A    
S2    O13   D    
C14   H18   S    
C21   S1    S    
C1    O4    A    
C11   C17   A    
C1    O1    A    
C31   C33   S    
Cu2   O6    S    
C9    H13   S    
C36   H8    S    
Cu1   O1    S    
C25   C34   S    
C40   C42   A    
C30   H6    S    
Cu1   O5    S    
C26   O7    A    
S1    O10   D    
C28   H4    S    
C11   H15   S    
C27   C34   S    
C30   C34   S    
C27   C31   S    
C28   C32   S    
O11   H19   S    
C22   S2    S    
C4    C6    A    
C2    O3    A    
O20   H22   S    
O17   H21   S    
C3    C5    A    
C16   C22   A    
C32   C34   S    
Cu1   Cu2   S    
C26   C33   S    
S3    O15   D    
C13   N1    A    
S4    O20   S    
C16   C20   A    
C14   N2    A    
C25   O8    A    
C24   S4    S    
C1    C38   S    
Cu1   O3    S    
S3    O16   D    
S4    O19   D    
C28   C33   S    
C40   H10   S    
C13   C15   A    
C35   H7    S    
C26   O6    A    
S1    O11   S    
C14   C16   A    
Cu2   O4    S    
C25   O5    A    
C3    C4    A    
C27   H3    S    
C7    C9    A    
C3    C41   A    
Cu1   O7    S    
C10   H14   S    
S2    O12   D    
C32   H2    S    
C2    O2    A    
C28   C30   S    
C5    C10   A    
C37   C39   A    
C38   C40   A    
S2    O14   S    
C39   H9    S    
C4    C42   A    
C5    C35   A    
C36   C38   A    
C17   C19   A    
C6    C36   A    
Cu2   O8    S    
C18   C20   A    
C7    C41   A    
C12   H16   S    
C15   C21   A    
S3    O17   S    
C13   H17   S    
S4    O18   D    
C8    C10   A    
C31   H1    S    
C21   C24   A    
C12   C18   A    
C22   C23   A    
