data_mof_unit_50778.cif
_audit_creation_date              2012-10-26T20:50:49-0400
_audit_creation_method            fapswitch 2.2
_symmetry_space_group_name_H-M    P1
_symmetry_Int_Tables_number       1
_space_group_crystal_system       triclinic
_cell_length_a                    11.110822
_cell_length_b                    10.803882
_cell_length_c                    9.60492
_cell_angle_alpha                 90.068497
_cell_angle_beta                  101.991509
_cell_angle_gamma                 91.876629
_cell_volume                      1127.17231168

loop_
_atom_site_label
_atom_site_type_symbol
_atom_type_description
_atom_site_fract_x
_atom_site_fract_y
_atom_site_fract_z
_atom_type_partial_charge
Br1   Br    Br    0.294368 0.324475 0.789756 -0.383309
Br2   Br    Br    0.646232 0.789973 0.175110 -0.458595
Br3   Br    Br    0.039305 0.463359 0.224610 -0.392812
C1    C     C_R   0.495563 0.262385 0.498817 0.547338
C2    C     C_R   0.404869 0.445521 0.050931 0.361540
C3    C     C_R   0.406809 0.442383 0.903264 0.327804
C4    C     C_R   0.262853 0.501681 0.443324 0.590484
C5    C     C_R   0.605324 0.525210 0.952277 0.080230
C6    C     C_3   0.700746 0.626112 0.963494 -0.222036
C7    C     C_3   0.700229 0.631419 0.122948 0.047906
C8    C     C_R   0.494046 0.737408 0.498832 0.549498
C9    C     C_R   0.735729 0.504313 0.557031 0.519025
C10   C     C_2   0.127475 0.495057 0.417130 0.195457
C11   C     C_2   0.069998 0.504287 0.528504 0.317394
C12   C     C_R   0.477587 0.128980 0.494525 -0.000490
C13   C     C_2   0.867888 0.529076 0.586145 0.216623
C14   C     C_2   0.939566 0.465147 0.515129 0.262781
C15   C     C_R   0.474653 0.063686 0.618821 0.024407
C16   C     C_R   0.454777 0.063184 0.364728 -0.120656
C17   C     C_R   0.451609 0.933740 0.365027 -0.099403
C18   C     C_R   0.474094 0.869803 0.494994 -0.012776
C19   C     C_R   0.471492 0.936383 0.619168 0.057772
C20   C     C_3   0.550173 0.932873 0.765746 0.107201
C21   C     C_3   0.555265 0.073683 0.763689 -0.154886
C22   C     C_R   0.604885 0.527665 0.097004 0.137717
Cu1   Cu    Cu3+1 0.499990 0.499980 0.640670 1.021947
Cu2   Cu    Cu3+1 0.500010 0.500020 0.359330 1.046598
H1    H     H_    0.648436 0.113604 0.761746 0.113012
H2    H     H_    0.342469 0.337658 0.178688 0.358964
H3    H     H_    0.097500 0.512348 0.735248 0.381257
H4    H     H_    0.848839 0.671087 0.704321 0.330031
H5    H     H_    0.469257 0.798207 0.846674 0.360984
H6    H     H_    0.788430 0.592129 0.941774 0.158889
H7    H     H_    0.666234 0.708972 0.902508 0.163274
H8    H     H_    0.788299 0.602756 0.190930 0.180864
H9    H     H_    0.445641 0.110843 0.264118 0.163843
H10   H     H_    0.437985 0.884798 0.264464 0.207642
H11   H     H_    0.640790 0.890032 0.772102 0.124267
H12   H     H_    0.508293 0.117560 0.841722 0.210139
H13   H     H_    0.825649 0.321545 0.465792 0.328504
N1    N     N_R   0.500780 0.500930 0.148120 -0.250937
N2    N     N_R   0.500790 0.500890 0.852210 -0.266874
O1    O     O_R   0.500000 0.319640 0.618810 -0.478811
O2    O     O_3   0.307942 0.385187 0.093082 -0.611521
O3    O     O_3   0.135517 0.548202 0.659003 -0.623040
O4    O     O_3   0.916204 0.630816 0.669747 -0.683857
O5    O     O_3   0.483568 0.888307 0.865324 -0.632298
O6    O     O_R   0.500010 0.319680 0.381230 -0.544245
O7    O     O_R   0.320680 0.500000 0.575130 -0.427457
O8    O     O_R   0.320690 0.500040 0.337550 -0.469111
O9    O     O_R   0.499990 0.680320 0.618770 -0.526375
O10   O     O_R   0.500000 0.680360 0.381190 -0.457398
O11   O     O_R   0.679310 0.499960 0.662450 -0.520421
O12   O     O_R   0.679320 0.500000 0.424870 -0.491540
O13   O     O_3   0.897775 0.359672 0.434531 -0.664544

loop_
_geom_bond_atom_site_label_1
_geom_bond_atom_site_label_2
_ccdc_geom_bond_type
Cu2   O6    S    
C12   C15   A    
C12   C16   A    
C20   C21   S    
C7    H8    S    
C5    C22   A    
C1    O1    A    
C20   H11   S    
C21   H1    S    
C6    C7    S    
C14   O13   S    
H3    O3    S    
Cu1   O9    S    
C16   C17   A    
Br3   C10   S    
Cu2   O8    S    
H13   O13   S    
C1    C12   S    
Cu2   O12   S    
C10   C11   D    
Cu2   O10   S    
C6    H6    S    
C17   H10   S    
C11   C14   S    
C4    O7    A    
Cu1   Cu2   S    
C2    C3    A    
C15   C21   S    
C7    C22   S    
C18   C19   A    
C2    O2    S    
C5    N2    A    
Cu1   O1    S    
C11   O3    S    
C16   H9    S    
H2    O2    S    
C3    N2    A    
C6    H7    S    
H5    O5    S    
C20   O5    S    
C22   N1    A    
Br1   C3    S    
Br2   C7    S    
Cu1   O11   S    
C9    C13   S    
C4    C10   S    
C21   H12   S    
C8    O9    A    
C17   C18   A    
Cu1   N2    S    
C1    O6    A    
Cu1   O7    S    
C13   O4    S    
Cu2   N1    S    
C19   C20   S    
C5    C6    S    
C2    N1    A    
C8    O10   A    
C15   C19   A    
C8    C18   S    
C9    O12   A    
C9    O11   A    
C4    O8    A    
C13   C14   D    
H4    O4    S    
