data_mof_unit_32712.cif
_audit_creation_date              2012-12-11T21:12:23-0500
_audit_creation_method            fapswitch 2.2
_symmetry_space_group_name_H-M    P1
_symmetry_Int_Tables_number       1
_space_group_crystal_system       triclinic
_cell_length_a                    8.217483
_cell_length_b                    18.801519
_cell_length_c                    27.015383
_cell_angle_alpha                 99.284051
_cell_angle_beta                  92.831414
_cell_angle_gamma                 88.394193
_cell_volume                      4113.35237381

loop_
_atom_site_label
_atom_site_type_symbol
_atom_type_description
_atom_site_fract_x
_atom_site_fract_y
_atom_site_fract_z
_atom_type_partial_charge
Ba1   Ba    Ba6+2 0.160810 0.465630 0.521640 1.680554
Ba2   Ba    Ba6+2 0.649380 0.534380 0.478400 1.694278
C1    C     C_3   0.418055 0.281101 0.699342 -0.344657
C2    C     C_R   0.061309 0.095519 0.445962 -0.095402
C3    C     C_R   0.196205 0.950603 0.452139 -0.103562
C4    C     C_3   0.959919 0.270865 0.624245 0.360646
C5    C     C_R   0.047796 0.975809 0.473568 0.041116
C6    C     C_R   0.252380 0.880217 0.452064 -0.087941
C7    C     C_R   0.163611 0.831129 0.473218 0.006292
C8    C     C_R   0.018994 0.855518 0.497779 -0.057872
C9    C     C_R   0.961492 0.928226 0.498201 0.021022
C10   C     C_R   0.216016 0.758479 0.470958 -0.010667
C11   C     C_R   0.119526 0.710266 0.489960 -0.318753
C12   C     C_3   0.430807 0.305049 0.648617 0.334073
C13   C     C_R   0.983927 0.733727 0.517752 0.040952
C14   C     C_R   0.934966 0.807986 0.523285 -0.142915
C15   C     C_R   0.842220 0.071573 0.497654 0.031425
C16   C     C_3   0.987153 0.197649 0.640633 -0.353967
C17   C     C_R   0.784207 0.144214 0.498709 -0.004200
C18   C     C_R   0.871294 0.192878 0.475378 -0.039936
C19   C     C_R   0.004353 0.166061 0.447078 -0.025673
C20   C     C_R   0.807747 0.837406 0.553859 0.639024
C21   C     C_R   0.750134 0.907400 0.553273 -0.113194
C22   C     C_R   0.819162 0.952983 0.523790 -0.078468
C23   C     C_3   0.464707 0.314520 0.394785 0.314307
C24   C     C_R   0.755273 0.023686 0.521658 0.040933
C25   C     C_R   0.603965 0.047620 0.541668 -0.100831
C26   C     C_R   0.637782 0.167887 0.522476 -0.035473
C27   C     C_R   0.547124 0.117970 0.542155 -0.090452
C28   C     C_3   0.842854 0.620471 0.631465 0.403786
C29   C     C_R   0.585567 0.240654 0.525299 -0.003577
C30   C     C_R   0.681017 0.289167 0.506164 -0.301170
C31   C     C_R   0.821315 0.266556 0.480653 0.033742
C32   C     C_R   0.297099 0.457729 0.175212 0.594992
C33   C     C_R   0.194447 0.578494 0.175405 0.578554
C34   C     C_3   0.457268 0.233357 0.378532 -0.385862
C35   C     C_2   0.057631 0.558196 0.273019 -0.086949
C36   C     C_3   0.050182 0.581167 0.329031 -0.051139
C37   C     C_1   0.282315 0.498496 0.337311 0.003231
C38   C     C_2   0.319676 0.499441 0.290161 -0.094103
C39   C     C_2   0.196120 0.526179 0.254007 0.194494
C40   C     C_3   0.854144 0.636172 0.688550 0.535554
C41   C     C_R   0.306177 0.511968 0.099017 -0.081710
C42   C     C_R   0.340402 0.453310 0.124763 -0.033994
C43   C     C_R   0.417313 0.391116 0.099602 -0.057800
C44   C     C_R   0.229905 0.574399 0.124439 -0.024377
C45   C     C_3   0.841184 0.732773 0.377213 0.384101
C46   C     C_2   0.158511 0.535860 0.358792 -0.286207
C47   C     C_2   0.648218 0.471323 0.637073 -0.301100
C48   C     C_R   0.472138 0.442017 0.972214 0.020698
C49   C     C_R   0.353158 0.563921 0.971239 0.019422
C50   C     C_R   0.433980 0.501242 0.946529 0.050849
C51   C     C_R   0.554114 0.381479 0.945918 -0.100902
C52   C     C_3   0.964973 0.382252 0.369451 0.295837
C53   C     C_R   0.593450 0.378344 0.896226 -0.056623
C54   C     C_R   0.555278 0.435760 0.870390 -0.022898
C55   C     C_R   0.477321 0.497692 0.895503 -0.081137
C56   C     C_3   0.811661 0.805995 0.360889 -0.367399
C57   C     C_R   0.442859 0.555974 0.869585 -0.040382
C58   C     C_R   0.488422 0.551914 0.819317 0.611962
C59   C     C_R   0.593398 0.431826 0.819731 0.577645
C60   C     C_2   0.738533 0.451753 0.724051 -0.065522
C61   C     C_3   0.749902 0.426154 0.668616 -0.059226
C62   C     C_1   0.520108 0.508528 0.656141 0.011486
C63   C     C_2   0.479956 0.510678 0.703583 -0.103748
C64   C     C_3   0.970365 0.366092 0.312556 -0.361521
C65   C     C_2   0.598653 0.484286 0.741357 0.180438
C66   C     C_R   0.428175 0.445173 0.023015 0.021183
C67   C     C_3   0.369207 0.698683 0.350911 0.342780
C68   C     C_R   0.348294 0.508227 0.047866 0.048970
C69   C     C_R   0.310030 0.567555 0.022199 0.021188
C70   C     C_R   0.460678 0.387005 0.050098 -0.097811
C71   C     C_R   0.191419 0.632113 0.098621 -0.058379
C72   C     C_R   0.319095 0.621122 0.943851 -0.098401
C73   C     C_R   0.363555 0.617248 0.894416 -0.045625
C74   C     C_R   0.229327 0.628769 0.048730 -0.099859
C75   C     C_3   0.328790 0.685486 0.592049 0.444630
C76   C     C_3   0.302879 0.765659 0.610793 0.583860
C77   C     C_3   0.381045 0.724833 0.300876 -0.360609
C78   C     C_R   0.986394 0.047463 0.472598 0.012027
F1    F     F_    0.012561 0.652938 0.705139 -0.662136
F2    F     F_    0.445971 0.795337 0.632895 -0.621076
F3    F     F_    0.740409 0.801072 0.586754 -0.633329
H1    H     H_    0.365583 0.357872 0.649642 0.079080
H2    H     H_    0.412922 0.678579 0.560700 0.028451
H3    H     H_    0.289451 0.270137 0.705879 0.151856
H4    H     H_    0.207040 0.773504 0.638846 0.048699
H5    H     H_    0.263882 0.794037 0.579164 -0.118250
H6    H     H_    0.561635 0.310680 0.642095 -0.049107
H7    H     H_    0.461309 0.324539 0.729382 0.131675
H8    H     H_    0.594520 0.329456 0.401840 0.014958
H9    H     H_    0.398753 0.328294 0.430107 0.056421
H10   H     H_    0.524540 0.217142 0.343698 0.131069
H11   H     H_    0.513535 0.205408 0.408538 0.054870
H12   H     H_    0.771589 0.682257 0.702251 0.075019
H13   H     H_    0.328329 0.216854 0.371475 0.120473
H14   H     H_    0.493683 0.231527 0.701008 0.121858
H15   H     H_    0.927146 0.155541 0.612597 0.075242
H16   H     H_    0.795618 0.734843 0.415490 0.074283
H17   H     H_    0.975155 0.722936 0.378761 -0.082224
H18   H     H_    0.679940 0.820556 0.361035 0.150849
H19   H     H_    0.879242 0.847804 0.387202 0.070606
H20   H     H_    0.855170 0.804888 0.322409 0.119066
H21   H     H_    0.238472 0.698060 0.359078 -0.057684
H22   H     H_    0.423199 0.643375 0.347714 0.073827
H23   H     H_    0.817758 0.588306 0.704194 -0.081462
H24   H     H_    0.317964 0.686831 0.271007 0.132903
H25   H     H_    0.510440 0.727558 0.291467 0.152859
H26   H     H_    0.012364 0.269037 0.586953 0.085682
H27   H     H_    0.322749 0.779141 0.302524 0.114032
H28   H     H_    0.157641 0.654173 0.486206 0.070880
H29   H     H_    0.366746 0.865109 0.434897 0.106977
H30   H     H_    0.067324 0.199091 0.425309 0.096808
H31   H     H_    0.430701 0.132344 0.558255 0.117216
H32   H     H_    0.641582 0.345035 0.509271 0.073649
H33   H     H_    0.274613 0.984362 0.435649 0.068928
H34   H     H_    0.084871 0.401207 0.385590 0.010750
H35   H     H_    0.163890 0.080170 0.423004 0.060700
H36   H     H_    0.654002 0.925483 0.578348 0.127810
H37   H     H_    0.825991 0.280315 0.620549 -0.074787
H38   H     H_    0.523772 0.012494 0.556325 0.082441
H39   H     H_    0.440105 0.482027 0.277882 0.126472
H40   H     H_    0.445749 0.344889 0.118313 0.123343
H41   H     H_    0.832742 0.434793 0.749483 0.126540
H42   H     H_    0.655399 0.330281 0.878072 0.126946
H43   H     H_    0.590832 0.335081 0.962447 0.072332
H44   H     H_    0.519257 0.336607 0.034296 0.070789
H45   H     H_    0.872441 0.425393 0.379412 0.086785
H46   H     H_    0.960933 0.575884 0.248696 0.121927
H47   H     H_    0.130534 0.680633 0.116962 0.123390
H48   H     H_    0.258046 0.670257 0.959336 0.075338
H49   H     H_    0.119331 0.184301 0.643676 0.150977
H50   H     H_    0.334196 0.662793 0.875488 0.139542
H51   H     H_    0.359186 0.528321 0.714648 0.160996
H52   H     H_    0.193247 0.675764 0.032269 0.071867
H53   H     H_    0.152780 0.546212 0.399352 0.076693
H54   H     H_    0.661540 0.460224 0.596781 0.086982
H55   H     H_    0.933526 0.197864 0.677580 0.124456
H56   H     H_    0.068546 0.325779 0.301470 0.143996
H57   H     H_    0.715929 0.607822 0.618783 -0.141366
H58   H     H_    0.923639 0.573448 0.618889 0.028015
H59   H     H_    0.993921 0.415925 0.297287 0.069985
H60   H     H_    0.851795 0.344532 0.296164 0.129789
H61   H     H_    0.209977 0.661930 0.578610 -0.190226
N1    N     N_R   0.227564 0.520409 0.200609 -0.422688
N2    N     N_R   0.560900 0.489743 0.794326 -0.424288
O1    O     O_2   0.106080 0.324280 0.466820 -0.462960
O2    O     O_2   0.719187 0.539109 0.325129 -0.495995
O3    O     O_3   0.758656 0.679302 0.343264 -0.585976
O4    O     O_3   0.859130 0.413620 0.470620 -0.492369
O5    O     O_3   0.459240 0.537930 0.559910 -0.498928
O6    O     O_2   0.583120 0.462390 0.379940 -0.462083
O7    O     O_3   0.392416 0.349262 0.356615 -0.628179
O8    O     O_2   0.554508 0.757697 0.481682 -0.476286
O9    O     O_3   0.455047 0.745363 0.388190 -0.605413
O10   O     O_2   0.320227 0.405370 0.196348 -0.596651
O11   O     O_2   0.653977 0.376001 0.798125 -0.618560
O12   O     O_3   0.394519 0.652768 0.631701 -0.588422
O13   O     O_2   0.136249 0.634557 0.197476 -0.618695
O14   O     O_2   0.465116 0.604203 0.798090 -0.565418
O15   O     O_3   0.376230 0.370290 0.556910 -0.490268
O16   O     O_2   0.247048 0.243422 0.519489 -0.489513
O17   O     O_3   0.925463 0.319172 0.387133 -0.642063
O18   O     O_3   0.359559 0.253213 0.611375 -0.606477
O19   O     O_2   0.227190 0.537650 0.620070 -0.439474
O20   O     O_3   0.971110 0.406970 0.583250 -0.489751
O21   O     O_2   0.083902 0.464103 0.675033 -0.474264
O22   O     O_3   0.036349 0.324508 0.659605 -0.593796
O23   O     O_2   0.704230 0.675760 0.533200 -0.405929
O24   O     O_3   0.951180 0.586390 0.529420 -0.508882
O25   O     O_3   0.434080 0.629720 0.443130 -0.486321
O26   O     O_3   0.889284 0.681744 0.612920 -0.564061
O27   O     O_3   0.351080 0.462080 0.440130 -0.482808
O28   O     O_3   0.839200 0.593040 0.416790 -0.490207
P1    P     P_3+3 0.929380 0.335110 0.452880 0.971059
P2    P     P_3+3 0.398530 0.559060 0.613740 1.051757
P3    P     P_3+3 0.961731 0.408351 0.647575 0.956749
P4    P     P_3+3 0.880940 0.664900 0.547160 1.093250
P5    P     P_3+3 0.840279 0.595368 0.352598 0.951466
P6    P     P_3+3 0.392569 0.276632 0.552689 0.934595
P7    P     P_3+3 0.398087 0.442527 0.376719 0.957756
P8    P     P_3+3 0.414162 0.723152 0.446610 0.940581

loop_
_geom_bond_atom_site_label_1
_geom_bond_atom_site_label_2
_ccdc_geom_bond_type
C76   H4    S    
Ba2   O4    S    
C53   C54   A    
Ba1   P2    S    
C47   C61   S    
C47   H54   S    
C25   C27   A    
Ba1   O24   S    
O25   P8    S    
C16   H49   S    
C17   C18   A    
C49   C72   A    
C12   H1    S    
C27   H31   S    
O17   P1    S    
C60   H41   S    
C25   H38   S    
O9    P8    S    
C75   C76   S    
C43   H40   S    
O19   P2    D    
C5    C9    A    
Ba1   O27   S    
C24   C25   A    
C67   O9    S    
C28   H58   S    
C58   N2    Am   
C60   C65   D    
O24   P4    S    
C1    H7    S    
C15   C24   A    
C26   C27   A    
C22   C24   A    
C2    C78   A    
C6    H29   S    
Ba2   O27   S    
C21   H36   S    
C69   C74   A    
C32   N1    Am   
O1    P1    D    
C55   C57   A    
O26   P4    S    
C13   C14   A    
C9    C22   A    
O3    P5    S    
C45   H16   S    
C54   C55   A    
Ba1   Ba2   S    
C33   N1    Am   
C16   H55   S    
C1    H14   S    
C15   C17   A    
C34   H10   S    
C10   P8    S    
C64   H56   S    
C45   O3    S    
C6    C7    A    
C63   C65   S    
C48   C50   A    
C21   C22   A    
C68   C69   A    
C56   H19   S    
C52   O17   S    
C62   P2    S    
C7    C8    A    
O16   P6    D    
C63   H51   S    
O18   P6    S    
C75   O12   S    
O4    P1    S    
Ba1   O15   S    
C57   C58   A    
C47   C62   D    
C72   H48   S    
C1    H3    S    
C12   O18   S    
C2    H35   S    
O5    P2    S    
C40   F1    S    
C49   C69   A    
C65   N2    S    
C4    H37   S    
C41   C44   A    
C74   H52   S    
C51   C53   A    
Ba2   O6    S    
C4    C16   S    
C4    O22   S    
C23   H8    S    
C48   C51   A    
C28   H57   S    
C72   C73   A    
C70   H44   S    
C23   O7    S    
C49   C50   A    
C53   H42   S    
C32   C42   A    
C19   H30   S    
C8    C9    A    
C37   C38   D    
C3    C5    A    
C67   H22   S    
C64   H60   S    
Ba2   O23   S    
C52   H45   S    
C15   C78   A    
C45   H17   S    
C40   H12   S    
C59   N2    Am   
C12   H6    S    
C35   C36   S    
C59   O11   D    
C76   F2    S    
C29   C30   A    
Ba1   O19   S    
C66   C70   A    
C60   C61   S    
C77   H24   S    
Ba1   O4    S    
C56   H18   S    
C10   C11   A    
O15   P6    S    
C17   C26   A    
C40   H23   S    
C28   O26   S    
C37   P7    S    
C1    C12   S    
Ba2   O24   S    
C64   H59   S    
C18   C31   A    
O12   P2    S    
C38   C39   S    
O21   P3    D    
O7    P7    S    
Ba2   P4    S    
C41   C68   A    
O20   P3    S    
C11   C13   A    
C41   C42   A    
C71   C74   A    
C67   C77   S    
C57   C73   A    
O23   P4    D    
C5    C78   A    
C42   C43   A    
C67   H21   S    
C76   H5    S    
Ba2   O5    S    
C71   H47   S    
Ba1   P1    S    
C23   H9    S    
C14   C20   A    
C36   P5    S    
C77   H27   S    
C54   C59   A    
C36   C46   S    
C46   H53   S    
C26   C29   A    
C28   C40   S    
C58   O14   D    
C3    C6    A    
C73   H50   S    
C52   C64   S    
C32   O10   D    
O2    P5    D    
C38   H39   S    
Ba2   O25   S    
C61   P3    S    
C29   P6    S    
C30   C31   A    
C75   H61   S    
C3    H33   S    
C8    C14   A    
C62   C63   D    
C20   F3    S    
C2    C19   A    
Ba1   O20   S    
C75   H2    S    
O8    P8    D    
C4    H26   S    
C35   H46   S    
C77   H25   S    
Ba1   O5    S    
C30   H32   S    
C35   C39   D    
C31   P1    S    
C7    C10   A    
C33   O13   D    
Ba1   O1    S    
C50   C55   A    
C23   C34   S    
O27   P7    S    
C34   H11   S    
C39   N1    S    
C18   C19   A    
C11   H28   S    
C52   H34   S    
C13   P4    S    
C66   C68   A    
C43   C70   A    
C20   C21   A    
C37   C46   D    
C56   H20   S    
C16   H15   S    
C51   H43   S    
O6    P7    D    
C33   C44   A    
C48   C66   A    
O28   P5    S    
C44   C71   A    
Ba2   O28   S    
O22   P3    S    
C34   H13   S    
C45   C56   S    
