data_mof_unit_23238.cif
_audit_creation_date              2012-12-10T17:48:39-0500
_audit_creation_method            fapswitch 2.2
_symmetry_space_group_name_H-M    P1
_symmetry_Int_Tables_number       1
_space_group_crystal_system       triclinic
_cell_length_a                    15.736607
_cell_length_b                    10.719993
_cell_length_c                    9.918329
_cell_angle_alpha                 92.711974
_cell_angle_beta                  90.050782
_cell_angle_gamma                 92.441216
_cell_volume                      1669.78775828

loop_
_atom_site_label
_atom_site_type_symbol
_atom_type_description
_atom_site_fract_x
_atom_site_fract_y
_atom_site_fract_z
_atom_type_partial_charge
C1    C     C_R   0.506359 0.260614 0.496202 0.877419
C2    C     C_3   0.948447 0.402340 0.603609 0.309430
C3    C     C_3   0.917150 0.496292 0.500710 0.183992
C4    C     C_3   0.954079 0.630092 0.537915 -0.605334
C5    C     C_3   0.052571 0.631379 0.534406 0.308662
C6    C     C_1   0.825622 0.497218 0.500405 0.043659
C7    C     C_1   0.174213 0.497048 0.500387 0.005969
C8    C     C_1   0.249538 0.498018 0.499954 -0.162158
C9    C     C_R   0.632359 0.146102 0.662924 -0.156580
C10   C     C_R   0.685662 0.089133 0.751337 -0.150161
C11   C     C_R   0.680577 0.960200 0.760806 -0.137621
C12   C     C_R   0.338426 0.499407 0.499981 0.912843
C13   C     C_R   0.622657 0.887544 0.681089 -0.158121
C14   C     C_R   0.566681 0.943649 0.592039 0.026039
C15   C     C_R   0.571807 0.074312 0.583129 0.074387
C16   C     C_R   0.521386 0.128802 0.485866 -0.233835
C17   C     C_R   0.481173 0.054573 0.381325 -0.092242
C18   C     C_R   0.463879 0.929848 0.404546 0.377114
C19   C     C_R   0.507740 0.873933 0.507143 -0.208868
C20   C     C_R   0.374803 0.358236 0.132878 -0.114087
C21   C     C_R   0.306874 0.300829 0.060559 -0.190524
C22   C     C_R   0.307197 0.299162 0.920771 -0.204322
C23   C     C_R   0.502306 0.740137 0.503085 0.945055
C24   C     C_R   0.374627 0.356805 0.853570 -0.144677
C25   C     C_R   0.437976 0.430310 0.924352 0.172106
C26   C     C_R   0.438018 0.430621 0.068792 0.172183
C27   C     C_R   0.559332 0.566926 0.075028 -0.111924
C28   C     C_R   0.559296 0.566938 0.931946 -0.113263
C29   C     C_R   0.661569 0.500150 0.500024 0.864375
C30   C     C_3   0.047084 0.404887 0.605584 -0.490876
C31   C     C_3   0.048131 0.452537 0.359751 -0.545615
C32   C     C_3   0.949694 0.456728 0.357316 0.214568
C33   C     C_1   0.750369 0.498574 0.500172 -0.170679
C34   C     C_3   0.082739 0.496782 0.501247 0.161104
H1    H     H_    0.925432 0.306502 0.569032 0.189637
H2    H     H_    0.072597 0.430487 0.708195 0.191176
H3    H     H_    0.931346 0.696464 0.464105 0.164508
H4    H     H_    0.641891 0.245742 0.653655 0.166880
H5    H     H_    0.732122 0.145068 0.810938 0.152775
H6    H     H_    0.722971 0.915929 0.828105 0.134941
H7    H     H_    0.625008 0.787736 0.688092 0.150345
H8    H     H_    0.607708 0.621839 0.131537 0.145571
H9    H     H_    0.068740 0.309157 0.579637 0.169044
H10   H     H_    0.378657 0.338259 0.237017 0.191940
H11   H     H_    0.257595 0.248529 0.112508 0.145429
H12   H     H_    0.257860 0.246229 0.864101 0.151532
H13   H     H_    0.376636 0.337889 0.747250 0.198155
H14   H     H_    0.607651 0.621830 0.881126 0.139624
H15   H     H_    0.075306 0.513558 0.281375 0.156962
H16   H     H_    0.068377 0.356011 0.333951 0.220311
H17   H     H_    0.930862 0.527766 0.285321 0.109144
H18   H     H_    0.074263 0.691656 0.451590 0.147364
H19   H     H_    0.930635 0.664280 0.638112 0.211409
N1    N     N_R   0.499210 0.498800 0.142780 -0.123120
N2    N     N_R   0.499180 0.498720 0.857170 -0.122431
O1    O     O_R   0.500000 0.316780 0.614690 -0.648238
O2    O     O_R   0.499990 0.316750 0.385360 -0.632092
O3    O     O_R   0.377150 0.500020 0.614720 -0.624465
O4    O     O_R   0.377140 0.499990 0.385380 -0.623072
O5    O     O_R   0.500010 0.683250 0.614640 -0.627134
O6    O     O_R   0.500000 0.683220 0.385310 -0.590966
O7    O     O_R   0.622860 0.500010 0.614620 -0.627581
O8    O     O_R   0.622850 0.499980 0.385280 -0.616981
Zn1   Zn    Zn3+2 0.500010 0.500020 0.653130 0.933829
Zn2   Zn    Zn3+2 0.499990 0.499980 0.346870 0.951485
O9    O     O_3   0.914490 0.424350 0.733590 -0.779694
H20   H     H_    0.941932 0.502166 0.774141 0.332603
C35   C     C_R   0.479665 0.093150 0.238467 0.144330
C36   C     C_R   0.555522 0.140254 0.180652 -0.106087
C37   C     C_R   0.560949 0.155556 0.041808 -0.153656
C38   C     C_R   0.492245 0.118614 0.958038 -0.088024
C39   C     C_R   0.416984 0.070822 0.013609 -0.132360
C40   C     C_R   0.409356 0.062955 0.153389 -0.175223
H21   H     H_    0.611346 0.162115 0.242713 0.139309
H22   H     H_    0.619172 0.193400 0.999052 0.142057
H23   H     H_    0.496704 0.128302 0.850299 0.158520
H24   H     H_    0.363595 0.042841 0.948564 0.148100
H25   H     H_    0.349448 0.029107 0.194382 0.177387
O10   O     O_3   0.407744 0.859090 0.322457 -0.756411
H26   H     H_    0.438187 0.841871 0.236406 0.345708
O11   O     O_3   0.913393 0.339294 0.314516 -0.774511
H27   H     H_    0.923711 0.329407 0.215917 0.344555
O12   O     O_3   0.088932 0.685083 0.654604 -0.745221
H28   H     H_    0.063789 0.641207 0.731717 0.334622

loop_
_geom_bond_atom_site_label_1
_geom_bond_atom_site_label_2
_ccdc_geom_bond_type
C2    H1    S    
O8    Zn2   S    
C4    H19   S    
C3    C6    S    
C13   H7    S    
O11   H27   S    
C27   N1    A    
C7    C8    T    
N1    Zn2   S    
C32   O11   S    
C1    O1    A    
C38   H23   S    
C5    O12   S    
C15   C16   A    
C29   C33   S    
C18   C19   A    
C9    H4    S    
O7    Zn1   S    
C35   C36   A    
C12   O4    A    
C31   C32   S    
C16   C17   A    
C3    C32   S    
C40   H25   S    
O1    Zn1   S    
C5    H18   S    
C18   O10   S    
C37   C38   A    
C9    C10   A    
C12   O3    A    
O9    H20   S    
C21   C22   A    
N2    Zn1   S    
C36   C37   A    
C31   H15   S    
C26   N1    A    
C20   H10   S    
C28   N2    A    
C21   H11   S    
O3    Zn1   S    
C23   O5    A    
C30   C34   S    
C24   C25   A    
C39   C40   A    
C35   C40   A    
C10   H5    S    
C19   C23   S    
C32   H17   S    
C39   H24   S    
C1    O2    A    
O12   H28   S    
C8    C12   S    
C5    C34   S    
C17   C18   A    
C31   C34   S    
C36   H21   S    
C1    C16   S    
C20   C21   A    
C22   H12   S    
C7    C34   S    
C22   C24   A    
C30   H9    S    
C31   H16   S    
C3    C4    S    
C37   H22   S    
C29   O7    A    
C28   H14   S    
C17   C35   S    
C24   H13   S    
C14   C19   A    
C25   N2    A    
O2    Zn2   S    
C4    C5    S    
C2    O9    S    
C30   H2    S    
C6    C33   T    
C2    C30   S    
O5    Zn1   S    
C2    C3    S    
C25   C26   A    
C38   C39   A    
O4    Zn2   S    
C11   C13   A    
C27   H8    S    
C20   C26   A    
C29   O8    A    
C9    C15   A    
C11   H6    S    
C10   C11   A    
O10   H26   S    
O6    Zn2   S    
C23   O6    A    
C4    H3    S    
C27   C28   A    
C14   C15   A    
C13   C14   A    
