data_mof_unit_9466.cif
_audit_creation_date              2012-10-26T17:48:50-0400
_audit_creation_method            fapswitch 2.2
_symmetry_space_group_name_H-M    P1
_symmetry_Int_Tables_number       1
_space_group_crystal_system       triclinic
_cell_length_a                    18.716537
_cell_length_b                    19.184791
_cell_length_c                    18.545942
_cell_angle_alpha                 109.668922
_cell_angle_beta                  108.717482
_cell_angle_gamma                 109.519457
_cell_volume                      5157.93363086

loop_
_atom_site_label
_atom_site_type_symbol
_atom_type_description
_atom_site_fract_x
_atom_site_fract_y
_atom_site_fract_z
_atom_type_partial_charge
C1    C     C_R   0.000529 0.119300 0.618852 0.626154
C2    C     C_R   0.230749 0.291154 0.656916 0.262914
C3    C     C_3   0.635309 0.584840 0.924030 -0.477230
C4    C     C_3   0.332597 0.563922 0.742389 0.024674
C5    C     C_3   0.369665 0.654845 0.814156 -0.264925
C6    C     C_3   0.328400 0.700969 0.778879 -0.481075
C7    C     C_3   0.255061 0.236403 0.750095 0.017743
C8    C     C_3   0.321100 0.213041 0.732223 -0.275876
C9    C     C_3   0.386680 0.221520 0.813788 -0.497630
C10   C     C_3   0.054707 0.350848 0.625047 0.014519
C11   C     C_3   0.970182 0.353343 0.587262 -0.297307
C12   C     C_3   0.989067 0.439864 0.594511 -0.461630
C13   C     C_R   0.926364 0.082673 0.723807 -0.141697
C14   C     C_R   0.118535 0.118791 0.500051 0.675213
C15   C     C_R   0.907153 0.064095 0.783641 -0.117400
C16   C     C_R   0.936730 0.129889 0.866551 0.124615
C17   C     C_R   0.978468 0.215370 0.885964 0.156481
C18   C     C_R   0.988395 0.234168 0.820019 0.022971
C19   C     C_R   0.972391 0.167217 0.743692 -0.065901
C20   C     C_R   0.998431 0.184856 0.685700 0.032058
C21   C     C_R   0.022764 0.264608 0.690718 0.250112
C22   C     C_R   0.187836 0.172658 0.421063 -0.043551
C23   C     C_R   0.028794 0.329388 0.761261 -0.186033
C24   C     C_R   0.012102 0.315376 0.825186 -0.045146
C25   C     C_R   0.728146 0.732110 0.330776 -0.160889
C26   C     C_R   0.001842 0.883124 0.381474 0.609104
C27   C     C_R   0.670526 0.655025 0.252077 0.279192
C28   C     C_R   0.633899 0.580175 0.254331 0.297864
C29   C     C_R   0.647013 0.584549 0.335321 0.232156
C30   C     C_R   0.689303 0.665396 0.413086 -0.042814
C31   C     C_R   0.742626 0.737819 0.413006 -0.095497
C32   C     C_R   0.813425 0.809564 0.495022 0.030643
C33   C     C_R   0.311224 0.318412 0.502112 -0.016605
C34   C     C_R   0.822519 0.809522 0.573973 0.066215
C35   C     C_R   0.754907 0.748993 0.572006 -0.117718
C36   C     C_R   0.687398 0.677359 0.492868 -0.014670
C37   C     C_R   0.143860 0.913098 0.336182 0.129001
C38   C     C_R   0.880897 0.879928 0.498718 0.522518
C39   C     C_R   0.193359 0.933651 0.296055 -0.088630
C40   C     C_R   0.162552 0.880034 0.207518 0.087934
C41   C     C_R   0.086380 0.801815 0.162068 -0.058966
C42   C     C_R   0.044094 0.773468 0.205856 -0.058295
C43   C     C_R   0.063362 0.835056 0.287377 0.022105
C44   C     C_R   0.306504 0.332835 0.580614 -0.086149
C45   C     C_R   0.001822 0.815259 0.316206 0.004788
C46   C     C_R   0.935363 0.730448 0.277017 0.113827
C47   C     C_R   0.928064 0.665848 0.206385 0.100113
C48   C     C_R   0.985342 0.686006 0.172504 -0.038787
C49   C     C_R   0.620048 0.501748 0.618590 0.554574
C50   C     C_R   0.134607 0.092593 0.339174 0.215312
C51   C     C_R   0.382186 0.382405 0.502478 0.581439
C52   C     C_R   0.379210 0.497930 0.381205 0.528737
C53   C     C_R   0.618126 0.616932 0.497119 0.547219
C54   C     C_R   0.881161 0.495224 0.875989 0.563267
C55   C     C_R   0.239067 0.268831 0.578722 -0.077875
C56   C     C_R   0.005823 0.382040 0.886665 0.567296
C57   C     C_R   0.118800 0.501909 0.120493 0.557967
C58   C     C_R   0.993225 0.618159 0.112649 0.543258
C59   C     C_R   0.799718 0.591608 0.661528 -0.156491
C60   C     C_R   0.883475 0.624244 0.671914 0.121165
C61   C     C_R   0.943065 0.606815 0.719293 0.317396
C62   C     C_R   0.154415 0.083483 0.270587 -0.125886
C63   C     C_R   0.918000 0.556204 0.755878 -0.131392
C64   C     C_R   0.836871 0.530079 0.753996 -0.048808
C65   C     C_R   0.775005 0.542752 0.700388 -0.022857
C66   C     C_R   0.184265 0.186704 0.500650 -0.002752
C67   C     C_R   0.688844 0.502984 0.683817 -0.004638
C68   C     C_R   0.663979 0.449065 0.716097 -0.147843
C69   C     C_R   0.725306 0.443675 0.776723 0.070402
C70   C     C_R   0.813934 0.488545 0.800693 0.037109
C71   C     C_R   0.225585 0.493291 0.395492 -0.105333
C72   C     C_R   0.156984 0.499436 0.406876 0.165873
C73   C     C_R   0.100161 0.511625 0.348616 0.144296
C74   C     C_R   0.201146 0.154725 0.268043 0.272833
C75   C     C_R   0.110352 0.514566 0.278018 -0.124486
C76   C     C_R   0.176791 0.504310 0.263230 -0.040875
C77   C     C_R   0.364435 0.410940 0.661903 0.256408
C78   C     C_R   0.237676 0.497444 0.325101 -0.009962
C79   C     C_R   0.309055 0.495283 0.314920 -0.029202
C80   C     C_R   0.318978 0.499401 0.244820 -0.118426
C81   C     C_R   0.258366 0.503616 0.182222 0.240615
C82   C     C_R   0.185822 0.504173 0.190043 0.010900
C83   C     C_R   0.234629 0.234489 0.338384 0.133161
C84   C     C_R   0.245733 0.242762 0.421287 -0.070730
C85   C     C_3   0.607921 0.678728 0.141264 0.000450
C86   C     C_3   0.513551 0.605433 0.085466 -0.266065
C87   C     C_3   0.453421 0.629882 0.035266 -0.469975
C88   C     C_R   0.330113 0.439164 0.715211 0.235494
C89   C     C_3   0.515184 0.445380 0.151182 0.031268
C90   C     C_3   0.506766 0.358064 0.131833 -0.243048
C91   C     C_3   0.412020 0.287867 0.080136 -0.496648
C92   C     C_3   0.713523 0.508799 0.361733 0.017785
C93   C     C_3   0.708617 0.443372 0.392137 -0.258553
C94   C     C_3   0.791017 0.436522 0.415563 -0.488066
C95   C     C_3   0.986977 0.992695 0.246873 0.038833
C96   C     C_3   0.956953 0.058719 0.249412 -0.268236
C97   C     C_3   0.872617 0.020998 0.165867 -0.490626
C98   C     C_3   0.090754 0.693501 0.810679 0.004102
C99   C     C_R   0.266217 0.378254 0.717160 0.082918
C100  C     C_3   0.101787 0.782822 0.836719 -0.253332
C101  C     C_3   0.177946 0.848457 0.928939 -0.487738
C102  C     C_3   0.225998 0.440735 0.037556 0.027787
C103  C     C_3   0.277070 0.394433 0.023921 -0.291672
C104  C     C_3   0.218873 0.307136 0.940864 -0.480241
C105  C     C_3   0.256577 0.119373 0.176609 -0.004476
C106  C     C_3   0.349744 0.194296 0.227424 -0.268736
C107  C     C_3   0.411730 0.165301 0.209141 -0.487897
C108  C     C_3   0.504453 0.471798 0.775470 0.036616
C109  C     C_3   0.578190 0.564423 0.831534 -0.242484
Cu1   Cu    Cu3+1 0.061810 0.999990 0.561790 0.934463
Cu2   Cu    Cu3+1 0.938190 0.000010 0.438210 0.937312
Cu3   Cu    Cu3+1 0.499980 0.561850 0.561820 0.944537
Cu4   Cu    Cu3+1 0.500030 0.438250 0.438240 0.906315
Cu5   Cu    Cu3+1 0.061790 0.561800 0.999990 0.896632
Cu6   Cu    Cu3+1 0.938200 0.438200 0.000000 0.930444
H1    H     H_    0.901847 0.030746 0.659670 0.113628
H2    H     H_    0.124366 0.021753 0.213520 0.135439
H3    H     H_    0.441069 0.690604 0.840835 0.159978
H4    H     H_    0.341469 0.704904 0.725619 0.160272
H5    H     H_    0.356308 0.766621 0.832559 0.141092
H6    H     H_    0.257080 0.666827 0.753058 0.157380
H7    H     H_    0.219534 0.191314 0.767382 0.162163
H8    H     H_    0.290268 0.300333 0.809117 0.104828
H9    H     H_    0.287064 0.146422 0.678024 0.189654
H10   H     H_    0.357305 0.255984 0.713341 0.144673
H11   H     H_    0.423494 0.288280 0.868759 0.146910
H12   H     H_    0.433336 0.204041 0.799294 0.151827
H13   H     H_    0.961637 0.535089 0.781982 0.139568
H14   H     H_    0.352963 0.178392 0.833975 0.142088
H15   H     H_    0.083478 0.354621 0.581634 0.148065
H16   H     H_    0.105079 0.407469 0.690248 0.143730
H17   H     H_    0.928111 0.302794 0.517137 0.171077
H18   H     H_    0.933808 0.341002 0.622580 0.164325
H19   H     H_    0.032499 0.491162 0.664131 0.182147
H20   H     H_    0.927469 0.441336 0.569815 0.166031
H21   H     H_    0.020593 0.451753 0.555120 0.168340
H22   H     H_    0.375943 0.501960 0.239993 0.123807
H23   H     H_    0.268550 0.484814 0.442339 0.122388
H24   H     H_    0.066585 0.526985 0.236587 0.137487
H25   H     H_    0.298397 0.433414 0.845491 0.227433
H26   H     H_    0.195070 0.354091 0.778781 0.256105
H27   H     H_    0.883963 0.045383 0.904023 0.227052
H28   H     H_    0.984098 0.127191 0.979139 0.236413
H29   H     H_    0.062335 0.274198 0.015696 0.211104
H30   H     H_    0.871383 0.998189 0.766236 0.128342
H31   H     H_    0.967286 0.273909 0.991816 0.278731
H32   H     H_    0.919147 0.929550 0.670253 0.241205
H33   H     H_    0.949849 0.855014 0.653045 0.255755
H34   H     H_    0.613868 0.734171 0.193781 0.106967
H35   H     H_    0.626708 0.701375 0.098909 0.147601
H36   H     H_    0.509808 0.548702 0.037649 0.175780
H37   H     H_    0.490847 0.588261 0.128694 0.157032
H38   H     H_    0.456089 0.686696 0.081549 0.152252
H39   H     H_    0.385586 0.576157 0.997276 0.163991
H40   H     H_    0.472593 0.643923 0.988793 0.159906
H41   H     H_    0.043818 0.390870 0.766503 0.128107
H42   H     H_    0.473335 0.440138 0.089339 0.121533
H43   H     H_    0.490436 0.464213 0.197675 0.129464
H44   H     H_    0.539447 0.342851 0.093072 0.175706
H45   H     H_    0.539137 0.359468 0.194447 0.184349
H46   H     H_    0.376320 0.303021 0.115089 0.149926
H47   H     H_    0.408412 0.226545 0.071808 0.143494
H48   H     H_    0.381088 0.280505 0.014105 0.143012
H49   H     H_    0.771063 0.571662 0.415577 0.116658
H50   H     H_    0.722444 0.489434 0.302973 0.166408
H51   H     H_    0.699619 0.462415 0.450781 0.195585
H52   H     H_    0.763332 0.784531 0.324198 0.182076
H53   H     H_    0.651878 0.379963 0.339128 0.152471
H54   H     H_    0.801382 0.417281 0.357870 0.152610
H55   H     H_    0.784606 0.387670 0.436109 0.145823
H56   H     H_    0.848296 0.498520 0.470548 0.173463
H57   H     H_    0.934172 0.936989 0.238321 0.171911
H58   H     H_    0.992489 0.966361 0.187010 0.108421
H59   H     H_    0.946051 0.080029 0.306443 0.186089
H60   H     H_    0.007199 0.115307 0.255928 0.170233
H61   H     H_    0.882062 0.000655 0.107649 0.157947
H62   H     H_    0.852480 0.069803 0.169480 0.153061
H63   H     H_    0.758887 0.754351 0.633469 0.140654
H64   H     H_    0.820149 0.965311 0.158260 0.136351
H65   H     H_    0.885027 0.662850 0.328916 0.233586
H66   H     H_    0.893468 0.757915 0.368450 0.214868
H67   H     H_    0.236026 0.963512 0.460474 0.210647
H68   H     H_    0.202303 0.029744 0.442174 0.234963
H69   H     H_    0.268715 0.958624 0.208536 0.212061
H70   H     H_    0.225488 0.854993 0.140908 0.227994
H71   H     H_    0.823758 0.553755 0.101427 0.258603
H72   H     H_    0.886662 0.544379 0.184861 0.236735
H73   H     H_    0.864218 0.641623 0.567407 0.218426
H74   H     H_    0.254798 0.992655 0.333673 0.094233
H75   H     H_    0.903490 0.729436 0.662896 0.233760
H76   H     H_    0.151967 0.695898 0.814165 0.142984
H77   H     H_    0.081619 0.674381 0.858920 0.117714
H78   H     H_    0.113125 0.801723 0.789234 0.187735
H79   H     H_    0.041669 0.782294 0.834881 0.168568
H80   H     H_    0.167105 0.831247 0.977485 0.166814
H81   H     H_    0.184061 0.912251 0.946064 0.149252
H82   H     H_    0.239429 0.851798 0.932314 0.140635
H83   H     H_    0.663898 0.412475 0.842467 0.214585
H84   H     H_    0.651585 0.328661 0.759763 0.224869
H85   H     H_    0.061454 0.763730 0.092464 0.157768
H86   H     H_    0.195689 0.490809 0.519016 0.195585
H87   H     H_    0.088182 0.438663 0.451915 0.231282
H88   H     H_    0.972805 0.473687 0.305116 0.214378
H89   H     H_    0.039740 0.580205 0.367982 0.228591
H90   H     H_    0.209467 0.457996 0.985368 0.169574
H91   H     H_    0.163446 0.397126 0.028533 0.148906
H92   H     H_    0.332035 0.433390 0.018328 0.146699
H93   H     H_    0.303655 0.385603 0.080893 0.160197
H94   H     H_    0.168550 0.264633 0.948895 0.165405
H95   H     H_    0.258156 0.277425 0.927782 0.128140
H96   H     H_    0.595844 0.409678 0.692660 0.122939
H97   H     H_    0.186503 0.313235 0.883530 0.146959
H98   H     H_    0.235496 0.090593 0.105384 0.156874
H99   H     H_    0.254411 0.068595 0.193494 0.131444
H100  H     H_    0.351067 0.243501 0.208294 0.169821
H101  H     H_    0.372570 0.223439 0.298964 0.177971
H102  H     H_    0.414820 0.119607 0.232543 0.145442
H103  H     H_    0.477829 0.221345 0.244194 0.141855
H104  H     H_    0.389780 0.134084 0.137760 0.141634
H105  H     H_    0.288293 0.315135 0.300151 0.280722
H106  H     H_    0.255143 0.355772 0.372309 0.208078
H107  H     H_    0.754324 0.604443 0.622495 0.114890
H108  H     H_    0.531517 0.428330 0.769372 0.102649
H109  H     H_    0.469251 0.458856 0.811872 0.135787
H110  H     H_    0.619077 0.576651 0.800356 0.184749
H111  H     H_    0.550213 0.607502 0.835912 0.190600
H112  H     H_    0.595981 0.573488 0.956938 0.168276
H113  H     H_    0.686937 0.652852 0.963221 0.149619
H114  H     H_    0.666598 0.544742 0.921675 0.155714
H115  H     H_    0.260788 0.529578 0.715817 0.134063
H116  H     H_    0.346516 0.566211 0.688851 0.141535
H117  H     H_    0.357114 0.653079 0.868359 0.169322
N1    N     N_3   0.243715 0.405755 0.784721 -0.628725
N2    N     N_3   0.696272 0.390764 0.811904 -0.595789
N3    N     N_3   0.145530 0.495191 0.478595 -0.600368
N4    N     N_3   0.031932 0.521471 0.361557 -0.604859
N5    N     N_3   0.240831 0.301747 0.318916 -0.584293
N6    N     N_3   0.923719 0.110899 0.931493 -0.639729
N7    N     N_3   0.016001 0.281636 0.974183 -0.608860
N8    N     N_3   0.900516 0.867417 0.656851 -0.657056
N9    N     N_3   0.877038 0.706842 0.310641 -0.560918
N10   N     N_3   0.180994 0.966814 0.428548 -0.577814
N11   N     N_3   0.209498 0.902237 0.163600 -0.664920
N12   N     N_3   0.859868 0.580590 0.169356 -0.577288
N13   N     N_3   0.908701 0.675628 0.634393 -0.594633
O1    O     O_R   0.052180 0.090150 0.642360 -0.503445
O2    O     O_R   0.857610 0.447810 0.909840 -0.458200
O3    O     O_R   0.052190 0.462030 0.909810 -0.536419
O4    O     O_R   0.947790 0.090180 0.538000 -0.489468
O5    O     O_R   0.947820 0.357640 0.909820 -0.478207
O6    O     O_R   0.142370 0.552190 0.090140 -0.467228
O7    O     O_R   0.038000 0.447800 0.090150 -0.525316
O8    O     O_R   0.052170 0.642360 0.090160 -0.519952
O9    O     O_R   0.947800 0.537970 0.090170 -0.528953
O10   O     O_R   0.142370 0.090170 0.552180 -0.482726
O11   O     O_R   0.037980 0.090190 0.447820 -0.472106
O12   O     O_R   0.590200 0.447870 0.538030 -0.518021
O13   O     O_R   0.052210 0.909820 0.462000 -0.489323
O14   O     O_R   0.947820 0.909850 0.357640 -0.512790
O15   O     O_R   0.962020 0.909810 0.552180 -0.530730
O16   O     O_R   0.857630 0.909830 0.447820 -0.540124
O17   O     O_R   0.590160 0.552240 0.642380 -0.496355
O18   O     O_3   0.664698 0.650072 0.174058 -0.518022
O19   O     O_3   0.602176 0.503714 0.180538 -0.534102
O20   O     O_3   0.635109 0.511354 0.339672 -0.542903
O21   O     O_3   0.064058 0.024171 0.325343 -0.548013
O22   O     O_3   0.023397 0.633977 0.723088 -0.559014
O23   O     O_R   0.409810 0.462060 0.552200 -0.469747
O24   O     O_3   0.276520 0.516956 0.119549 -0.563700
O25   O     O_3   0.198708 0.147400 0.190321 -0.559611
O26   O     O_3   0.452641 0.456147 0.690173 -0.528128
O27   O     O_3   0.371852 0.523807 0.778512 -0.569142
O28   O     O_3   0.192209 0.229980 0.676214 -0.527253
O29   O     O_3   0.038779 0.273066 0.624328 -0.538766
O30   O     O_R   0.409850 0.357690 0.447850 -0.534101
O31   O     O_R   0.409800 0.552230 0.462030 -0.513922
O32   O     O_R   0.409840 0.447860 0.357670 -0.534802
O33   O     O_R   0.590160 0.642410 0.552210 -0.518673
O34   O     O_R   0.590200 0.538040 0.447850 -0.451356
O35   O     O_R   0.961980 0.552200 0.909830 -0.545876

loop_
_geom_bond_atom_site_label_1
_geom_bond_atom_site_label_2
_ccdc_geom_bond_type
C4    O27   S    
C59   C60   A    
C9    H14   S    
C50   O21   S    
C25   C31   A    
C93   C94   S    
C96   H60   S    
Cu4   O32   S    
C29   O20   S    
C41   C42   A    
C95   C96   S    
C104  H95   S    
C74   C83   A    
C85   H35   S    
C7    H8    S    
C21   O29   S    
C3    H114  S    
C83   N5    S    
Cu5   Cu6   S    
C74   O25   S    
C7    C8    S    
C52   O31   A    
Cu6   O5    S    
H65   N9    S    
C25   H52   S    
C106  H100  S    
C56   O3    A    
C9    H12   S    
C96   H59   S    
C83   C84   A    
C18   C24   A    
C44   C77   A    
C102  O24   S    
C103  H92   S    
Cu1   O13   S    
H69   N11   S    
C1    O1    A    
C11   H18   S    
C94   H54   S    
C85   C86   S    
C30   C31   A    
C99   N1    S    
C1    O4    A    
H86   N3    S    
C16   C17   A    
C106  C107  S    
C80   H22   S    
C61   O22   S    
C105  O25   S    
C108  C109  S    
C58   O8    A    
H27   N6    S    
C34   C35   A    
Cu2   O14   S    
C90   H44   S    
C61   C63   A    
C7    O28   S    
C10   H16   S    
C22   C66   A    
C73   N4    S    
C36   C53   S    
C103  C104  S    
C26   C45   S    
H87   N3    S    
C107  H102  S    
C49   O12   A    
C92   H50   S    
C88   O27   S    
Cu5   O3    S    
C14   O10   A    
C19   C20   A    
C93   H53   S    
C68   C69   A    
C62   H2    S    
C12   H20   S    
C56   O5    A    
C47   C48   A    
C62   C74   A    
C23   C24   A    
C87   H38   S    
C91   H47   S    
C8    C9    S    
H68   N10   S    
C64   C70   A    
C57   O6    A    
C52   C79   S    
C34   N8    S    
C95   H57   S    
Cu3   O23   S    
C63   H13   S    
C101  H81   S    
Cu5   O35   S    
C22   C50   A    
C92   H49   S    
C35   H63   S    
C16   N6    S    
C60   N13   S    
C97   H61   S    
C12   H19   S    
C23   H41   S    
C11   H17   S    
C73   C75   A    
H28   N6    S    
C91   H48   S    
C69   C70   A    
Cu4   O12   S    
C104  H94   S    
C85   O18   S    
C41   H85   S    
C30   C36   A    
C88   C99   A    
H67   N10   S    
C6    H5    S    
Cu3   Cu4   S    
C102  H90   S    
H66   N9    S    
C81   C82   A    
C71   H23   S    
Cu6   O2    S    
C53   O33   A    
C5    H117  S    
C105  H98   S    
C13   C19   A    
C63   C64   A    
C67   C68   A    
C40   N11   S    
C4    H116  S    
H72   N12   S    
C103  H93   S    
C77   C88   A    
C72   C73   A    
C98   H77   S    
H83   N2    S    
C38   O16   A    
C76   C82   A    
C39   C40   A    
C15   H30   S    
C108  H108  S    
C109  H110  S    
C86   C87   S    
C18   C19   A    
C95   O21   S    
Cu6   O7    S    
C65   C67   A    
C89   H43   S    
H32   N8    S    
Cu1   Cu2   S    
H29   N7    S    
H106  N5    S    
C60   C61   A    
C35   C36   A    
C32   C34   A    
C37   C43   A    
C75   C76   A    
C10   H15   S    
Cu1   O15   S    
C29   C30   A    
C59   H107  S    
C86   H37   S    
C94   H56   S    
H70   N11   S    
C107  H103  S    
C102  H91   S    
C98   H76   S    
C97   H62   S    
C31   C32   A    
C54   C70   S    
C98   O22   S    
C109  H111  S    
C27   O18   S    
C96   C97   S    
C81   O24   S    
C17   C18   A    
C14   C66   S    
C87   H39   S    
H73   N13   S    
C28   O19   S    
C89   O19   S    
C42   C48   A    
C54   O2    A    
H31   N7    S    
C57   O7    A    
C89   H42   S    
C4    C5    S    
C43   C45   A    
C107  H104  S    
C92   O20   S    
C17   N7    S    
H26   N1    S    
C40   C41   A    
C93   H51   S    
C32   C38   S    
C94   H55   S    
C21   C23   A    
C12   H21   S    
H25   N1    S    
C50   C62   A    
C87   H40   S    
H105  N5    S    
H84   N2    S    
Cu2   O4    S    
C42   C43   A    
C104  H97   S    
C7    H7    S    
C3    H112  S    
C6    H4    S    
C26   O14   A    
C55   C66   A    
Cu2   O11   S    
C53   O34   A    
Cu5   O8    S    
Cu4   O34   S    
C46   C47   A    
C28   C29   A    
H75   N13   S    
C54   O35   A    
C105  H99   S    
C49   C67   S    
H33   N8    S    
C33   C44   A    
C108  O26   S    
C8    H9    S    
Cu3   O31   S    
C76   C78   A    
C80   C81   A    
C1    C20   S    
C38   O15   A    
C77   O26   S    
C2    C99   A    
C49   O17   A    
C48   C58   S    
C100  H79   S    
C33   C51   S    
C85   H34   S    
C106  H101  S    
C105  C106  S    
C98   C100  S    
C9    H11   S    
C6    H6    S    
C72   N3    S    
C51   O30   A    
C5    H3    S    
C2    C55   A    
C3    C109  S    
C64   C65   A    
C100  H78   S    
C13   C15   A    
C95   H58   S    
Cu2   O16   S    
C101  H80   S    
H88   N4    S    
C37   C39   A    
C75   H24   S    
C86   H36   S    
C59   C65   A    
C2    O28   S    
H71   N12   S    
C78   C79   A    
C44   C55   A    
Cu1   O1    S    
C90   C91   S    
C5    C6    S    
Cu6   O9    S    
C24   C56   S    
C51   O23   A    
C39   H74   S    
Cu5   O6    S    
C91   H46   S    
C92   C93   S    
Cu1   O10   S    
C58   O9    A    
C101  H82   S    
C71   C78   A    
C90   H45   S    
C102  C103  S    
C33   C84   A    
Cu3   O33   S    
Cu4   O30   S    
C13   H1    S    
C97   H64   S    
C10   C11   S    
C79   C80   A    
C108  H109  S    
C45   C46   A    
C8    H10   S    
C71   C72   A    
C14   O11   A    
C20   C21   A    
H89   N4    S    
C10   O29   S    
Cu3   O17   S    
C26   O13   A    
C22   C84   A    
C57   C82   S    
C37   N10   S    
C100  C101  S    
C46   N9    S    
C89   C90   S    
C68   H96   S    
C3    H113  S    
C69   N2    S    
C47   N12   S    
C15   C16   A    
C11   C12   S    
C4    H115  S    
C52   O32   A    
C27   C28   A    
C25   C27   A    
