data_mof_unit_65258.cif
_audit_creation_date              2012-12-10T18:57:51-0500
_audit_creation_method            fapswitch 2.2
_symmetry_space_group_name_H-M    P1
_symmetry_Int_Tables_number       1
_space_group_crystal_system       triclinic
_cell_length_a                    37.172813
_cell_length_b                    30.271946
_cell_length_c                    21.473089
_cell_angle_alpha                 90.007474
_cell_angle_beta                  54.462738
_cell_angle_gamma                 90.018246
_cell_volume                      19662.7700098

loop_
_atom_site_label
_atom_site_type_symbol
_atom_type_description
_atom_site_fract_x
_atom_site_fract_y
_atom_site_fract_z
_atom_type_partial_charge
C1    C     C_R   0.913704 0.499969 0.585942 0.863472
C2    C     C_R   0.086296 0.499980 0.414056 0.863457
C3    C     C_R   0.413704 0.999969 0.585945 0.862857
C4    C     C_R   0.586292 0.999985 0.414056 0.875722
C5    C     C_3   0.996778 0.453601 0.215289 -0.421887
C6    C     C_3   0.003323 0.453616 0.784591 -0.421911
C7    C     C_3   0.496749 0.953602 0.215318 -0.421935
C8    C     C_3   0.511198 0.954526 0.776284 -0.421135
C9    C     C_R   0.796715 0.462390 0.720965 -0.180565
C10   C     C_R   0.203274 0.462452 0.279007 -0.180449
C11   C     C_R   0.296715 0.962394 0.720986 -0.180418
C12   C     C_R   0.703271 0.962733 0.278059 -0.180335
C13   C     C_R   0.842525 0.462210 0.675209 -0.198829
C14   C     C_R   0.157465 0.462255 0.324768 -0.198780
C15   C     C_R   0.342525 0.962215 0.675231 -0.198621
C16   C     C_R   0.657462 0.962511 0.323849 -0.199787
C17   C     C_R   0.865776 0.499938 0.632921 -0.028622
C18   C     C_R   0.134224 0.499974 0.367065 -0.028657
C19   C     C_R   0.365776 0.999938 0.632925 -0.028134
C20   C     C_R   0.634212 0.000001 0.366998 -0.027682
C21   C     C_R   0.842960 0.537606 0.635756 -0.196644
C22   C     C_R   0.157050 0.537651 0.364230 -0.196601
C23   C     C_R   0.342961 0.037601 0.635742 -0.196686
C24   C     C_R   0.657015 0.037480 0.364950 -0.196632
C25   C     C_R   0.797138 0.537566 0.680822 -0.174335
C26   C     C_R   0.202873 0.537627 0.319156 -0.174357
C27   C     C_R   0.297138 0.037561 0.680808 -0.174409
C28   C     C_R   0.702839 0.037479 0.319831 -0.177418
C29   C     C_R   0.774010 0.500069 0.723842 0.111356
C30   C     C_R   0.225990 0.500137 0.276130 0.111324
C31   C     C_R   0.274010 0.000068 0.723845 0.111320
C32   C     C_R   0.725975 0.000214 0.275987 0.112003
C33   C     C_R   0.703023 0.512064 0.741537 -0.179704
C34   C     C_R   0.296984 0.512128 0.258439 -0.179598
C35   C     C_R   0.203024 0.012054 0.741534 -0.179632
C36   C     C_R   0.796956 0.011794 0.258542 -0.179925
C37   C     C_R   0.657198 0.511852 0.787758 -0.190821
C38   C     C_R   0.342809 0.511891 0.212228 -0.190774
C39   C     C_R   0.157199 0.011843 0.787755 -0.190778
C40   C     C_R   0.842781 0.011532 0.212371 -0.191185
C41   C     C_R   0.634236 0.500382 0.865234 -0.026508
C42   C     C_R   0.365764 0.500408 0.134759 -0.026524
C43   C     C_R   0.134236 0.000381 0.865235 -0.026538
C44   C     C_R   0.865757 0.000428 0.134742 -0.026635
C45   C     C_R   0.999734 0.499922 0.378899 0.852899
C46   C     C_R   0.000276 0.499927 0.621091 0.852900
C47   C     C_R   0.499731 0.999922 0.378902 0.850892
C48   C     C_R   0.500935 0.999932 0.620419 0.867732
C49   C     C_R   0.657435 0.489075 0.896093 -0.181099
C50   C     C_R   0.342558 0.489121 0.103895 -0.181004
C51   C     C_R   0.157435 0.989082 0.896098 -0.181048
C52   C     C_R   0.842566 0.989556 0.103679 -0.180759
C53   C     C_R   0.703254 0.488816 0.849616 -0.177093
C54   C     C_R   0.296740 0.488887 0.150362 -0.177065
C55   C     C_R   0.203253 0.988823 0.849621 -0.177022
C56   C     C_R   0.796750 0.989363 0.150090 -0.177461
C57   C     C_R   0.726054 0.500342 0.772363 0.110879
C58   C     C_R   0.273946 0.500419 0.227609 0.110871
C59   C     C_R   0.226054 0.000341 0.772365 0.110875
C60   C     C_R   0.773935 0.000504 0.227502 0.111504
C61   C     C_R   0.000006 0.586235 0.999994 0.854116
C62   C     C_R   0.500006 0.086235 0.999986 0.855110
C63   C     C_R   0.999879 0.501955 0.121476 0.852689
C64   C     C_R   0.000121 0.501957 0.878525 0.852699
C65   C     C_R   0.499879 0.001954 0.121476 0.852911
C66   C     C_R   0.500102 0.001571 0.878510 0.851251
C67   C     C_R   0.999994 0.413641 0.000004 0.872026
C68   C     C_R   0.499994 0.913641 0.000008 0.871724
C69   C     C_R   0.500003 0.413724 0.999993 0.862194
C70   C     C_R   0.000002 0.913724 0.999995 0.862300
C71   C     C_R   0.586234 0.500125 0.913631 0.868453
C72   C     C_R   0.413766 0.500129 0.086369 0.868472
C73   C     C_R   0.086234 0.000125 0.913631 0.868516
C74   C     C_R   0.913763 0.000131 0.086369 0.868542
C75   C     C_R   0.499998 0.586027 0.000005 0.880148
C76   C     C_R   0.999998 0.086027 0.000006 0.880203
C77   C     C_R   0.038003 0.703068 0.943332 -0.179765
C78   C     C_R   0.962048 0.703059 0.056601 -0.179777
C79   C     C_R   0.537993 0.203063 0.943261 -0.180115
C80   C     C_R   0.462067 0.203059 0.056620 -0.179793
C81   C     C_3   0.960510 0.529868 0.325637 0.078812
C82   C     C_3   0.039445 0.529972 0.674426 0.078872
C83   C     C_3   0.460522 0.029888 0.325623 0.079013
C84   C     C_3   0.536853 0.033755 0.676867 0.091604
C85   C     C_R   0.038106 0.657264 0.943597 -0.198432
C86   C     C_R   0.961934 0.657257 0.056357 -0.198421
C87   C     C_R   0.538093 0.157259 0.943528 -0.198968
C88   C     C_R   0.461950 0.157256 0.056380 -0.198566
C89   C     C_R   0.000017 0.634202 0.999982 -0.029895
C90   C     C_R   0.500018 0.134200 0.999964 -0.029804
C91   C     C_R   0.000028 0.725982 0.999962 0.112137
C92   C     C_R   0.500034 0.225980 0.999937 0.112358
C93   C     C_R   0.487536 0.296849 0.066292 -0.179736
C94   C     C_R   0.512539 0.296857 0.933600 -0.179834
C95   C     C_R   0.987500 0.796853 0.066325 -0.179627
C96   C     C_R   0.012557 0.796855 0.933604 -0.179607
C97   C     C_R   0.487778 0.342653 0.066200 -0.192589
C98   C     C_R   0.512271 0.342662 0.933727 -0.192665
C99   C     C_R   0.987744 0.842657 0.066227 -0.192565
C100  C     C_R   0.012290 0.842660 0.933724 -0.192540
C101  C     C_R   0.500016 0.365732 0.999973 -0.028732
C102  C     C_R   0.000010 0.865733 0.999981 -0.028780
C103  C     C_R   0.500042 0.273935 0.999939 0.111727
C104  C     C_R   0.000032 0.773936 0.999961 0.111658
C105  C     C_R   0.039708 0.296821 0.951868 -0.178827
C106  C     C_R   0.960237 0.296812 0.048205 -0.178918
C107  C     C_R   0.539708 0.796822 0.951862 -0.178787
C108  C     C_R   0.460242 0.796811 0.048236 -0.178814
C109  C     C_R   0.039744 0.342583 0.951939 -0.200072
C110  C     C_R   0.960214 0.342575 0.048104 -0.200138
C111  C     C_R   0.539744 0.842584 0.951930 -0.199984
C112  C     C_R   0.460218 0.842574 0.048134 -0.200073
C113  C     C_R   0.999983 0.365657 0.000016 -0.037223
C114  C     C_R   0.499984 0.865657 0.000024 -0.037230
C115  C     C_3   0.958509 0.527443 0.256067 -0.388611
C116  C     C_3   0.041441 0.527559 0.744003 -0.388713
C117  C     C_3   0.458523 0.027467 0.256050 -0.388882
C118  C     C_3   0.536650 0.034041 0.749293 -0.408404
C119  C     C_R   0.999970 0.273830 0.000046 0.135703
C120  C     C_R   0.499973 0.773829 0.000058 0.135643
C121  C     C_R   0.468452 0.702877 0.996742 -0.213483
C122  C     C_R   0.531494 0.702905 0.003385 -0.213527
C123  C     C_R   0.968455 0.202875 0.996719 -0.213637
C124  C     C_R   0.031485 0.202907 0.003397 -0.213616
C125  C     C_R   0.468163 0.657026 0.996848 -0.014942
C126  C     C_R   0.531802 0.657055 0.003236 -0.014922
C127  C     C_R   0.968166 0.157024 0.996831 -0.014891
C128  C     C_R   0.031793 0.157057 0.003252 -0.014944
C129  C     C_R   0.499989 0.633912 0.000027 -0.122103
C130  C     C_R   0.999986 0.133912 0.000028 -0.122137
C131  C     C_R   0.499970 0.725783 0.000069 0.071617
C132  C     C_R   0.999967 0.225783 0.000061 0.071611
C133  C     C_3   0.043010 0.521225 0.243915 -0.485682
C134  C     C_3   0.956961 0.521131 0.756115 -0.485781
C135  C     C_3   0.543018 0.021203 0.243908 -0.486171
C136  C     C_3   0.455518 0.015373 0.757363 -0.492780
C137  C     C_3   0.997641 0.452362 0.285739 -0.360641
C138  C     C_3   0.002453 0.452376 0.714150 -0.360583
C139  C     C_3   0.497615 0.952363 0.285765 -0.360622
C140  C     C_3   0.510401 0.953217 0.705672 -0.360219
C141  C     C_3   0.999289 0.500240 0.311275 0.136635
C142  C     C_3   0.000721 0.500251 0.688716 0.136618
C143  C     C_3   0.499286 0.000240 0.311277 0.137697
C144  C     C_3   0.501558 0.000239 0.687942 0.135899
C145  C     C_3   0.999511 0.501897 0.189985 0.127247
C146  C     C_3   0.000490 0.501904 0.810016 0.127243
C147  C     C_3   0.499511 0.001897 0.189985 0.127228
C148  C     C_3   0.500577 0.001737 0.809874 0.135551
C149  C     C_3   0.042451 0.523589 0.172925 -0.391846
C150  C     C_3   0.957506 0.523483 0.827122 -0.391702
C151  C     C_3   0.542463 0.023563 0.172914 -0.391789
C152  C     C_3   0.454829 0.016107 0.829496 -0.384113
H1    H     H_    0.969564 0.564766 0.327422 0.117412
H2    H     H_    0.030331 0.564848 0.672704 0.117428
H3    H     H_    0.469593 0.064781 0.327395 0.117363
H4    H     H_    0.525559 0.067343 0.673898 0.110655
H5    H     H_    0.025075 0.434176 0.168083 0.171243
H6    H     H_    0.975070 0.434114 0.831753 0.171146
H7    H     H_    0.525033 0.934160 0.168122 0.171235
H8    H     H_    0.486454 0.930726 0.819887 0.165247
H9    H     H_    0.071833 0.501275 0.230738 0.175788
H10   H     H_    0.928175 0.501118 0.769235 0.175788
H11   H     H_    0.571831 0.001241 0.230746 0.175441
H12   H     H_    0.429428 0.992543 0.766147 0.176384
H13   H     H_    0.072333 0.506381 0.124807 0.196883
H14   H     H_    0.927660 0.506188 0.875184 0.196846
H15   H     H_    0.572335 0.006335 0.124811 0.196793
H16   H     H_    0.428380 0.993386 0.872688 0.193746
H17   H     H_    0.778956 0.433157 0.753744 0.132460
H18   H     H_    0.221024 0.433224 0.246225 0.132544
H19   H     H_    0.278956 0.933164 0.753778 0.132580
H20   H     H_    0.721029 0.933673 0.244648 0.132627
H21   H     H_    0.859700 0.432866 0.673659 0.151825
H22   H     H_    0.140283 0.432905 0.326318 0.151880
H23   H     H_    0.359700 0.932875 0.673694 0.151912
H24   H     H_    0.640281 0.933329 0.324779 0.151578
H25   H     H_    0.860495 0.566882 0.602888 0.148619
H26   H     H_    0.139521 0.566920 0.397106 0.148617
H27   H     H_    0.360496 0.066874 0.602860 0.148575
H28   H     H_    0.639464 0.066561 0.398505 0.147867
H29   H     H_    0.779706 0.566882 0.683064 0.133698
H30   H     H_    0.220314 0.566948 0.316916 0.133705
H31   H     H_    0.279706 0.066873 0.683036 0.133695
H32   H     H_    0.720264 0.066645 0.318221 0.133286
H33   H     H_    0.720529 0.520827 0.681668 0.132184
H34   H     H_    0.279482 0.520895 0.318304 0.132199
H35   H     H_    0.220530 0.020811 0.681662 0.132196
H36   H     H_    0.779443 0.020247 0.318536 0.131441
H37   H     H_    0.639798 0.520886 0.763062 0.154905
H38   H     H_    0.360215 0.520914 0.236926 0.154917
H39   H     H_    0.139799 0.020870 0.763054 0.154910
H40   H     H_    0.860168 0.020228 0.237240 0.154815
H41   H     H_    0.640230 0.480044 0.955774 0.155531
H42   H     H_    0.359757 0.480083 0.044220 0.155543
H43   H     H_    0.140230 0.980059 0.955781 0.155561
H44   H     H_    0.859771 0.980823 0.043877 0.155761
H45   H     H_    0.720948 0.480012 0.873889 0.132653
H46   H     H_    0.279041 0.480091 0.126086 0.132669
H47   H     H_    0.220947 0.980027 0.873899 0.132734
H48   H     H_    0.779070 0.980897 0.125644 0.132522
H49   H     H_    0.067581 0.720656 0.899581 0.132585
H50   H     H_    0.932474 0.720640 0.100344 0.132591
H51   H     H_    0.567561 0.220649 0.899474 0.132181
H52   H     H_    0.432504 0.220641 0.100398 0.132547
H53   H     H_    0.067741 0.639943 0.899453 0.152647
H54   H     H_    0.932293 0.639932 0.100508 0.152658
H55   H     H_    0.567716 0.139936 0.899350 0.151863
H56   H     H_    0.432320 0.139933 0.100568 0.152576
H57   H     H_    0.478062 0.279261 0.117695 0.131624
H58   H     H_    0.522019 0.279275 0.882187 0.131373
H59   H     H_    0.978004 0.779267 0.117742 0.131653
H60   H     H_    0.022059 0.779270 0.882182 0.131664
H61   H     H_    0.478060 0.359952 0.117960 0.153848
H62   H     H_    0.521980 0.359969 0.881980 0.153759
H63   H     H_    0.978006 0.859959 0.117996 0.153812
H64   H     H_    0.022021 0.859965 0.881963 0.153844
H65   H     H_    0.070561 0.279369 0.913716 0.132247
H66   H     H_    0.929380 0.279351 0.086366 0.132129
H67   H     H_    0.570560 0.779369 0.913696 0.132240
H68   H     H_    0.429386 0.779350 0.086412 0.132262
H69   H     H_    0.070773 0.359814 0.914070 0.155679
H70   H     H_    0.929191 0.359799 0.085962 0.155608
H71   H     H_    0.570770 0.859814 0.914045 0.155611
H72   H     H_    0.429197 0.859798 0.086006 0.155688
H73   H     H_    0.444256 0.720804 0.993684 0.138017
H74   H     H_    0.555684 0.720855 0.006454 0.137996
H75   H     H_    0.944265 0.220801 0.993645 0.137963
H76   H     H_    0.055669 0.220858 0.006480 0.137992
H77   H     H_    0.927488 0.511286 0.271512 0.200983
H78   H     H_    0.072494 0.511487 0.728529 0.201002
H79   H     H_    0.427493 0.011329 0.271501 0.201016
H80   H     H_    0.569245 0.025460 0.736581 0.201615
H81   H     H_    0.958151 0.561500 0.236787 0.131199
H82   H     H_    0.041722 0.561617 0.763366 0.131147
H83   H     H_    0.458188 0.061524 0.236751 0.131175
H84   H     H_    0.529196 0.068031 0.773648 0.127155
H85   H     H_    0.047466 0.555078 0.258726 0.182397
H86   H     H_    0.952452 0.554976 0.741379 0.182354
H87   H     H_    0.547489 0.055055 0.258702 0.182265
H88   H     H_    0.447543 0.048918 0.747330 0.180589
H89   H     H_    0.044339 0.558690 0.155812 0.164276
H90   H     H_    0.955541 0.558576 0.844337 0.164337
H91   H     H_    0.544373 0.058663 0.155775 0.164204
H92   H     H_    0.446486 0.049948 0.854435 0.169031
H93   H     H_    0.027529 0.433760 0.270815 0.172944
H94   H     H_    0.972595 0.433706 0.729047 0.173001
H95   H     H_    0.527494 0.933747 0.270846 0.172831
H96   H     H_    0.483766 0.930194 0.717320 0.176421
H97   H     H_    0.969135 0.433142 0.331954 0.180887
H98   H     H_    0.030988 0.433221 0.667889 0.180873
H99   H     H_    0.469101 0.933156 0.331992 0.180908
H100  H     H_    0.541903 0.939554 0.655721 0.184216
H101  H     H_    0.965857 0.437802 0.229189 0.167548
H102  H     H_    0.034280 0.437900 0.770641 0.167669
H103  H     H_    0.465818 0.937822 0.229231 0.167621
H104  H     H_    0.544210 0.943865 0.760270 0.171918
O1    O     O_R   0.934520 0.536930 0.565470 -0.627684
O2    O     O_R   0.065480 0.536930 0.434530 -0.627682
O3    O     O_R   0.434520 0.036930 0.565470 -0.628364
O4    O     O_R   0.565480 0.036930 0.434530 -0.627440
O5    O     O_R   0.565440 0.499980 0.882290 -0.629715
O6    O     O_R   0.434560 0.499980 0.117710 -0.629682
O7    O     O_R   0.065440 0.999980 0.882290 -0.629689
O8    O     O_R   0.934560 0.999980 0.117710 -0.629800
O9    O     O_R   0.565450 0.499990 0.986830 -0.618547
O10   O     O_R   0.434550 0.499990 0.013170 -0.618550
O11   O     O_R   0.065450 0.999990 0.986830 -0.618547
O12   O     O_R   0.934550 0.999990 0.013170 -0.618679
O13   O     O_R   0.500010 0.565460 0.947720 -0.612469
O14   O     O_R   0.499990 0.565460 0.052280 -0.612473
O15   O     O_R   0.000010 0.065460 0.947720 -0.612479
O16   O     O_R   0.999990 0.065460 0.052280 -0.612512
O17   O     O_R   0.934480 0.463010 0.565510 -0.626022
O18   O     O_R   0.065520 0.463010 0.434490 -0.626011
O19   O     O_R   0.434480 0.963010 0.565510 -0.626605
O20   O     O_R   0.565520 0.963010 0.434490 -0.623573
O21   O     O_R   0.999990 0.536930 0.407410 -0.639777
O22   O     O_R   0.000010 0.536930 0.592590 -0.639772
O23   O     O_R   0.499990 0.036930 0.407410 -0.640702
O24   O     O_R   0.500010 0.036930 0.592590 -0.638778
O25   O     O_R   0.999940 0.463010 0.407450 -0.630661
O26   O     O_R   0.000060 0.463010 0.592550 -0.630655
O27   O     O_R   0.499940 0.963010 0.407450 -0.631717
O28   O     O_R   0.500060 0.963010 0.592550 -0.628778
O29   O     O_R   0.963000 0.565420 0.036990 -0.627222
O30   O     O_R   0.037000 0.565420 0.963010 -0.627216
O31   O     O_R   0.463000 0.065420 0.036990 -0.626886
O32   O     O_R   0.537000 0.065420 0.963010 -0.627505
O33   O     O_R   0.963020 0.499940 0.129580 -0.631792
O34   O     O_R   0.036980 0.499940 0.870420 -0.631769
O35   O     O_R   0.463020 0.999940 0.129580 -0.631700
O36   O     O_R   0.536980 0.999940 0.870420 -0.632534
O37   O     O_R   0.036940 0.500000 0.055660 -0.628404
O38   O     O_R   0.963060 0.500000 0.944340 -0.628427
O39   O     O_R   0.536940 1.000000 0.055660 -0.628432
O40   O     O_R   0.463060 1.000000 0.944340 -0.628911
O41   O     O_R   0.963020 0.434470 0.036970 -0.624979
O42   O     O_R   0.036980 0.434470 0.963030 -0.624961
O43   O     O_R   0.463020 0.934470 0.036970 -0.625024
O44   O     O_R   0.536980 0.934470 0.963030 -0.625076
O45   O     O_R   0.499930 0.434510 0.947790 -0.627054
O46   O     O_R   0.500070 0.434510 0.052210 -0.627040
O47   O     O_R   0.999930 0.934510 0.947790 -0.626988
O48   O     O_R   0.000070 0.934510 0.052210 -0.627055
Zn1   Zn    Zn3+2 0.000000 0.549330 0.500000 0.921563
Zn2   Zn    Zn3+2 0.500000 0.049330 0.500000 0.922613
Zn3   Zn    Zn3+2 0.000000 0.450610 0.500000 0.926574
Zn4   Zn    Zn3+2 0.500000 0.950610 0.500000 0.931995
Zn5   Zn    Zn3+2 0.950610 0.499940 0.049380 0.930292
Zn6   Zn    Zn3+2 0.049390 0.499940 0.950620 0.930366
Zn7   Zn    Zn3+2 0.450610 0.999940 0.049380 0.930468
Zn8   Zn    Zn3+2 0.549390 0.999940 0.950620 0.928138
Zn9   Zn    Zn3+2 0.499970 0.499980 0.930220 0.957721
Zn10  Zn    Zn3+2 0.500030 0.499980 0.069780 0.957779
Zn11  Zn    Zn3+2 0.999970 0.999980 0.930220 0.957687
Zn12  Zn    Zn3+2 0.000030 0.999980 0.069780 0.957551
N1    N     N_2   0.917473 0.522755 0.398461 -0.310565
H105  H     H_    0.913478 0.539127 0.444250 0.224654
C153  C     C_3   0.896374 0.479846 0.418811 -0.788082
H106  H     H_    0.909375 0.459091 0.444193 0.235676
H107  H     H_    0.900778 0.463008 0.368979 0.241580
H108  H     H_    0.860364 0.484174 0.462885 0.243539
N2    N     N_2   0.082497 0.522956 0.601596 -0.310604
H109  H     H_    0.086470 0.539333 0.555833 0.224688
C154  C     C_3   0.103672 0.480096 0.581169 -0.787976
H110  H     H_    0.090714 0.459309 0.555732 0.235606
H111  H     H_    0.099287 0.463252 0.630975 0.241630
H112  H     H_    0.139675 0.484508 0.537116 0.243563
N3    N     N_2   0.417481 0.022793 0.398446 -0.310589
H113  H     H_    0.413491 0.039166 0.444231 0.224685
C155  C     C_3   0.396360 0.979895 0.418812 -0.787928
H114  H     H_    0.409349 0.959132 0.444208 0.235661
H115  H     H_    0.400760 0.963056 0.368984 0.241595
H116  H     H_    0.360352 0.984240 0.462878 0.243543
N4    N     N_2   0.580194 0.026930 0.604141 -0.308415
H117  H     H_    0.591448 0.052944 0.566121 0.220671
C156  C     C_3   0.615057 0.001529 0.598336 -0.802048
H118  H     H_    0.638204 0.989545 0.538653 0.245193
H119  H     H_    0.601921 0.972473 0.636675 0.245629
H120  H     H_    0.633852 0.022794 0.612213 0.231836
C157  C     C_1   0.434117 0.634492 0.996061 0.162868
N5    N     N_1   0.406857 0.616426 0.995518 -0.201895
C158  C     C_1   0.565855 0.634553 0.004006 0.162822
N6    N     N_1   0.593122 0.616512 0.004536 -0.201938
C159  C     C_1   0.934126 0.134489 0.996029 0.162710
N7    N     N_1   0.906870 0.116421 0.995475 -0.202210
C160  C     C_1   0.065841 0.134558 0.004041 0.162762
N8    N     N_1   0.093103 0.116518 0.004587 -0.201989

loop_
_geom_bond_atom_site_label_1
_geom_bond_atom_site_label_2
_ccdc_geom_bond_type
C11   H19   S    
C55   C59   A    
C70   O47   A    
C108  C120  A    
C9    H17   S    
C52   H44   S    
C139  H95   S    
O17   Zn3   S    
C79   C87   A    
C156  H118  S    
C48   O28   A    
C12   H20   S    
C13   H21   S    
C152  H92   S    
C6    C146  S    
C95   C99   A    
C7    H7    S    
C47   C143  S    
C121  H73   S    
C48   C144  S    
O9    Zn10  S    
C31   C59   S    
C34   H34   S    
C9    C13   A    
C146  C150  S    
C11   C15   A    
O19   Zn4   S    
O3    Zn2   S    
C55   H47   S    
C12   C16   A    
C61   C89   S    
C38   H38   S    
C3    C19   S    
C65   C147  S    
C66   C148  S    
C107  C111  A    
C21   H25   S    
C98   H62   S    
C4    O4    A    
C112  H72   S    
C128  C160  S    
C88   H56   S    
C41   C49   A    
C136  C152  S    
C47   O23   A    
O48   Zn12  S    
C48   O24   A    
C25   C29   A    
C27   C31   A    
N2    H109  S    
C28   C32   A    
N4    C156  S    
C126  C129  A    
C8    H104  S    
C17   C21   A    
C36   H36   S    
C80   C92   A    
C19   C23   A    
O36   Zn8   S    
C2    O18   A    
C39   H39   S    
C10   C30   A    
C40   H40   S    
C66   O40   A    
C16   C20   A    
C72   O10   A    
C44   C74   S    
C107  H67   S    
O37   Zn6   S    
C26   H30   S    
C105  H65   S    
C96   C104  A    
C67   O42   A    
C107  C120  A    
C156  H120  S    
C109  H69   S    
C136  H12   S    
C100  H64   S    
C116  H78   S    
C135  H11   S    
C5    C137  S    
C69   C101  S    
C83   N3    S    
C8    C140  S    
C53   H45   S    
C83   C117  S    
C80   C88   A    
C51   H43   S    
O8    Zn12  S    
C83   C143  S    
C84   H4    S    
O29   Zn5   S    
C3    O3    A    
C51   C55   A    
C62   O32   A    
C151  H91   S    
N4    H117  S    
C4    C20   S    
C125  C129  A    
C123  H75   S    
C14   H22   S    
C34   C58   A    
C117  H83   S    
O42   Zn6   S    
C56   H48   S    
C26   C30   A    
C43   C73   S    
C153  H107  S    
C122  C126  A    
C123  C132  A    
O6    Zn10  S    
C93   C103  A    
C27   H31   S    
C112  C114  A    
C85   H53   S    
C68   O44   A    
C69   O45   A    
C151  H15   S    
C83   H3    S    
C84   C144  S    
C150  H14   S    
C76   O15   A    
C63   O37   A    
C81   H1    S    
C124  C132  A    
C64   O34   A    
C5    H101  S    
C154  H111  S    
C139  C143  S    
C24   H28   S    
C41   C71   S    
C44   C52   A    
C135  C143  S    
C77   C85   A    
N3    C155  S    
C133  H85   S    
O7    Zn11  S    
C6    H6    S    
C7    C147  S    
O33   Zn5   S    
C5    C145  S    
O35   Zn7   S    
O10   Zn9   S    
C149  H13   S    
C10   C14   A    
N2    C154  S    
C147  C151  S    
O25   Zn3   S    
C121  C125  A    
O2    Zn1   S    
C118  H84   S    
C137  H93   S    
C123  C127  A    
O39   Zn8   S    
O40   Zn7   S    
C61   O30   A    
C47   O27   A    
C42   C50   A    
O22   Zn1   S    
C94   H58   S    
C46   O26   A    
C93   C97   A    
C122  C131  A    
O27   Zn4   S    
C105  C109  A    
C18   C22   A    
C23   H27   S    
C24   C28   A    
C138  H98   S    
C77   H49   S    
C3    O19   A    
C75   O14   A    
C1    C17   S    
C13   C17   A    
C95   H59   S    
C28   H32   S    
C116  C146  S    
O28   Zn4   S    
O38   Zn5   S    
C96   C100  A    
C37   C41   A    
C155  H116  S    
C49   C53   A    
O47   Zn11  S    
C40   C44   A    
C84   C118  S    
C116  H82   S    
C97   H61   S    
O1    Zn1   S    
C63   C145  S    
C67   O41   A    
C73   O7    A    
C74   O8    A    
C96   H60   S    
C106  C119  A    
C120  C131  S    
C134  H86   S    
C140  H100  S    
C82   C142  S    
O21   Zn1   S    
C46   C142  S    
C15   C19   A    
O30   Zn6   S    
C84   N4    S    
O45   Zn9   S    
C50   C54   A    
C54   C58   A    
O13   Zn9   S    
C126  C158  S    
C94   C98   A    
C64   C146  S    
C122  H74   S    
C35   C59   A    
N1    C153  S    
C21   C25   A    
C156  H119  S    
C124  C128  A    
C16   H24   S    
C140  H96   S    
O46   Zn10  S    
C45   C141  S    
C82   N2    S    
C8    C148  S    
C70   O48   A    
C152  H16   S    
O18   Zn3   S    
C1    O1    A    
C148  C152  S    
C138  C142  S    
C160  N8    T    
C85   C89   A    
C125  C157  S    
C117  H79   S    
C33   C37   A    
C56   C60   A    
C35   C39   A    
C155  H114  S    
C134  C142  S    
C111  H71   S    
O41   Zn5   S    
C106  H66   S    
C29   C57   S    
C94   C103  A    
O34   Zn6   S    
C5    H5    S    
C32   C60   S    
O11   Zn12  S    
C8    H8    S    
C115  H81   S    
C137  C141  S    
C53   C57   A    
C7    H103  S    
C72   O6    A    
C140  C144  S    
C86   C89   A    
C128  C130  A    
C137  H97   S    
C70   C102  S    
C15   H23   S    
C10   H18   S    
C98   C101  A    
C115  C145  S    
C133  C141  S    
C117  C147  S    
C118  C148  S    
C82   C116  S    
C136  C144  S    
C50   H42   S    
C43   C51   A    
C80   H52   S    
C135  C151  S    
C76   O16   A    
C46   O22   A    
C111  C114  A    
C154  H110  S    
C153  H106  S    
C108  H68   S    
C108  C112  A    
C150  H90   S    
C99   C102  A    
C35   H35   S    
C22   C26   A    
C87   C90   A    
C105  C119  A    
C33   H33   S    
C145  C149  S    
C71   O5    A    
C37   H37   S    
C158  N6    T    
C2    C18   S    
N3    H113  S    
C14   C18   A    
C91   C104  S    
C22   H26   S    
C81   N1    S    
C86   H54   S    
C157  N5    T    
C99   H63   S    
C138  H94   S    
C38   C42   A    
C134  C150  S    
C30   C58   S    
C6    H102  S    
O16   Zn12  S    
C65   O39   A    
C62   O31   A    
C73   O11   A    
C92   C103  S    
O12   Zn11  S    
C74   O12   A    
C20   C24   A    
C118  H80   S    
C23   C27   A    
C1    O17   A    
C109  C113  A    
C78   C86   A    
C81   C141  S    
C153  H108  S    
C11   C31   A    
C71   O9    A    
C12   C32   A    
C76   C130  S    
C121  C131  A    
C42   C72   S    
C124  H76   S    
C77   C91   A    
C25   H29   S    
O24   Zn2   S    
O14   Zn10  S    
C68   O43   A    
C45   O25   A    
C69   O46   A    
C4    O20   A    
C36   C40   A    
C133  C149  S    
C127  C159  S    
O23   Zn2   S    
C39   C43   A    
C75   O13   A    
C134  H10   S    
O4    Zn2   S    
C6    C138  S    
C154  H112  S    
C81   C115  S    
C100  C102  A    
C119  C132  S    
C155  H115  S    
C110  C113  A    
C87   H55   S    
C79   C92   A    
O43   Zn7   S    
C2    O2    A    
C61   O29   A    
C93   H57   S    
O44   Zn8   S    
C95   C104  A    
C106  C110  A    
O20   Zn4   S    
C33   C57   A    
C34   C38   A    
O15   Zn11  S    
C139  H99   S    
C78   H50   S    
C88   C90   A    
C36   C60   A    
C133  H9    S    
C9    C29   A    
C78   C91   A    
C45   O21   A    
C54   H46   S    
O5    Zn9   S    
C79   H51   S    
C136  H88   S    
C67   C113  S    
C127  C130  A    
O26   Zn3   S    
C7    C139  S    
C65   O35   A    
C49   H41   S    
C62   C90   S    
C135  H87   S    
N1    H105  S    
C115  H77   S    
C66   O36   A    
C82   H2    S    
C75   C129  S    
C149  H89   S    
C63   O33   A    
C64   O38   A    
O31   Zn7   S    
C159  N7    T    
O32   Zn8   S    
C97   C101  A    
C52   C56   A    
C68   C114  S    
C110  H70   S    
