data_mof_unit_63917.cif
_audit_creation_date              2012-12-10T19:50:17-0500
_audit_creation_method            fapswitch 2.2
_symmetry_space_group_name_H-M    P1
_symmetry_Int_Tables_number       1
_space_group_crystal_system       triclinic
_cell_length_a                    36.835703
_cell_length_b                    18.273735
_cell_length_c                    18.274046
_cell_angle_alpha                 90.002821
_cell_angle_beta                  119.827083
_cell_angle_gamma                 90.015406
_cell_volume                      10671.2599053

loop_
_atom_site_label
_atom_site_type_symbol
_atom_type_description
_atom_site_fract_x
_atom_site_fract_y
_atom_site_fract_z
_atom_type_partial_charge
C1    C     C_R   0.500050 0.999998 0.358826 0.935301
C2    C     C_R   0.499951 0.000001 0.641174 0.933054
C3    C     C_R   0.000050 0.499998 0.358826 0.935422
C4    C     C_R   0.999950 0.500001 0.641174 0.933419
C5    C     C_1   0.837099 0.000861 0.836303 0.073673
C6    C     C_1   0.162914 0.000815 0.164204 0.241166
C7    C     C_1   0.337099 0.500842 0.836270 0.073582
C8    C     C_1   0.662914 0.500819 0.164199 0.241192
C9    C     C_1   0.662865 0.000931 0.660785 0.199649
C10   C     C_1   0.337139 0.000089 0.341552 0.319317
C11   C     C_1   0.162865 0.500873 0.660714 0.199676
C12   C     C_1   0.837139 0.500107 0.341547 0.319311
C13   C     C_1   0.625457 0.000231 0.624570 -0.071015
C14   C     C_1   0.374543 0.999995 0.376504 -0.056548
C15   C     C_1   0.125456 0.500220 0.624538 -0.071015
C16   C     C_1   0.874543 0.499998 0.376501 -0.056557
C17   C     C_1   0.500085 0.999995 0.282441 -0.143954
C18   C     C_1   0.499915 0.000004 0.717559 -0.143920
C19   C     C_1   0.000084 0.499995 0.282441 -0.143729
C20   C     C_1   0.999915 0.500003 0.717559 -0.143735
C21   C     C_1   0.500083 0.999995 0.217693 -0.149414
C22   C     C_1   0.499917 0.000002 0.782306 -0.150225
C23   C     C_1   0.000083 0.499995 0.217693 -0.149202
C24   C     C_1   0.999917 0.500002 0.782306 -0.150063
C25   C     C_R   0.999996 0.141045 0.999997 0.924564
C26   C     C_R   0.000003 0.858955 0.000002 0.933573
C27   C     C_R   0.499996 0.641045 0.999997 0.924619
C28   C     C_R   0.500003 0.358955 0.000002 0.933677
C29   C     C_R   0.918848 0.999958 0.918761 0.899138
C30   C     C_R   0.081155 0.999999 0.081249 0.891352
C31   C     C_R   0.418848 0.499960 0.918760 0.899428
C32   C     C_R   0.581155 0.499998 0.081249 0.891271
C33   C     C_R   0.499994 0.858738 0.999995 0.921527
C34   C     C_R   0.500006 0.141262 0.000004 0.922502
C35   C     C_R   0.999994 0.358738 0.999995 0.921620
C36   C     C_R   0.000006 0.641262 0.000004 0.922444
C37   C     C_R   0.500028 0.999998 0.141215 0.921539
C38   C     C_R   0.499972 0.000000 0.858785 0.921781
C39   C     C_R   0.000028 0.499998 0.141215 0.921535
C40   C     C_R   0.999972 0.500000 0.858785 0.921794
C41   C     C_1   0.999987 0.217506 0.999991 -0.160481
C42   C     C_1   0.000012 0.782494 0.000008 -0.153527
C43   C     C_1   0.499987 0.717506 0.999991 -0.160488
C44   C     C_1   0.500012 0.282494 0.000008 -0.153439
C45   C     C_R   0.581144 0.000026 0.581161 0.888237
C46   C     C_R   0.418852 0.999991 0.418844 0.887982
C47   C     C_R   0.081144 0.500025 0.581161 0.888697
C48   C     C_R   0.918852 0.499991 0.418843 0.888031
C49   C     C_1   0.499984 0.782276 0.999987 -0.156612
C50   C     C_1   0.500015 0.217724 0.000012 -0.151131
C51   C     C_1   0.999984 0.282276 0.999987 -0.156507
C52   C     C_1   0.000016 0.717724 0.000012 -0.151159
C53   C     C_3   0.725876 0.080800 0.695797 0.586337
C54   C     C_3   0.273674 0.935366 0.331154 0.459057
C55   C     C_3   0.274947 0.081045 0.303559 0.596455
C56   C     C_3   0.725894 0.933508 0.676243 0.631969
C57   C     C_3   0.225878 0.579231 0.691765 0.586522
C58   C     C_3   0.773674 0.435821 0.331677 0.459045
C59   C     C_3   0.774949 0.581260 0.302895 0.596599
C60   C     C_3   0.225896 0.431143 0.679631 0.631977
C61   C     C_3   0.774792 0.944763 0.714383 0.555389
C62   C     C_3   0.224934 0.081558 0.247298 0.514243
C63   C     C_3   0.224132 0.943637 0.286316 0.608730
C64   C     C_3   0.775516 0.080994 0.752921 0.655709
C65   C     C_3   0.274795 0.441836 0.717232 0.555352
C66   C     C_3   0.724936 0.581725 0.246632 0.514264
C67   C     C_3   0.724132 0.444134 0.286773 0.608714
C68   C     C_3   0.275518 0.579793 0.748880 0.655693
C69   C     C_1   0.874517 0.000335 0.874185 -0.161699
C70   C     C_1   0.125495 0.000359 0.125925 -0.147365
C71   C     C_1   0.374517 0.500330 0.874178 -0.161745
C72   C     C_1   0.625495 0.500360 0.125924 -0.147380
C73   C     C_3   0.708659 0.002066 0.705503 -0.418344
C74   C     C_3   0.291323 0.000579 0.297644 -0.343712
C75   C     C_3   0.208659 0.501950 0.705385 -0.418352
C76   C     C_3   0.791324 0.500613 0.297636 -0.343717
C77   C     C_3   0.791147 0.001659 0.789556 -0.251526
C78   C     C_3   0.208819 0.001371 0.211682 -0.215786
C79   C     C_3   0.291147 0.501611 0.789475 -0.251531
C80   C     C_3   0.708819 0.501383 0.211670 -0.215737
C81   C     C_3   0.774002 0.980191 0.851263 0.686085
C82   C     C_3   0.225901 0.979527 0.149893 0.626253
C83   C     C_3   0.273997 0.484132 0.852152 0.686171
C84   C     C_3   0.725900 0.478894 0.150061 0.626245
C85   C     C_3   0.724964 0.991532 0.804121 0.743107
C86   C     C_3   0.275700 0.984535 0.199827 0.679853
C87   C     C_3   0.224959 0.495561 0.804427 0.743055
C88   C     C_3   0.775699 0.483900 0.199951 0.679871
O1    O     O_R   0.500010 0.060620 0.392670 -0.607871
O2    O     O_R   0.499990 0.939380 0.607330 -0.609416
O3    O     O_R   0.499990 0.060620 0.607330 -0.612767
O4    O     O_R   0.500010 0.939380 0.392670 -0.614345
O5    O     O_R   0.000010 0.560620 0.392670 -0.608122
O6    O     O_R   0.999990 0.439380 0.607330 -0.609297
O7    O     O_R   0.999990 0.560620 0.607330 -0.612796
O8    O     O_R   0.000010 0.439380 0.392670 -0.614290
O9    O     O_R   0.561430 0.060620 0.561430 -0.613304
O10   O     O_R   0.438570 0.939380 0.438570 -0.607217
O11   O     O_R   0.438570 0.060620 0.438570 -0.595397
O12   O     O_R   0.561430 0.939380 0.561430 -0.594010
O13   O     O_R   0.061430 0.560620 0.561430 -0.614639
O14   O     O_R   0.938570 0.439380 0.438570 -0.607380
O15   O     O_R   0.938570 0.560620 0.438570 -0.595260
O16   O     O_R   0.061430 0.439380 0.561430 -0.593277
O17   O     O_R   1.000000 0.107140 0.939380 -0.612266
O18   O     O_R   1.000000 0.892860 0.060620 -0.610435
O19   O     O_R   0.000000 0.107140 0.060620 -0.613174
O20   O     O_R   1.000000 0.892860 0.939380 -0.610940
O21   O     O_R   0.500000 0.607140 0.939380 -0.612310
O22   O     O_R   0.500000 0.392860 0.060620 -0.610291
O23   O     O_R   0.500000 0.607140 0.060620 -0.613203
O24   O     O_R   0.500000 0.392860 0.939380 -0.611004
O25   O     O_R   0.938580 0.000000 0.877970 -0.607716
O26   O     O_R   0.061420 0.000000 0.122030 -0.598838
O27   O     O_R   0.438580 0.500000 0.877970 -0.607944
O28   O     O_R   0.561420 0.500000 0.122030 -0.598679
O29   O     O_R   0.938570 1.000000 0.999140 -0.614004
O30   O     O_R   0.061430 0.000000 0.000860 -0.609677
O31   O     O_R   0.438570 0.500000 0.999140 -0.614157
O32   O     O_R   0.561430 0.500000 0.000860 -0.609748
O33   O     O_R   0.534690 0.892630 0.034650 -0.613385
O34   O     O_R   0.465310 0.107370 0.965350 -0.612784
O35   O     O_R   0.465310 0.892630 0.965350 -0.612013
O36   O     O_R   0.534690 0.107370 0.034650 -0.608329
O37   O     O_R   0.034690 0.392630 0.034650 -0.613205
O38   O     O_R   0.965310 0.607370 0.965350 -0.612746
O39   O     O_R   0.965310 0.392630 0.965350 -0.612104
O40   O     O_R   0.034690 0.607370 0.034650 -0.608418
O41   O     O_R   0.534680 0.000000 0.141990 -0.604653
O42   O     O_R   0.465320 0.000000 0.858010 -0.606397
O43   O     O_R   0.034680 0.500000 0.141990 -0.604521
O44   O     O_R   0.965320 0.500000 0.858010 -0.606324
O45   O     O_R   0.465320 0.000000 0.072630 -0.615284
O46   O     O_R   0.534680 0.000000 0.927370 -0.615698
O47   O     O_R   0.965320 0.500000 0.072630 -0.615385
O48   O     O_R   0.034680 0.500000 0.927370 -0.615679
Zn1   Zn    Zn3+2 0.500000 0.080950 0.500000 1.059904
Zn2   Zn    Zn3+2 0.500000 0.919050 0.500000 1.058713
Zn3   Zn    Zn3+2 1.000000 0.580950 0.500000 1.058990
Zn4   Zn    Zn3+2 0.000000 0.419050 0.500000 1.058936
Zn5   Zn    Zn3+2 0.000010 1.000000 0.919080 1.035758
Zn6   Zn    Zn3+2 0.999990 0.000000 0.080920 1.038243
Zn7   Zn    Zn3+2 0.500010 0.500000 0.919080 1.035647
Zn8   Zn    Zn3+2 0.499990 0.500000 0.080920 1.038373
Zn9   Zn    Zn3+2 0.546310 0.000000 0.046300 1.045966
Zn10  Zn    Zn3+2 0.453690 0.000000 0.953700 1.039380
Zn11  Zn    Zn3+2 0.046310 0.500000 0.046300 1.045951
Zn12  Zn    Zn3+2 0.953690 0.500000 0.953700 1.039546
O49   O     O_3   0.794346 0.103700 0.705404 -0.676616
H1    H     H_    0.823605 0.118851 0.744977 0.348832
O50   O     O_3   0.209859 0.963759 0.342169 -0.673475
H2    H     H_    0.226800 0.004485 0.377125 0.422647
O51   O     O_3   0.206512 0.106378 0.294527 -0.716852
H3    H     H_    0.176570 0.117474 0.255238 0.358383
O52   O     O_3   0.783419 0.971195 0.652201 -0.643555
H4    H     H_    0.814066 0.967628 0.674647 0.374666
O53   O     O_3   0.294352 0.599136 0.700315 -0.676359
H5    H     H_    0.323611 0.614777 0.739120 0.349162
O54   O     O_3   0.709861 0.464829 0.342462 -0.673402
H6    H     H_    0.726803 0.505700 0.377085 0.422689
O55   O     O_3   0.706515 0.607082 0.293658 -0.717014
H7    H     H_    0.676573 0.618106 0.254280 0.358274
O56   O     O_3   0.283428 0.464679 0.653820 -0.643583
H8    H     H_    0.314075 0.460697 0.676461 0.374563
S1    S     S_3+6 0.709202 0.111597 0.588330 0.133444
O57   O     O_2   0.662253 0.110742 0.536048 -0.286105
O58   O     O_2   0.723390 0.189592 0.593833 -0.203289
O59   O     O_3   0.729887 0.063041 0.539930 -0.394914
H9    H     H_    0.719336 0.086815 0.484278 0.396893
S2    S     S_3+6 0.298617 0.920508 0.446001 0.088631
O60   O     O_2   0.284654 0.846407 0.458180 -0.210642
O61   O     O_2   0.345350 0.918129 0.483891 -0.299752
O62   O     O_3   0.287433 0.980063 0.501850 -0.482936
H10   H     H_    0.303270 0.962450 0.560862 0.398478
S3    S     S_3+6 0.295646 0.116617 0.412192 0.091245
O63   O     O_2   0.335316 0.077963 0.473028 -0.255205
O64   O     O_2   0.306453 0.196181 0.413494 -0.258477
O65   O     O_3   0.262080 0.112791 0.449346 -0.459685
H11   H     H_    0.276687 0.137491 0.504942 0.400485
S4    S     S_3+6 0.697113 0.912421 0.562116 0.095726
O66   O     O_2   0.666694 0.970712 0.509492 -0.240140
O67   O     O_2   0.726354 0.897579 0.528726 -0.215558
O68   O     O_3   0.668819 0.835921 0.547705 -0.529591
H12   H     H_    0.655258 0.825506 0.486483 0.389868
S5    S     S_3+6 0.209208 0.605431 0.582867 0.133099
O69   O     O_2   0.162259 0.604315 0.530631 -0.287266
O70   O     O_2   0.223396 0.682889 0.584460 -0.202453
O71   O     O_3   0.229895 0.553460 0.537000 -0.395196
H13   H     H_    0.219215 0.574765 0.480091 0.396427
S6    S     S_3+6 0.798618 0.421696 0.446642 0.088673
O72   O     O_2   0.784655 0.347811 0.459426 -0.211105
O73   O     O_2   0.845351 0.419242 0.484550 -0.299792
O74   O     O_3   0.787436 0.481796 0.502006 -0.482702
H14   H     H_    0.803274 0.464535 0.561160 0.398635
S7    S     S_3+6 0.795649 0.617546 0.411236 0.090981
O75   O     O_2   0.835319 0.579064 0.472385 -0.255020
O76   O     O_2   0.806457 0.697029 0.411890 -0.258990
O77   O     O_3   0.762085 0.614300 0.448421 -0.459885
H15   H     H_    0.776695 0.639323 0.503820 0.400280
S8    S     S_3+6 0.197121 0.405801 0.566669 0.095866
O78   O     O_2   0.166699 0.462903 0.511144 -0.240038
O79   O     O_2   0.226365 0.387840 0.534109 -0.215554
O80   O     O_3   0.168831 0.330091 0.556076 -0.529602
H16   H     H_    0.155282 0.317288 0.495440 0.390118
O81   O     O_3   0.719910 0.870288 0.713730 -0.631158
H17   H     H_    0.728289 0.826003 0.694348 0.390497
O82   O     O_3   0.291632 0.130009 0.267838 -0.645667
H18   H     H_    0.281366 0.180264 0.267170 0.379854
O83   O     O_3   0.281472 0.868263 0.303046 -0.696038
H19   H     H_    0.312191 0.860410 0.331119 0.393865
O84   O     O_3   0.710343 0.135981 0.727219 -0.681771
H20   H     H_    0.679455 0.138516 0.691372 0.355961
O85   O     O_3   0.219908 0.370187 0.720233 -0.631224
H21   H     H_    0.228290 0.324562 0.703115 0.390426
O86   O     O_3   0.791634 0.629793 0.266776 -0.645762
H22   H     H_    0.781368 0.680126 0.265699 0.379805
O87   O     O_3   0.781470 0.368427 0.304116 -0.696044
H23   H     H_    0.812189 0.360550 0.332251 0.393889
O88   O     O_3   0.210342 0.636702 0.720352 -0.681622
H24   H     H_    0.179455 0.638987 0.684380 0.356102
O89   O     O_3   0.796159 0.877610 0.745171 -0.742690
H25   H     H_    0.790695 0.847230 0.695634 0.367902
O90   O     O_3   0.212213 0.129526 0.177855 -0.693540
H26   H     H_    0.211513 0.180236 0.196714 0.361054
O91   O     O_3   0.204907 0.875717 0.252015 -0.669245
H27   H     H_    0.211651 0.842023 0.299776 0.413488
O92   O     O_3   0.787968 0.129943 0.821355 -0.671456
H28   H     H_    0.784249 0.180544 0.798835 0.389449
O93   O     O_3   0.296160 0.375237 0.751383 -0.742880
H29   H     H_    0.290700 0.342685 0.703428 0.367614
O94   O     O_3   0.712215 0.629229 0.176800 -0.693677
H30   H     H_    0.711516 0.680097 0.195245 0.360919
O95   O     O_3   0.704906 0.376094 0.253028 -0.669280
H31   H     H_    0.711650 0.342736 0.301063 0.413283
O96   O     O_3   0.287967 0.631490 0.814786 -0.671618
H32   H     H_    0.284249 0.681083 0.789749 0.389627
O97   O     O_3   0.715592 0.053308 0.838296 -0.659608
H33   H     H_    0.684889 0.053956 0.815917 0.340160
O98   O     O_3   0.294270 0.919315 0.192101 -0.760864
H34   H     H_    0.284117 0.910345 0.131355 0.358810
O99   O     O_3   0.289278 0.041478 0.166595 -0.634654
H35   H     H_    0.282713 0.028115 0.108618 0.367988
O100  O     O_3   0.705295 0.930531 0.817542 -0.668949
H36   H     H_    0.714160 0.929316 0.878530 0.378888
O101  O     O_3   0.215585 0.559447 0.835441 -0.659564
H37   H     H_    0.184882 0.560516 0.813011 0.340358
O102  O     O_3   0.794267 0.418466 0.192756 -0.760797
H38   H     H_    0.784113 0.409084 0.132085 0.358811
O103  O     O_3   0.789277 0.540458 0.166255 -0.634782
H39   H     H_    0.782711 0.526676 0.108388 0.367958
O104  O     O_3   0.205287 0.436301 0.820862 -0.669252
H40   H     H_    0.214149 0.437704 0.881844 0.378796
O105  O     O_3   0.792218 0.024524 0.924526 -0.641992
H41   H     H_    0.821859 0.009975 0.961019 0.335554
O106  O     O_3   0.211157 0.909243 0.114474 -0.730037
H42   H     H_    0.228508 0.870403 0.153890 0.416323
O107  O     O_3   0.210403 0.028986 0.081473 -0.658560
H43   H     H_    0.180548 0.017291 0.042020 0.374359
O108  O     O_3   0.782925 0.905943 0.875824 -0.678481
H44   H     H_    0.813717 0.899149 0.907281 0.348514
O109  O     O_3   0.292210 0.531171 0.923120 -0.642172
H45   H     H_    0.321851 0.516982 0.960339 0.335482
O110  O     O_3   0.711155 0.408445 0.115216 -0.729991
H46   H     H_    0.728505 0.369785 0.154947 0.416346
O111  O     O_3   0.710401 0.527920 0.081239 -0.658624
H47   H     H_    0.680547 0.516148 0.041882 0.374364
O112  O     O_3   0.282919 0.410762 0.880422 -0.678357
H48   H     H_    0.313711 0.404005 0.912227 0.348735

loop_
_geom_bond_atom_site_label_1
_geom_bond_atom_site_label_2
_ccdc_geom_bond_type
C83   C87   S    
C46   O11   A    
O52   H4    S    
S1    O57   D    
C65   C79   S    
O42   Zn10  S    
O6    Zn4   S    
C64   C77   S    
C54   S2    S    
O98   H34   S    
C15   C47   S    
O80   H16   S    
O30   Zn5   S    
O4    Zn2   S    
C16   C48   S    
O55   H7    S    
O13   Zn3   S    
C58   C76   S    
O110  H46   S    
C63   O91   S    
C39   O47   A    
O81   H17   S    
C28   O24   A    
C87   O104  S    
C40   O48   A    
C26   C42   S    
O103  H39   S    
O53   H5    S    
S2    O61   D    
O10   Zn2   S    
C47   O13   A    
C38   O42   A    
O24   Zn7   S    
O107  H43   S    
C36   O38   A    
C86   O99   S    
C59   C66   S    
C7    C71   T    
O109  H45   S    
C58   O87   S    
C59   O86   S    
S5    O70   D    
C2    C18   S    
S2    O60   D    
C33   C49   S    
O100  H36   S    
C22   C38   S    
C55   C62   S    
C85   O100  S    
C33   O35   A    
C6    C78   S    
C2    O2    A    
O99   H35   S    
C31   O27   A    
C35   O37   A    
O92   H28   S    
C9    C13   T    
C5    C69   T    
S6    O74   S    
C30   C70   S    
O28   Zn8   S    
C55   C74   S    
C11   C15   T    
C68   O53   S    
C54   O83   S    
C56   O81   S    
O56   H8    S    
C61   C77   S    
S8    O78   D    
C79   C83   S    
C58   S6    S    
S6    O73   D    
O50   H2    S    
C84   O110  S    
C54   C74   S    
O77   H15   S    
C56   C73   S    
O111  H47   S    
C76   C88   S    
O41   Zn9   S    
C36   C52   S    
S4    O68   S    
C80   C84   S    
O39   Zn12  S    
S7    O77   S    
C68   C79   S    
C31   C71   S    
C46   O10   A    
C27   O23   A    
C34   O34   A    
O3    Zn1   S    
O101  H37   S    
C82   O107  S    
C33   O33   A    
O31   Zn8   S    
O54   H6    S    
C26   O18   A    
C36   O40   A    
O32   Zn7   S    
C9    C73   S    
C32   O32   A    
C61   O52   S    
O9    Zn1   S    
O20   Zn5   S    
O2    Zn2   S    
O93   H29   S    
S4    O67   D    
C87   O101  S    
S3    O65   S    
C29   C69   S    
O83   H19   S    
O27   Zn7   S    
C81   O108  S    
C8    C72   T    
C37   O41   A    
C25   O17   A    
O82   H18   S    
O44   Zn12  S    
C12   C16   T    
O104  H40   S    
O90   H26   S    
S3    O64   D    
O37   Zn11  S    
C25   C41   S    
O88   H24   S    
O38   Zn12  S    
C43   C49   T    
S5    O71   S    
C57   O88   S    
C28   O22   A    
O87   H23   S    
O85   H21   S    
C48   O15   A    
C29   O29   A    
C66   O94   S    
C28   C44   S    
C32   O28   A    
O16   Zn4   S    
C66   O55   S    
O34   Zn10  S    
O71   H13   S    
C14   C46   S    
C42   C52   T    
C19   C23   T    
C60   O85   S    
O68   H12   S    
O89   H25   S    
O5    Zn3   S    
C68   O96   S    
O15   Zn3   S    
C4    O7    A    
C78   C82   S    
O84   H20   S    
O35   Zn10  S    
C77   C81   S    
O96   H32   S    
C55   S3    S    
C3    C19   S    
C65   O56   S    
O91   H27   S    
O21   Zn7   S    
C56   S4    S    
O14   Zn4   S    
C62   O90   S    
C74   C86   S    
O19   Zn6   S    
O22   Zn8   S    
S7    O76   D    
C63   O50   S    
C3    O8    A    
O12   Zn2   S    
O23   Zn8   S    
C4    O6    A    
C63   C78   S    
C75   C87   S    
O59   H9    S    
C60   C65   S    
O74   H14   S    
C1    O4    A    
O1    Zn1   S    
C12   C76   S    
C35   C51   S    
O33   Zn9   S    
C82   O106  S    
C83   O109  S    
C85   O97   S    
S6    O72   D    
C57   C68   S    
C26   O20   A    
O106  H42   S    
O26   Zn6   S    
C35   O39   A    
C66   C80   S    
S4    O66   D    
C25   O19   A    
C7    C79   S    
O95   H31   S    
C53   S1    S    
C6    C70   T    
O46   Zn9   S    
C29   O25   A    
C67   O95   S    
O18   Zn6   S    
C34   O36   A    
C47   O16   A    
C88   O103  S    
C3    O5    A    
C18   C22   T    
C57   S5    S    
C64   O92   S    
C62   C78   S    
C53   C73   S    
C67   C80   S    
C84   C88   S    
C45   O12   A    
O8    Zn4   S    
C34   C50   S    
C67   O54   S    
O112  H48   S    
C82   C86   S    
O40   Zn11  S    
O45   Zn10  S    
S1    O59   S    
C55   O82   S    
O36   Zn9   S    
C64   O49   S    
C60   C75   S    
O7    Zn3   S    
C86   O98   S    
C62   O51   S    
C65   O93   S    
C48   O14   A    
C1    O1    A    
C57   C75   S    
C83   O112  S    
O29   Zn6   S    
C73   C85   S    
S3    O63   D    
C45   O9    A    
O49   H1    S    
C53   O84   S    
C88   O102  S    
C13   C45   S    
C10   C74   S    
S5    O69   D    
O105  H41   S    
C39   O43   A    
S8    O80   S    
C23   C39   S    
O97   H33   S    
C53   C64   S    
O25   Zn5   S    
C84   O111  S    
C30   O26   A    
C37   O45   A    
C38   O46   A    
O86   H22   S    
C40   O44   A    
C2    O3    A    
C20   C24   T    
O17   Zn5   S    
C61   O89   S    
C24   C40   S    
O48   Zn11  S    
C59   S7    S    
C60   S8    S    
O62   H10   S    
S7    O75   D    
C4    C20   S    
C27   C43   S    
C58   C67   S    
C21   C37   S    
C1    C17   S    
C27   O21   A    
C44   C50   T    
S1    O58   D    
O47   Zn12  S    
C54   C63   S    
C30   O30   A    
O94   H30   S    
C8    C80   S    
C56   C61   S    
O11   Zn1   S    
C11   C75   S    
O43   Zn11  S    
C81   O105  S    
O51   H3    S    
C31   O31   A    
C5    C77   S    
C59   C76   S    
C41   C51   T    
S8    O79   D    
C81   C85   S    
O108  H44   S    
O102  H38   S    
C10   C14   T    
O65   H11   S    
C32   C72   S    
S2    O62   S    
C17   C21   T    
