data_mof_unit_67346.cif
_audit_creation_date              2013-03-05T16:08:10-0500
_audit_creation_method            fapswitch 2.2
_symmetry_space_group_name_H-M    P1
_symmetry_Int_Tables_number       1
_space_group_crystal_system       triclinic
_cell_length_a                    20.491519
_cell_length_b                    23.891984
_cell_length_c                    9.190487
_cell_angle_alpha                 90.034524
_cell_angle_beta                  104.414045
_cell_angle_gamma                 89.910724
_cell_volume                      4357.86650232

loop_
_atom_site_label
_atom_site_type_symbol
_atom_site_description
_atom_site_fract_x
_atom_site_fract_y
_atom_site_fract_z
_atom_type_partial_charge
P1    P     P_3+3 0.853370 0.434890 0.996520 0.556986
P2    P     P_3+3 0.853370 0.565110 0.496520 0.582630
P3    P     P_3+3 0.353370 0.934890 0.996520 0.554645
P4    P     P_3+3 0.353370 0.065110 0.496520 0.594437
O1    O     O_2   0.860260 0.414960 0.826400 -0.336440
O2    O     O_2   0.860260 0.585040 0.326400 -0.383185
O3    O     O_2   0.360260 0.914960 0.826400 -0.299959
O4    O     O_2   0.360260 0.085040 0.326400 -0.390690
O5    O     O_3   0.918600 0.470180 0.098890 -0.257562
O6    O     O_3   0.918600 0.529820 0.598890 -0.278301
O7    O     O_3   0.418600 0.970180 0.098890 -0.259426
O8    O     O_3   0.418600 0.029820 0.598890 -0.270985
O9    O     O_3   0.975750 0.362410 0.628650 -0.371220
O10   O     O_3   0.975750 0.637590 0.128650 -0.336005
O11   O     O_3   0.475750 0.862410 0.628650 -0.384151
O12   O     O_3   0.475750 0.137590 0.128650 -0.356181
O13   O     O_2   0.867249 0.307764 0.648528 -0.308989
O14   O     O_2   0.865336 0.684246 0.159358 -0.340813
O15   O     O_2   0.364262 0.817273 0.658911 -0.255907
O16   O     O_2   0.366682 0.188754 0.155889 -0.341556
O17   O     O_3   0.779304 0.475720 0.959788 -0.584590
O18   O     O_3   0.779961 0.524320 0.464133 -0.526342
O19   O     O_3   0.279402 0.975032 0.966060 -0.631259
O20   O     O_3   0.280471 0.022926 0.464493 -0.532581
O21   O     O_3   0.958641 0.244961 0.598142 -0.513511
O22   O     O_3   0.953794 0.749439 0.093950 -0.564851
O23   O     O_3   0.454393 0.747961 0.614560 -0.564676
O24   O     O_3   0.458473 0.250821 0.092994 -0.572795
H1    H     H_    0.051528 0.281044 0.616379 0.017221
H2    H     H_    0.022988 0.714481 0.988505 -0.038279
H3    H     H_    0.543709 0.776095 0.575287 -0.005620
H4    H     H_    0.532108 0.214584 0.003883 -0.050388
C1    C     C_3   0.062600 0.190582 0.635558 0.267013
C2    C     C_3   0.056969 0.796052 0.065020 0.100241
C3    C     C_3   0.548405 0.685317 0.590181 0.052035
C4    C     C_3   0.561388 0.299071 0.069144 0.086778
P5    P     P_3+3 0.146350 0.434230 0.693140 0.569667
P6    P     P_3+3 0.146350 0.565770 0.193140 0.616641
P7    P     P_3+3 0.646350 0.934230 0.693140 0.562763
P8    P     P_3+3 0.646350 0.065770 0.193140 0.590289
P9    P     P_3+3 0.090835 0.319039 0.131088 0.637214
P10   P     P_3+3 0.089494 0.684129 0.626753 0.549629
P11   P     P_3+3 0.590394 0.817114 0.128018 0.615244
P12   P     P_3+3 0.593523 0.181045 0.627406 0.597391
O25   O     O_2   0.139400 0.414340 0.863230 -0.317360
O26   O     O_2   0.139400 0.585660 0.363230 -0.257820
O27   O     O_2   0.639400 0.914340 0.863230 -0.345412
O28   O     O_2   0.639400 0.085660 0.363230 -0.291130
O29   O     O_3   0.023740 0.362300 0.060930 -0.349204
O30   O     O_3   0.023740 0.637700 0.560930 -0.342819
O31   O     O_3   0.523740 0.862300 0.060930 -0.350386
O32   O     O_3   0.523740 0.137700 0.560930 -0.361982
O33   O     O_2   0.133117 0.319823 0.012951 -0.255878
O34   O     O_2   0.132400 0.677789 0.511314 -0.319805
O35   O     O_2   0.632799 0.821059 0.010650 -0.288454
O36   O     O_2   0.638929 0.167322 0.521732 -0.317363
O37   O     O_3   0.226330 0.466767 0.726733 -0.680012
O38   O     O_3   0.224188 0.530476 0.210407 -0.649763
O39   O     O_3   0.727542 0.964185 0.718933 -0.688389
O40   O     O_3   0.724578 0.030527 0.211448 -0.657353
O41   O     O_3   0.050848 0.254641 0.108700 -0.543209
O42   O     O_3   0.051109 0.749924 0.587556 -0.534190
O43   O     O_3   0.552017 0.751443 0.096939 -0.538489
O44   O     O_3   0.566597 0.248635 0.570443 -0.464873
C5    C     C_3   0.982915 0.255117 0.029358 0.259119
C6    C     C_3   0.997857 0.749036 0.457466 0.263605
C7    C     C_3   0.487430 0.754415 0.001519 0.251096
C8    C     C_3   0.503983 0.247287 0.464178 0.294048
H5    H     H_    0.976794 0.274475 0.916694 0.132658
H6    H     H_    0.015592 0.733025 0.362139 0.143618
H7    H     H_    0.489376 0.772744 0.891688 0.127852
H8    H     H_    0.507977 0.226387 0.360362 0.132954
H9    H     H_    0.949695 0.278603 0.085588 0.114042
H10   H     H_    0.957349 0.720131 0.470825 0.126432
H11   H     H_    0.454136 0.782198 0.047751 0.123196
H12   H     H_    0.465852 0.221974 0.500067 0.121043
C9    C     C_3   0.962694 0.193562 0.013991 0.328969
C10   C     C_3   0.968454 0.808668 0.420030 0.344017
C11   C     C_3   0.456534 0.695457 0.978559 0.392269
C12   C     C_3   0.477473 0.306975 0.430060 0.329234
H13   H     H_    0.007502 0.167855 0.013381 0.163260
H14   H     H_    0.971250 0.818401 0.304809 0.105190
H15   H     H_    0.453059 0.684488 0.859574 0.141999
H16   H     H_    0.487864 0.319258 0.323141 0.112819
C13   C     C_3   0.245179 0.478152 0.277577 0.304015
C14   C     C_3   0.246929 0.522238 0.770715 0.318059
C15   C     C_3   0.742981 0.980378 0.289818 0.265853
C16   C     C_3   0.752593 0.015714 0.787508 0.297435
C17   C     C_3   0.326255 0.474305 0.291543 0.010122
C18   C     C_3   0.326155 0.525067 0.770225 0.082260
C19   C     C_3   0.824061 0.974424 0.325135 0.014753
C20   C     C_3   0.835130 0.012302 0.819696 0.030847
Ba1   Ba    Ba6+2 0.999900 0.457470 0.844900 1.834815
Ba2   Ba    Ba6+2 0.999900 0.542530 0.344900 1.815520
Ba3   Ba    Ba6+2 0.499900 0.957470 0.844900 1.832087
Ba4   Ba    Ba6+2 0.499900 0.042530 0.344900 1.814741
C21   C     C_3   0.779725 0.517132 0.852625 0.570925
C22   C     C_3   0.776025 0.486679 0.346637 0.578171
C23   C     C_3   0.272043 0.010820 0.843710 0.641569
C24   C     C_3   0.279658 0.983404 0.351630 0.544811
H17   H     H_    0.786867 0.498036 0.748150 0.098635
H18   H     H_    0.781069 0.508876 0.244768 0.092893
H19   H     H_    0.276095 0.987771 0.741314 0.077045
H20   H     H_    0.286351 0.004960 0.250518 0.123413
C25   C     C_3   0.711367 0.550815 0.814873 -0.234878
C26   C     C_3   0.706177 0.455608 0.310824 -0.287621
C27   C     C_3   0.199781 0.039568 0.807074 -0.294731
C28   C     C_3   0.209368 0.951764 0.304590 -0.363271
O45   O     O_3   0.081330 0.529680 0.090830 -0.308346
O46   O     O_3   0.081330 0.470320 0.590830 -0.291127
O47   O     O_3   0.581330 0.029680 0.090830 -0.318011
O48   O     O_3   0.581330 0.970320 0.590830 -0.279885
P13   P     P_3+3 0.910861 0.686012 0.048124 0.552554
P14   P     P_3+3 0.916192 0.308972 0.545066 0.596355
P15   P     P_3+3 0.413347 0.188153 0.046769 0.542992
P16   P     P_3+3 0.412392 0.811849 0.553752 0.583381
C29   C     C_3   0.022327 0.243540 0.565071 0.520428
C30   C     C_3   0.998066 0.755158 0.999725 0.496269
C31   C     C_3   0.507506 0.740715 0.542885 0.614321
C32   C     C_3   0.505309 0.255131 0.003947 0.595487
C33   C     C_R   0.143283 0.682797 0.831894 0.162776
C34   C     C_R   0.143558 0.319215 0.333669 0.274092
C35   C     C_R   0.643698 0.180997 0.834751 0.208381
C36   C     C_R   0.642630 0.817522 0.333106 0.271730
C37   C     C_R   0.195205 0.724604 0.893806 -0.050061
C38   C     C_R   0.195728 0.277382 0.392828 -0.026450
C39   C     C_R   0.696073 0.221974 0.897249 -0.084390
C40   C     C_R   0.695714 0.776365 0.393084 0.046708
C41   C     C_R   0.787020 0.315833 0.027585 -0.096162
C42   C     C_R   0.789303 0.684430 0.527143 0.033270
C43   C     C_R   0.287693 0.816381 0.032859 -0.062635
C44   C     C_R   0.290936 0.185908 0.527670 0.039293
C45   C     C_R   0.751388 0.312938 0.875442 -0.208398
C46   C     C_R   0.752468 0.684646 0.376077 -0.148008
C47   C     C_R   0.247578 0.818237 0.885334 -0.084440
C48   C     C_R   0.251875 0.185449 0.379369 -0.188260
C49   C     C_R   0.209410 0.772353 0.811036 -0.126942
C50   C     C_R   0.209823 0.230002 0.309575 -0.136156
C51   C     C_R   0.717397 0.263802 0.810223 -0.096802
C52   C     C_R   0.713143 0.730858 0.306938 -0.109383
C53   C     C_R   0.836675 0.360682 0.090182 0.046869
C54   C     C_R   0.837765 0.639280 0.590800 0.123112
C55   C     C_R   0.337797 0.860707 0.094603 0.017591
C56   C     C_R   0.338206 0.139723 0.591762 0.139102
C57   C     C_R   0.875258 0.350267 0.238664 -0.303951
C58   C     C_R   0.874065 0.648425 0.740724 -0.321052
C59   C     C_R   0.375328 0.850353 0.243868 -0.273050
C60   C     C_R   0.374724 0.148851 0.741691 -0.278270
C61   C     C_R   0.160719 0.635849 0.083995 0.202485
C62   C     C_R   0.161837 0.365257 0.584342 0.099648
C63   C     C_R   0.657416 0.137185 0.087877 0.216360
C64   C     C_R   0.659328 0.863481 0.585480 0.133254
C65   C     C_R   0.212639 0.677998 0.141647 0.045757
C66   C     C_R   0.215741 0.324488 0.639037 -0.041929
C67   C     C_R   0.708513 0.180032 0.145597 0.043754
C68   C     C_R   0.711358 0.821237 0.642414 -0.022763
C69   C     C_R   0.228048 0.723479 0.051433 0.119658
C70   C     C_R   0.231898 0.279704 0.547443 0.097049
C71   C     C_R   0.725369 0.224120 0.053925 0.079079
C72   C     C_R   0.728064 0.776686 0.550323 0.129928
C73   C     C_R   0.247472 0.677535 0.291875 -0.134500
C74   C     C_R   0.252055 0.325442 0.787685 -0.107224
C75   C     C_R   0.745659 0.179028 0.293096 -0.113239
C76   C     C_R   0.746667 0.821635 0.792403 -0.132569
C77   C     C_R   0.798602 0.216814 0.350110 0.325666
C78   C     C_R   0.795261 0.781261 0.857217 0.428943
C79   C     C_R   0.294745 0.718505 0.358788 0.351865
C80   C     C_R   0.299250 0.284082 0.852672 0.432089
C81   C     C_R   0.811100 0.265597 0.272159 -0.098108
C82   C     C_R   0.810103 0.733585 0.775027 -0.112789
C83   C     C_R   0.310246 0.765941 0.277616 -0.073534
C84   C     C_R   0.313911 0.236231 0.771913 -0.097407
C85   C     C_R   0.774476 0.268981 0.118264 0.126915
C86   C     C_R   0.776471 0.731688 0.617243 0.122150
C87   C     C_R   0.276224 0.768359 0.120400 0.134195
C88   C     C_R   0.280396 0.234430 0.614874 0.134956
C89   C     C_R   0.862495 0.307316 0.335743 0.257733
C90   C     C_R   0.858555 0.689484 0.839611 0.186187
C91   C     C_R   0.360051 0.808978 0.342806 0.273021
C92   C     C_R   0.360921 0.191401 0.838237 0.198212
C93   C     C_R   0.125703 0.642058 0.930468 -0.422075
C94   C     C_R   0.125818 0.359602 0.432113 -0.433764
C95   C     C_R   0.623665 0.142067 0.933293 -0.410020
C96   C     C_R   0.623965 0.857535 0.432248 -0.420274
H21   H     H_    0.237993 0.644326 0.362726 0.213210
H22   H     H_    0.242896 0.358597 0.859597 0.212412
H23   H     H_    0.739627 0.143961 0.362625 0.175607
H24   H     H_    0.737385 0.854728 0.864601 0.198555
H25   H     H_    0.918030 0.376602 0.281040 0.182244
H26   H     H_    0.917386 0.622873 0.781523 0.169008
H27   H     H_    0.419098 0.875418 0.285266 0.172286
H28   H     H_    0.416559 0.121869 0.785829 0.158384
C97   C     C_2   0.356899 0.532833 0.291547 0.816267
H29   H     H_    0.328450 0.571058 0.290190 0.093573
O49   O     O_2   0.416100 0.538019 0.291382 -0.381246
C98   C     C_2   0.361832 0.469157 0.816188 0.734746
H30   H     H_    0.334908 0.429800 0.802310 0.072458
O50   O     O_2   0.423231 0.466992 0.855001 -0.371649
C99   C     C_2   0.857157 0.032129 0.339956 0.745622
H31   H     H_    0.827900 0.070403 0.325286 0.066385
O51   O     O_2   0.918326 0.036682 0.366129 -0.357711
C100  C     C_2   0.857650 0.950868 0.828679 0.786901
H32   H     H_    0.823766 0.916756 0.831708 0.058234
O52   O     O_2   0.915702 0.938384 0.832184 -0.354931
N1    N     N_R   0.363740 0.445432 0.429705 0.234724
O53   O     O_R   0.428899 0.451131 0.471370 -0.214615
O54   O     O_R   0.337407 0.404361 0.488534 -0.367386
N2    N     N_R   0.360150 0.569098 0.870103 0.291316
O55   O     O_R   0.362152 0.618163 0.811747 -0.222173
O56   O     O_R   0.400892 0.557809 0.999451 -0.268673
N3    N     N_R   0.851310 0.942752 0.465843 0.224123
O57   O     O_R   0.915406 0.944571 0.529703 -0.211269
O58   O     O_R   0.815329 0.905361 0.513531 -0.397774
N4    N     N_R   0.868632 0.040078 0.961612 0.243963
O59   O     O_R   0.856357 0.092644 0.976194 -0.241720
O60   O     O_R   0.924924 0.020380 0.044681 -0.214045
N5    N     N_R   0.343048 0.445383 0.163243 0.283891
O61   O     O_R   0.406024 0.436351 0.165580 -0.202314
O62   O     O_R   0.298153 0.433939 0.040377 -0.450789
N6    N     N_R   0.338768 0.538185 0.623227 0.198898
O63   O     O_R   0.296758 0.568377 0.525790 -0.440303
O64   O     O_R   0.401365 0.539208 0.616186 -0.246588
N7    N     N_R   0.846841 0.946178 0.204317 0.291981
O65   O     O_R   0.910371 0.934043 0.223113 -0.182641
O66   O     O_R   0.805723 0.933772 0.077076 -0.458182
N8    N     N_R   0.864154 0.037563 0.703378 0.262793
O67   O     O_R   0.830663 0.070404 0.599539 -0.379713
O68   O     O_R   0.929047 0.034675 0.720200 -0.175695
N9    N     N_R   0.836431 0.553832 0.912604 0.165461
O69   O     O_R   0.893492 0.542518 0.881616 -0.409385
O70   O     O_R   0.837413 0.580503 0.035638 -0.375611
N10   N     N_R   0.832257 0.447725 0.391632 0.156048
O71   O     O_R   0.888438 0.460909 0.359483 -0.411570
O72   O     O_R   0.835417 0.415953 0.507412 -0.332598
N11   N     N_R   0.327226 0.050970 0.883526 0.172080
O73   O     O_R   0.383693 0.037416 0.853101 -0.405643
O74   O     O_R   0.329645 0.084336 0.996208 -0.393327
N12   N     N_R   0.337483 0.946800 0.404345 0.155334
O75   O     O_R   0.391632 0.959306 0.362453 -0.419476
O76   O     O_R   0.345599 0.924283 0.535853 -0.305809
C101  C     C_2   0.649092 0.516840 0.742112 0.890929
H33   H     H_    0.614725 0.530840 0.638647 0.078957
O77   O     O_2   0.633668 0.475204 0.802183 -0.462502
C102  C     C_2   0.643216 0.492245 0.264753 0.972345
H34   H     H_    0.611552 0.491848 0.150934 0.114870
O78   O     O_2   0.623467 0.519782 0.357235 -0.495310
C103  C     C_2   0.144525 0.007952 0.698155 0.856701
H35   H     H_    0.096831 0.028709 0.651149 0.139279
O79   O     O_2   0.149888 0.959280 0.666333 -0.591209
C104  C     C_2   0.201825 0.924946 0.154544 0.656107
H36   H     H_    0.224835 0.885351 0.146301 -0.034988
O80   O     O_2   0.166520 0.945642 0.041768 -0.440780
C105  C     C_2   0.718663 0.597113 0.711780 0.291765
H37   H     H_    0.739371 0.636476 0.757996 0.136026
O81   O     O_2   0.704911 0.590033 0.577234 -0.551475
C106  C     C_2   0.707291 0.414042 0.188833 0.413189
H38   H     H_    0.736414 0.376342 0.218225 0.082573
O82   O     O_2   0.677417 0.422336 0.058666 -0.540786
C107  C     C_2   0.207554 0.095054 0.740987 0.358821
H39   H     H_    0.221902 0.130380 0.815540 0.157407
O83   O     O_2   0.206732 0.099378 0.608824 -0.546212
C108  C     C_2   0.203816 0.904584 0.407172 0.727299
H40   H     H_    0.163294 0.904367 0.462491 0.193378
O84   O     O_2   0.240907 0.863875 0.420146 -0.559402
N13   N     N_R   0.698350 0.575026 0.949824 0.251712
O85   O     O_R   0.670688 0.623964 0.946047 -0.345598
O86   O     O_R   0.693210 0.541537 0.055798 -0.413252
N14   N     N_R   0.699062 0.426083 0.443539 0.292774
O87   O     O_R   0.703260 0.454155 0.565475 -0.404236
O88   O     O_R   0.668068 0.378737 0.430329 -0.205339
N15   N     N_R   0.175081 0.048837 0.941400 0.277794
O89   O     O_R   0.112140 0.040961 0.941863 -0.205911
O90   O     O_R   0.217550 0.057717 0.067534 -0.384275
N16   N     N_R   0.151511 0.989897 0.298361 0.322410
O91   O     O_R   0.150486 0.020228 0.414018 -0.264430
O92   O     O_R   0.093551 0.981645 0.203136 -0.130795
N17   N     N_R   0.016430 0.245435 0.404640 0.188173
O93   O     O_R   0.998477 0.292046 0.335777 -0.571758
O94   O     O_R   0.048374 0.209346 0.342744 -0.429956
N18   N     N_R   0.961129 0.771089 0.848991 0.204195
O95   O     O_R   0.927230 0.817421 0.822365 -0.262062
O96   O     O_R   0.962923 0.737791 0.739001 -0.475782
N19   N     N_R   0.480724 0.741942 0.382361 0.198025
O97   O     O_R   0.494157 0.784531 0.308597 -0.554280
O98   O     O_R   0.432969 0.707959 0.320097 -0.355298
N20   N     N_R   0.470560 0.266962 0.849453 0.224005
O99   O     O_R   0.429953 0.309140 0.813648 -0.279332
O100  O     O_R   0.475142 0.230781 0.748088 -0.506033
C109  C     C_2   0.134058 0.199920 0.632784 0.319801
H41   H     H_    0.150925 0.190640 0.533448 0.130677
O101  O     O_2   0.173638 0.218690 0.743198 -0.562048
C110  C     C_2   0.087943 0.812079 0.939427 0.557753
H42   H     H_    0.090050 0.781716 0.855234 -0.000856
O102  O     O_2   0.103268 0.860079 0.920270 -0.464530
C111  C     C_2   0.584679 0.665450 0.474822 0.615418
H43   H     H_    0.595730 0.621483 0.468292 0.157772
O103  O     O_2   0.597129 0.696688 0.381638 -0.618343
C112  C     C_2   0.603883 0.311964 0.961128 0.490495
H44   H     H_    0.654357 0.326113 0.004822 0.070705
O104  O     O_2   0.582327 0.310505 0.825632 -0.491823
N21   N     N_R   0.061469 0.186909 0.791471 0.232757
O105  O     O_R   0.074259 0.232926 0.866181 -0.401554
O106  O     O_R   0.079073 0.140352 0.862749 -0.351073
N22   N     N_R   0.107898 0.767573 0.182836 0.181486
O107  O     O_R   0.163520 0.792916 0.246472 -0.422120
O108  O     O_R   0.097307 0.718196 0.231322 -0.449347
N23   N     N_R   0.598058 0.696711 0.730763 0.241582
O109  O     O_R   0.658122 0.713021 0.729232 -0.453915
O110  O     O_R   0.577155 0.707619 0.849091 -0.347323
N24   N     N_R   0.606654 0.275723 0.206678 0.211498
O111  O     O_R   0.665209 0.298082 0.260128 -0.393385
O112  O     O_R   0.597389 0.225851 0.253947 -0.429981
N25   N     N_R   0.936770 0.173158 0.137235 0.280703
O113  O     O_R   0.876165 0.186668 0.141359 -0.374635
O114  O     O_R   0.964166 0.129102 0.211000 -0.178880
N26   N     N_R   0.004959 0.852348 0.520016 0.312227
O115  O     O_R   0.004607 0.852769 0.660552 -0.197491
O116  O     O_R   0.025622 0.897100 0.465007 -0.209245
N27   N     N_R   0.498195 0.651886 0.072877 0.291444
O117  O     O_R   0.484640 0.632646 0.193896 -0.212660
O118  O     O_R   0.543709 0.625532 0.023300 -0.251551
N28   N     N_R   0.510086 0.347334 0.545631 0.316807
O119  O     O_R   0.478414 0.368800 0.638354 -0.156421
O120  O     O_R   0.570440 0.364938 0.551124 -0.215663
C113  C     C_2   0.741888 0.362348 0.782658 0.798041
H45   H     H_    0.716086 0.398154 0.812389 0.094483
O121  O     O_2   0.763335 0.362980 0.671273 -0.455822
C114  C     C_2   0.742091 0.632862 0.288606 0.622074
H46   H     H_    0.764845 0.628374 0.195452 0.123820
O122  O     O_2   0.696102 0.602222 0.296789 -0.503899
C115  C     C_2   0.234033 0.871994 0.814000 0.655595
H47   H     H_    0.207176 0.902048 0.860800 0.120401
O123  O     O_2   0.249916 0.881689 0.698564 -0.524509
C116  C     C_2   0.243464 0.134219 0.295247 0.638122
H48   H     H_    0.266787 0.132120 0.202541 0.125118
O124  O     O_2   0.199008 0.102235 0.305927 -0.436145
C117  C     C_2   0.182048 0.780163 0.646484 0.789621
H49   H     H_    0.198238 0.754989 0.566021 0.116579
O125  O     O_2   0.142996 0.818224 0.597845 -0.536674
C118  C     C_2   0.173534 0.216722 0.153084 0.759322
H50   H     H_    0.131216 0.188305 0.136519 0.107762
O126  O     O_2   0.199158 0.224107 0.048832 -0.479194
C119  C     C_2   0.716950 0.251811 0.654342 0.807981
H51   H     H_    0.738744 0.213663 0.630284 0.089296
O127  O     O_2   0.688120 0.281635 0.551607 -0.441738
C120  C     C_2   0.677731 0.719126 0.149465 0.765926
H52   H     H_    0.637092 0.689423 0.131186 0.153068
O128  O     O_2   0.700557 0.731296 0.043905 -0.477823
N29   N     N_R   0.849378 0.194097 0.465893 0.254154
O129  O     O_R   0.896798 0.166592 0.426773 -0.265063
O130  O     O_R   0.831288 0.177090 0.582399 -0.282496
N30   N     N_R   0.831759 0.793806 0.006596 0.260513
O131  O     O_R   0.808132 0.776619 0.116294 -0.291513
O132  O     O_R   0.868061 0.838833 0.029169 -0.277971
N31   N     N_R   0.330178 0.706358 0.508754 0.262501
O133  O     O_R   0.367729 0.662147 0.530723 -0.231350
O134  O     O_R   0.304040 0.721406 0.616746 -0.331842
N32   N     N_R   0.332883 0.294612 0.003641 0.259310
O135  O     O_R   0.300894 0.282862 0.104619 -0.268767
O136  O     O_R   0.375028 0.336068 0.029111 -0.260957
C121  C     C_2   0.064378 0.608772 0.876994 0.661800
H53   H     H_    0.020376 0.619361 0.914357 -0.029144
O137  O     O_2   0.063656 0.567390 0.799520 -0.494555
C122  C     C_2   0.063954 0.393602 0.380091 0.760686
H54   H     H_    0.024206 0.389836 0.436345 0.004947
O138  O     O_2   0.058095 0.428829 0.282247 -0.468077
C123  C     C_2   0.565319 0.105773 0.874715 0.656808
H55   H     H_    0.520899 0.110878 0.915720 -0.019310
O139  O     O_2   0.568201 0.067262 0.789716 -0.493878
C124  C     C_2   0.561549 0.890482 0.380490 0.757210
H56   H     H_    0.521764 0.885029 0.435011 -0.015801
O140  O     O_2   0.555250 0.926574 0.284736 -0.461075
N33   N     N_R   0.037151 0.137813 0.557487 0.264032
O141  O     O_R   0.991298 0.109441 0.599698 -0.179599
O142  O     O_R   0.069231 0.112677 0.470277 -0.262611
N34   N     N_R   0.034749 0.847148 0.126961 0.280422
O143  O     O_R   0.072251 0.868237 0.248975 -0.337167
O144  O     O_R   0.990357 0.879729 0.043291 -0.162879
N35   N     N_R   0.504808 0.638575 0.609166 0.255860
O145  O     O_R   0.516537 0.611057 0.734828 -0.264112
O146  O     O_R   0.470341 0.613269 0.489674 -0.242846
N36   N     N_R   0.532675 0.352859 0.101210 0.264374
O147  O     O_R   0.556475 0.378361 0.227921 -0.321047
O148  O     O_R   0.497900 0.382683 0.990852 -0.194865
N37   N     N_R   0.913473 0.184901 0.874888 0.254717
O149  O     O_R   0.923400 0.144481 0.789082 -0.187877
O150  O     O_R   0.855731 0.210542 0.849484 -0.357520
N38   N     N_R   0.897643 0.810607 0.420452 0.249354
O151  O     O_R   0.857382 0.841411 0.322453 -0.214924
O152  O     O_R   0.877362 0.793144 0.534859 -0.329974
N39   N     N_R   0.387783 0.698328 0.997363 0.235676
O153  O     O_R   0.345659 0.729286 0.902951 -0.381497
O154  O     O_R   0.364121 0.662922 0.078743 -0.264686
N40   N     N_R   0.405118 0.308470 0.409600 0.244472
O155  O     O_R   0.370009 0.340253 0.305748 -0.207177
O156  O     O_R   0.378078 0.290067 0.513535 -0.349531
C125  C     C_2   0.225937 0.475027 0.420594 0.625282
H57   H     H_    0.261434 0.464707 0.520474 0.000847
O157  O     O_2   0.167658 0.481423 0.422843 -0.502039
C126  C     C_2   0.235970 0.532554 0.921074 0.504590
H58   H     H_    0.199516 0.507140 0.957117 0.120921
O158  O     O_2   0.260636 0.573424 0.993517 -0.575656
C127  C     C_2   0.721334 0.985304 0.426116 0.688334
H59   H     H_    0.756975 0.999161 0.521382 -0.027616
O159  O     O_2   0.662535 0.979736 0.423735 -0.502725
C128  C     C_2   0.731132 0.023856 0.925759 0.574824
H60   H     H_    0.704282 0.992175 0.968614 0.117706
O160  O     O_2   0.740403 0.069510 0.985183 -0.557780
N41   N     N_R   0.209762 0.431973 0.188237 0.235551
O161  O     O_R   0.234626 0.381713 0.212300 -0.335790
O162  O     O_R   0.146022 0.437167 0.127165 -0.294702
N42   N     N_R   0.207582 0.565453 0.674679 0.253887
O163  O     O_R   0.143122 0.559672 0.628441 -0.271646
O164  O     O_R   0.230496 0.616453 0.688437 -0.306061
N43   N     N_R   0.708417 0.932268 0.205858 0.244043
O165  O     O_R   0.734000 0.882416 0.231566 -0.328064
O166  O     O_R   0.645808 0.936753 0.133643 -0.293479
N44   N     N_R   0.722447 0.063162 0.693143 0.246474
O167  O     O_R   0.658356 0.060709 0.632511 -0.290273
O168  O     O_R   0.748133 0.112821 0.724828 -0.311632

loop_
_geom_bond_atom_site_label_1
_geom_bond_atom_site_label_2
_geom_bond_distance
_ccdc_geom_bond_type
C44   C56   1.488706 A    
C23   H19   1.110809 S    
C15   C19   1.617683 S    
C54   C58   1.410473 A    
C3    C111  1.514092 S    
N7    O65   1.302139 A    
C25   C105  1.488617 S    
C117  H49   1.067527 S    
P11   O43   1.747354 S    
N21   O105  1.288134 A    
C42   C86   1.461528 A    
C82   C90   1.467100 A    
C75   C77   1.409264 A    
C66   C70   1.449028 A    
C125  O157  1.208990 D    
C104  O80   1.211746 D    
N15   O89   1.304742 A    
C24   H20   1.100827 S    
C102  H34   1.085084 S    
C47   C49   1.419729 A    
N16   O91   1.290559 A    
C61   C65   1.465875 A    
C35   C95   1.428676 A    
P4    Ba4   3.650425 S    
C17   N1    1.480561 S    
C64   C68   1.465849 A    
C49   C117  1.487998 S    
O2    Ba2   2.999534 S    
P2    O18   1.755694 S    
C28   C108  1.492478 S    
C63   C67   1.466906 A    
P4    O8    1.659541 S    
C53   C57   1.418397 A    
Ba1   O46   3.205178 S    
C21   C25   1.576384 S    
C99   H31   1.082580 S    
C41   C85   1.456816 A    
C42   C46   1.405556 A    
C12   N40   1.447756 S    
C52   C120  1.475455 S    
C77   C81   1.424984 A    
N12   O76   1.295476 A    
C5    C9    1.525461 S    
C100  H32   1.076335 S    
P3    C55   2.050044 S    
C118  H50   1.082628 S    
C14   C18   1.626096 S    
C79   C83   1.435963 A    
C107  O83   1.215023 D    
C22   H18   1.103356 S    
P12   O44   1.743764 S    
C28   C104  1.493044 S    
N26   O115  1.293449 A    
C1    N33   1.480178 S    
N9    O69   1.298468 A    
O17   C21   1.398021 S    
C10   H14   1.099654 S    
C124  O140  1.216035 D    
N31   O133  1.291907 A    
P2    Ba2   3.650425 S    
C8    H8    1.097520 S    
C17   C97   1.533740 S    
N30   O131  1.289800 A    
N10   O72   1.295827 A    
P6    O45   1.667842 S    
C15   C127  1.433887 S    
C22   N10   1.457673 S    
C114  O122  1.211262 D    
N14   O88   1.288944 A    
C45   C51   1.420019 A    
C128  O160  1.213428 D    
C112  H44   1.067453 S    
P5    O25   1.673822 D    
O12   P15   1.782710 S    
C35   C39   1.461487 A    
P1    O1    1.673303 D    
C43   C55   1.486691 A    
P7    O27   1.673822 D    
C82   C86   1.443018 A    
P8    O28   1.673160 D    
O28   Ba4   3.005139 S    
C127  O159  1.207187 D    
O20   C24   1.399315 S    
C98   H30   1.082269 S    
C76   H24   1.078578 S    
P4    C56   2.042639 S    
P12   C35   1.926911 S    
C28   N16   1.483862 S    
C22   C26   1.573675 S    
C110  O102  1.213960 D    
C77   N29   1.398999 S    
O21   P14   1.766073 S    
C3    N23   1.457611 S    
C6    H6    1.097109 S    
H1    C29   1.115333 S    
C65   C73   1.387524 A    
P3    O7    1.661081 S    
N40   O155  1.289381 A    
O41   C5    1.401506 S    
C2    N22   1.469909 S    
P1    Ba1   3.652054 S    
C97   H29   1.081114 S    
P3    Ba3   3.652054 S    
O29   Ba1   2.978225 S    
N41   O161  1.301062 A    
P5    O37   1.771284 S    
O31   Ba3   2.978225 S    
N37   O150  1.300065 A    
C2    C30   1.553688 S    
N20   O100  1.290825 A    
N27   O118  1.297425 A    
N29   O129  1.294981 A    
O18   C22   1.391795 S    
C127  H59   1.044813 S    
C94   C122  1.480197 S    
P5    C62   1.992598 S    
O25   Ba1   3.002152 S    
C124  H56   1.066049 S    
C111  O103  1.210648 D    
C13   N41   1.457017 S    
C32   N20   1.448965 S    
Ba2   O45   3.204408 S    
O44   C8    1.406174 S    
N42   O163  1.290528 A    
C36   C96   1.435883 A    
C105  H37   1.075155 S    
N4    O60   1.301989 A    
N25   O114  1.300848 A    
C78   N30   1.422308 S    
C6    H10   1.110699 S    
C93   C121  1.465702 S    
C122  H54   1.071791 S    
C58   C90   1.425148 A    
C27   C107  1.483738 S    
C101  H33   1.085484 S    
C113  O121  1.210505 D    
C96   C124  1.475186 S    
C16   C128  1.457150 S    
C59   H27   1.067402 S    
N38   O151  1.289347 A    
C106  O82   1.216732 D    
N43   O166  1.293690 A    
O8    Ba3   2.999304 S    
C24   N12   1.454328 S    
C11   N39   1.462947 S    
P10   O42   1.753653 S    
C18   N6    1.471327 S    
C120  O128  1.212938 D    
P12   O32   1.749127 S    
N22   O108  1.298818 A    
N17   O93   1.288300 A    
C83   C91   1.468310 A    
O14   P13   1.546643 D    
C81   C89   1.462974 A    
N6    O63   1.295504 A    
N34   O144  1.294226 A    
N44   O168  1.301818 A    
N1    O54   1.301501 A    
Ba4   O47   3.204408 S    
C24   C28   1.589332 S    
O42   C6    1.403979 S    
C67   C71   1.444219 A    
C26   C106  1.501688 S    
C68   C72   1.452070 A    
N18   O95   1.296569 A    
C126  O158  1.218776 D    
C19   N3    1.482256 S    
O24   C32   1.411705 S    
C116  H48   1.076771 S    
O30   Ba2   2.977561 S    
C45   C113  1.440999 S    
H2    C30   1.113784 S    
C67   C75   1.379798 A    
N5    O61   1.302953 A    
P9    C34   1.905832 S    
C33   C37   1.467898 A    
C59   C91   1.430306 A    
C1    N21   1.441586 S    
C4    C112  1.506721 S    
O26   Ba2   3.005139 S    
C44   C48   1.398333 A    
P7    Ba3   3.652019 S    
C109  H41   1.076428 S    
P5    Ba1   3.652019 S    
N32   O136  1.297467 A    
N13   O86   1.285368 A    
P9    O33   1.548642 D    
C73   C79   1.407246 A    
P10   O30   1.734932 S    
C18   N2    1.455102 S    
P11   O35   1.547419 D    
N31   O134  1.290263 A    
C78   C82   1.439718 A    
C119  O127  1.212437 D    
P2    C54   2.031655 S    
C74   C80   1.406630 A    
C7    H11   1.108689 S    
C20   C100  1.534038 S    
N39   O154  1.301009 A    
C14   N42   1.462653 S    
C128  H60   1.067843 S    
C66   C74   1.383655 A    
C51   C119  1.458607 S    
O9    P14   1.801823 S    
C26   C102  1.528059 S    
C114  H46   1.077182 S    
O16   P15   1.548457 D    
N7    O66   1.294260 A    
C63   C95   1.421646 A    
C108  H40   1.076185 S    
C8    H12   1.102317 S    
C79   N31   1.418671 S    
C40   C52   1.440487 A    
C125  H57   1.048713 S    
O15   P16   1.548410 D    
C102  O78   1.220159 D    
P13   C90   1.950740 S    
N16   O92   1.303237 A    
C2    N34   1.465642 S    
C42   C54   1.483318 A    
P6    O26   1.673160 D    
C18   C98   1.530090 S    
N8    O67   1.292501 A    
N19   O97   1.290481 A    
C81   C85   1.428886 A    
O5    Ba2   3.000726 S    
C84   C88   1.436340 A    
P10   C33   1.932821 S    
Ba1   O45   2.999329 S    
O7    Ba4   3.000726 S    
C60   H28   1.067928 S    
C46   C114  1.461744 S    
N36   O147  1.297127 A    
C12   H16   1.096240 S    
N28   O120  1.295972 A    
N35   O145  1.298488 A    
C62   C94   1.416478 A    
C9    N37   1.432780 S    
P1    O17   1.763454 S    
C121  O137  1.216025 D    
C100  O52   1.218566 D    
P8    O40   1.780073 S    
C118  O126  1.214826 D    
P3    O3    1.673303 D    
Ba3   O48   3.205178 S    
N33   O142  1.302190 A    
O11   Ba3   2.976820 S    
P4    O20   1.766156 S    
C37   C69   1.437669 A    
C41   C53   1.491871 A    
N26   O116  1.298735 A    
C44   C88   1.455055 A    
C25   C101  1.520598 S    
C73   H21   1.074853 S    
P6    O38   1.774897 S    
C3    C31   1.568124 S    
C4    N36   1.472418 S    
C123  H55   1.075077 S    
N2    O55   1.294358 A    
N30   O132  1.295805 A    
C47   C115  1.437270 S    
N11   O73   1.296804 A    
C20   N4    1.472208 S    
P6    C61   2.011684 S    
P15   C92   1.951411 S    
P4    O4    1.673966 D    
C36   C40   1.467249 A    
C84   C92   1.466944 A    
C103  O79   1.210385 D    
N28   O119  1.297770 A    
C20   N8    1.476213 S    
C60   C92   1.422604 A    
C61   C93   1.422543 A    
C112  O104  1.213745 D    
P8    Ba4   3.653694 S    
C117  O125  1.219543 D    
N24   O112  1.298822 A    
N21   O106  1.295580 A    
C6    C10   1.551103 S    
C27   N15   1.462770 S    
N23   O109  1.295006 A    
O22   C30   1.408277 S    
P1    O5    1.661081 S    
C98   O50   1.220350 D    
C101  O77   1.217696 D    
C111  H43   1.079031 S    
C13   C17   1.636585 S    
C126  H58   1.077632 S    
O6    Ba1   2.999304 S    
C37   C49   1.441251 A    
C104  H36   1.067389 S    
Ba2   O46   2.997905 S    
P9    O41   1.732226 S    
O9    Ba1   2.976820 S    
C115  H47   1.058159 S    
O24   P15   1.756510 S    
P12   O36   1.537835 D    
N3    O57   1.299164 A    
C9    H13   1.105046 S    
P7    O39   1.773023 S    
O12   Ba4   2.977471 S    
C7    C11   1.538006 S    
C123  O139  1.217487 D    
H3    C31   1.115903 S    
P5    O46   1.666278 S    
N40   O156  1.295202 A    
P7    O48   1.666278 S    
C19   N7    1.470522 S    
C9    N25   1.450459 S    
C33   C93   1.436151 A    
N37   O149  1.293912 A    
C50   C118  1.479817 S    
C10   N38   1.452656 S    
N12   O75   1.297140 A    
C57   H25   1.071094 S    
C72   C86   1.487193 A    
C1    C109  1.487994 S    
O10   P13   1.777766 S    
C23   C27   1.589551 S    
N42   O164  1.301221 A    
O22   P13   1.751212 S    
N9    O70   1.293407 A    
P10   O34   1.544453 D    
C11   H15   1.109289 S    
P11   O31   1.728620 S    
N25   O113  1.292324 A    
C5    H5    1.112429 S    
C43   C87   1.454313 A    
N10   O71   1.297096 A    
C122  O138  1.215839 D    
C7    H7    1.110351 S    
C65   C69   1.449276 A    
C113  H45   1.075316 S    
C4    C32   1.562648 S    
P1    C53   2.037602 S    
N27   O117  1.296269 A    
C31   N19   1.440645 S    
C80   C84   1.434268 A    
N14   O87   1.290100 A    
N38   O152  1.292660 A    
N24   O111  1.294078 A    
P16   C91   1.969383 S    
C13   C125  1.465234 S    
C99   O51   1.221105 D    
O11   P16   1.782596 S    
C25   N13   1.451679 S    
O10   Ba2   2.977471 S    
C8    C12   1.529841 S    
O19   C23   1.390892 S    
C119  H51   1.061468 S    
C1    C29   1.559893 S    
Ba1   Ba2   5.025690 S    
N19   O98   1.291278 A    
C12   N28   1.466952 S    
P3    O19   1.755020 S    
Ba3   Ba4   5.025690 S    
O4    Ba4   2.999534 S    
C56   C60   1.411740 A    
N6    O64   1.300597 A    
N39   O153  1.292659 A    
N1    O53   1.301507 A    
C55   C59   1.417428 A    
Ba4   O48   2.997905 S    
C27   C103  1.513997 S    
C110  H42   1.068971 S    
N18   O96   1.293648 A    
C43   C47   1.400375 A    
C46   C52   1.419617 A    
N20   O99   1.295228 A    
C116  O124  1.212535 D    
N35   O146  1.297996 A    
C80   N32   1.409760 S    
C5    H9    1.104050 S    
O37   C14   1.419210 S    
C75   H23   1.079732 S    
O39   C16   1.419982 S    
C29   N17   1.449827 S    
P9    O29   1.711542 S    
C21   N9    1.451416 S    
C16   C20   1.644755 S    
C97   O49   1.220002 D    
N41   O162  1.292680 A    
N13   O85   1.295296 A    
C19   C99   1.528390 S    
O23   P16   1.772127 S    
C3    N35   1.468543 S    
N29   O130  1.283595 A    
N11   O74   1.297692 A    
P2    O2    1.673966 D    
C39   C51   1.416218 A    
H4    C32   1.112902 S    
C16   N44   1.466678 S    
O40   C15   1.400352 S    
C15   N43   1.465479 S    
O13   P14   1.544569 D    
P8    O47   1.667842 S    
C2    C110  1.499285 S    
C38   C70   1.430842 A    
O43   C7    1.395581 S    
C4    N24   1.478102 S    
C48   C50   1.417695 A    
C74   H22   1.077120 S    
N4    O59   1.293887 A    
C108  O84   1.220901 D    
C83   C87   1.440678 A    
P7    C64   2.008622 S    
P8    C63   2.002760 S    
N23   O110  1.290455 A    
C34   C38   1.464709 A    
C23   N11   1.459375 S    
C105  O81   1.209741 D    
N43   O165  1.298466 A    
P14   C89   1.964544 S    
C106  H38   1.076478 S    
P6    Ba2   3.653694 S    
C14   C126  1.474672 S    
C11   N27   1.481155 S    
C48   C116  1.434824 S    
C115  O123  1.207295 D    
C69   C87   1.488969 A    
C70   C88   1.494171 A    
N22   O107  1.295238 A    
N3    O58   1.302747 A    
N8    O68   1.301648 A    
N17   O94   1.295592 A    
C71   C85   1.489093 A    
C41   C45   1.408831 A    
C64   C96   1.421467 A    
C107  H39   1.080758 S    
P2    O6    1.659541 S    
O38   C13   1.412801 S    
C39   C71   1.416347 A    
N34   O143  1.293606 A    
C40   C72   1.432096 A    
N44   O167  1.294076 A    
N15   O90   1.282271 A    
C38   C50   1.434651 A    
N36   O148  1.297576 A    
O21   C29   1.412058 S    
O1    Ba1   3.002483 S    
C103  H35   1.084565 S    
O23   C31   1.415854 S    
N5    O62   1.295920 A    
O3    Ba3   3.002483 S    
C121  H53   1.071557 S    
C26   N14   1.447923 S    
C76   C78   1.406869 A    
Ba3   O47   2.999329 S    
N33   O141  1.294835 A    
C30   N18   1.454155 S    
C120  H52   1.075813 S    
C109  O101  1.216338 D    
O32   Ba4   2.977561 S    
N32   O135  1.293632 A    
C10   N26   1.467029 S    
C17   N5    1.478715 S    
C34   C94   1.429471 A    
C68   C76   1.388248 A    
N2    O56   1.299422 A    
C62   C66   1.463673 A    
C57   C89   1.426745 A    
O27   Ba3   3.002152 S    
C58   H26   1.064999 S    
C95   C123  1.467461 S    
P11   C36   1.922005 S    
C21   H17   1.104871 S    
