data_mof_unit_25329.cif
_audit_creation_date              2013-03-05T15:51:50-0500
_audit_creation_method            fapswitch 2.2
_symmetry_space_group_name_H-M    P1
_symmetry_Int_Tables_number       1
_space_group_crystal_system       triclinic
_cell_length_a                    10.969413
_cell_length_b                    11.014768
_cell_length_c                    18.76568
_cell_angle_alpha                 90.533078
_cell_angle_beta                  90.022698
_cell_angle_gamma                 60.852725
_cell_volume                      1980.14947357

loop_
_atom_site_label
_atom_site_type_symbol
_atom_site_description
_atom_site_fract_x
_atom_site_fract_y
_atom_site_fract_z
_atom_type_partial_charge
O1    O     O_R   0.507380 0.255700 0.581440 -0.459825
O2    O     O_R   0.280320 0.527350 0.578930 -0.458189
C1    C     C_R   0.287152 0.625421 0.615944 0.540886
O3    O     O_R   0.260510 0.739590 0.584590 -0.509795
O4    O     O_R   0.532300 0.695080 0.573820 -0.528391
C2    C     C_R   0.657420 0.623856 0.598877 0.556916
O5    O     O_R   0.744840 0.503500 0.576370 -0.443255
O6    O     O_R   0.699120 0.276560 0.571960 -0.519376
C3    C     C_R   0.630046 0.223094 0.600360 0.554648
O7    O     O_R   0.498940 0.256500 0.419860 -0.519358
O8    O     O_R   0.272500 0.528080 0.429150 -0.493685
C4    C     C_R   0.220082 0.649934 0.402085 0.554497
O9    O     O_R   0.252060 0.740380 0.423010 -0.519537
O10   O     O_R   0.524480 0.695810 0.424040 -0.512003
C5    C     C_R   0.643634 0.623354 0.393254 0.544789
O11   O     O_R   0.736390 0.504290 0.414790 -0.507819
O12   O     O_R   0.691300 0.277290 0.422170 -0.498422
C6    C     C_R   0.616348 0.228854 0.395325 0.529286
Cr1   Cr    Cr6+3 0.392960 0.397920 0.502240 1.077914
Cr2   Cr    Cr6+3 0.398340 0.708480 0.501250 1.020330
Cr3   Cr    Cr6+3 0.708670 0.393570 0.496460 1.059047
O13   O     O_3   0.499990 0.499990 0.499980 -0.293898
C7    C     C_3   0.623479 0.832682 0.770689 0.050803
H1    H     H_    0.686396 0.886370 0.767952 0.171063
C8    C     C_3   0.590784 0.806788 0.692988 -0.274688
H2    H     H_    0.479372 0.838595 0.685891 0.152575
H3    H     H_    0.613437 0.870640 0.655476 0.170143
H4    H     H_    0.913011 0.683075 0.778537 0.107655
H5    H     H_    0.847543 0.711395 0.663616 0.117847
C9    C     C_3   0.859634 0.621644 0.767163 -0.263408
C10   C     C_3   0.640150 0.603724 0.799907 0.090487
C11   C     C_3   0.717571 0.689984 0.808063 0.015582
H6    H     H_    0.528429 0.673964 0.810420 0.124454
C12   C     C_3   0.684529 0.651989 0.672598 -0.028430
C13   C     C_3   0.837485 0.622981 0.685794 0.080025
C14   C     C_3   0.652064 0.556746 0.721883 -0.225002
H7    H     H_    0.554001 0.557854 0.705891 0.080628
H8    H     H_    0.736481 0.447633 0.716310 0.194296
H9    H     H_    0.926806 0.514583 0.786670 0.209238
C15   C     C_R   0.681644 0.158258 0.821613 0.037275
C16   C     C_R   0.769948 0.190914 0.780505 0.077575
C17   C     C_R   0.765275 0.185965 0.706747 -0.098358
C18   C     C_R   0.574847 0.139055 0.709796 0.175797
C19   C     C_R   0.573086 0.152368 0.783824 -0.172747
C20   C     C_3   0.923926 0.142576 0.773476 0.135437
C21   C     C_3   0.916481 0.122855 0.694085 -0.260696
C22   C     C_R   0.670325 0.161369 0.670177 0.045887
H10   H     H_    0.491249 0.144322 0.811467 0.198431
H11   H     H_    0.956891 0.221250 0.784400 0.194140
H12   H     H_    0.942502 0.187847 0.659869 0.198369
H13   H     H_    0.963215 0.012573 0.676024 0.171469
C23   C     C_R   0.203378 0.652845 0.841132 0.063766
C24   C     C_R   0.173876 0.567745 0.797157 0.004163
C25   C     C_R   0.196341 0.561846 0.723605 0.047101
C26   C     C_R   0.278674 0.726390 0.736059 -0.146524
C27   C     C_R   0.265042 0.725097 0.810225 -0.062705
C28   C     C_3   0.242018 0.413993 0.802000 -0.295134
C29   C     C_3   0.268596 0.408608 0.722961 -0.233052
C30   C     C_R   0.246823 0.642426 0.691688 0.013371
H14   H     H_    0.317579 0.790256 0.713508 0.114542
H15   H     H_    0.293189 0.788413 0.843137 0.172526
H16   H     H_    0.167364 0.377377 0.816710 0.171659
H17   H     H_    0.337245 0.372160 0.835329 0.153648
H18   H     H_    0.377972 0.372859 0.708581 0.165710
H19   H     H_    0.215442 0.363717 0.690933 0.243464
C31   C     C_R   0.673976 0.684026 0.174474 0.026233
C32   C     C_R   0.782834 0.577271 0.211310 0.015499
C33   C     C_R   0.780922 0.566562 0.283580 -0.035238
C34   C     C_R   0.566129 0.784216 0.289106 -0.169354
C35   C     C_R   0.568569 0.793580 0.214360 -0.176136
C36   C     C_3   0.851007 0.423952 0.198959 0.104603
C37   C     C_3   0.847637 0.410830 0.279213 -0.213039
C38   C     C_R   0.667598 0.663899 0.323508 0.020002
H20   H     H_    0.479868 0.864856 0.318942 0.122460
H21   H     H_    0.486378 0.882231 0.187928 0.123456
H22   H     H_    0.957897 0.378588 0.176092 0.152840
H23   H     H_    0.776202 0.373161 0.297697 0.196052
H24   H     H_    0.953349 0.358630 0.303383 0.127126
C39   C     C_R   0.654858 0.168475 0.173654 -0.000013
C40   C     C_R   0.525257 0.231060 0.206942 -0.002019
C41   C     C_R   0.518298 0.237929 0.279745 0.004380
C42   C     C_R   0.768731 0.138358 0.288788 0.173545
C43   C     C_R   0.774712 0.134991 0.214917 -0.062099
C44   C     C_3   0.402245 0.207806 0.201113 -0.265159
C45   C     C_3   0.397600 0.210733 0.281830 -0.260507
C46   C     C_R   0.638460 0.185136 0.322047 0.006196
H25   H     H_    0.876057 0.094533 0.190235 0.180899
H26   H     H_    0.427192 0.105497 0.178129 0.155742
H27   H     H_    0.310765 0.297919 0.176899 0.144619
H28   H     H_    0.302201 0.299749 0.304072 0.146838
H29   H     H_    0.425351 0.108473 0.305538 0.135490
C47   C     C_R   0.056684 0.725351 0.194866 0.008189
C48   C     C_R   0.074500 0.825115 0.232542 0.042110
C49   C     C_R   0.113464 0.805422 0.302434 0.071936
C50   C     C_R   0.098300 0.594371 0.304436 -0.160329
C51   C     C_R   0.060871 0.613069 0.232162 -0.161526
C52   C     C_3   0.168430 0.884824 0.215826 -0.256717
C53   C     C_3   0.210755 0.863379 0.292718 -0.250417
C54   C     C_R   0.136122 0.685500 0.338076 0.012007
H30   H     H_    0.108478 0.503991 0.331816 0.127388
H31   H     H_    0.045617 0.535208 0.204534 0.120931
H32   H     H_    0.111237 0.996293 0.201254 0.152745
H33   H     H_    0.256061 0.817831 0.179305 0.156811
H34   H     H_    0.321372 0.782820 0.299664 0.145961
H35   H     H_    0.177226 0.961964 0.322932 0.178307
O14   O     O_R   0.089400 0.825690 0.930570 -0.418907
O15   O     O_R   0.818460 0.054440 0.929850 -0.421384
C55   C     C_R   0.702262 0.102017 0.895228 0.602544
O16   O     O_R   0.606060 0.077150 0.915510 -0.518874
O17   O     O_R   0.646550 0.806680 0.917570 -0.435204
C56   C     C_R   0.748513 0.706476 0.883176 0.593257
O18   O     O_R   0.837170 0.593410 0.915250 -0.446605
O19   O     O_R   0.065200 0.635530 0.931570 -0.526418
C57   C     C_R   0.124120 0.702736 0.908107 0.588464
O20   O     O_R   0.068260 0.828890 0.091840 -0.527274
O21   O     O_R   0.798870 0.057410 0.079340 -0.517109
C58   C     C_R   0.675813 0.107653 0.103539 0.562246
O22   O     O_R   0.584930 0.080350 0.076780 -0.524688
O23   O     O_R   0.626960 0.809650 0.067060 -0.513375
C59   C     C_R   0.699180 0.693408 0.099267 0.577233
O24   O     O_R   0.816040 0.596610 0.076510 -0.485657
O25   O     O_R   0.045610 0.638500 0.081060 -0.512606
C60   C     C_R   0.030164 0.745096 0.119027 0.539212
Cr4   Cr    Cr6+3 0.937650 0.938540 0.007610 1.109568
Cr5   Cr    Cr6+3 0.625330 0.937370 0.994520 1.063838
Cr6   Cr    Cr6+3 0.937940 0.625230 0.001190 1.060497
O26   O     O_3   0.833640 0.833710 0.001100 -0.327968
N1    N     N_R   0.946456 0.496483 0.651572 0.085724
O27   O     O_R   0.011546 0.505894 0.595718 -0.327672
O28   O     O_R   0.984084 0.374854 0.677971 -0.425480
O29   O     O_3   0.475604 0.116891 0.675307 -0.696042
H36   H     H_    0.411506 0.111116 0.710607 0.345134
N2    N     N_R   0.007782 0.015420 0.809985 0.073539
O30   O     O_R   0.094695 0.013706 0.857590 -0.341870
O31   O     O_R   0.978349 0.914724 0.804089 -0.402186
O32   O     O_3   0.500383 0.920003 0.809254 -0.696176
H37   H     H_    0.426239 0.896667 0.797534 0.324520
O33   O     O_3   0.765446 0.383449 0.161287 -0.677168
H38   H     H_    0.670813 0.429856 0.183242 0.327276
O34   O     O_3   0.891202 0.095208 0.325947 -0.723877
H39   H     H_    0.880999 0.062913 0.373528 0.336630
N3    N     N_R   0.681757 0.488587 0.849822 0.074833
O35   O     O_R   0.811860 0.398266 0.859718 -0.347338
O36   O     O_R   0.587139 0.480993 0.888374 -0.353587

loop_
_geom_bond_atom_site_label_1
_geom_bond_atom_site_label_2
_geom_bond_distance
_ccdc_geom_bond_type
C51   H31   1.078779 S    
C43   H25   1.078403 S    
C26   C27   1.400782 A    
C48   C49   1.365462 A    
C11   C56   1.479833 S    
C26   C30   1.403897 A    
C16   C17   1.386593 A    
C56   O18   1.301055 A    
C40   C44   1.494783 S    
N1    O27   1.301478 A    
C52   C53   1.500796 S    
C45   H29   1.111086 S    
C28   H16   1.110608 S    
O4    Cr2   1.956158 S    
C31   C35   1.406425 A    
C20   C21   1.511496 S    
C59   O24   1.273964 A    
O8    Cr1   1.967864 S    
C6    C46   1.433804 S    
C53   H35   1.111562 S    
C9    C13   1.545125 S    
O14   C57   1.282165 A    
C14   H7    1.111018 S    
C10   C14   1.532575 S    
O4    C2    1.295295 A    
C50   C54   1.404226 A    
C32   C36   1.492501 S    
C49   C53   1.498570 S    
C5    O11   1.276016 A    
C47   C51   1.407936 A    
C55   O16   1.271741 A    
C12   C13   1.567636 S    
C17   C21   1.471350 S    
O17   C56   1.292501 A    
C4    C54   1.449467 S    
C37   H24   1.111716 S    
N3    O35   1.296597 A    
C50   C51   1.404578 A    
O6    C3    1.282884 A    
C9    H9    1.108589 S    
C42   O34   1.378553 S    
O15   C55   1.294767 A    
C10   H6    1.101419 S    
C34   C38   1.410828 A    
O22   Cr5   2.082071 S    
C9    C11   1.559390 S    
C15   C19   1.413819 A    
O18   Cr6   2.076309 S    
C52   H32   1.109789 S    
C7    H1    1.107621 S    
C8    C12   1.546391 S    
C15   C55   1.490796 S    
C31   C32   1.390365 A    
C31   C59   1.452501 S    
Cr3   O13   2.000811 S    
C34   C35   1.408623 A    
O15   Cr4   1.968689 S    
C28   H17   1.109345 S    
C36   O33   1.407542 S    
C25   C30   1.393583 A    
C29   H18   1.097917 S    
O1    Cr1   2.089211 S    
O20   C60   1.292841 A    
C32   C33   1.363468 A    
O10   Cr2   1.960379 S    
Cr1   O13   1.982656 S    
O1    C3    1.263677 A    
O34   H39   0.990509 S    
C47   C60   1.449527 S    
C24   C28   1.484845 S    
C50   H30   1.081064 S    
C40   C41   1.367697 A    
O19   Cr6   1.956253 S    
C33   C38   1.394168 A    
O5    Cr3   2.075093 S    
C21   H13   1.113149 S    
O12   Cr3   1.955646 S    
C2    C12   1.476401 S    
N1    O28   1.297736 A    
O25   Cr6   1.955873 S    
C18   C19   1.394689 A    
C37   H23   1.107291 S    
C29   H19   1.104867 S    
C10   C11   1.559062 S    
C20   H11   1.107076 S    
O7    Cr1   2.088159 S    
C33   C37   1.503095 S    
O12   C6    1.279197 A    
C41   C46   1.402439 A    
C34   H20   1.081771 S    
C44   C45   1.515115 S    
O23   C59   1.287714 A    
C52   H33   1.112833 S    
Cr4   O26   1.982547 S    
O23   Cr5   1.960503 S    
O16   Cr5   2.082957 S    
C15   C16   1.416991 A    
C5    C38   1.451581 S    
Cr2   O13   2.005566 S    
C3    C22   1.448256 S    
N2    O30   1.299786 A    
N3    O36   1.301503 A    
C44   H27   1.111950 S    
C1    O3    1.291764 A    
C48   C52   1.502256 S    
C23   C24   1.394719 A    
N2    O31   1.301237 A    
O19   C57   1.277465 A    
C25   C29   1.474366 S    
H5    C13   1.116250 S    
O20   Cr4   2.087561 S    
O21   Cr4   1.967465 S    
O9    Cr2   2.076640 S    
O2    Cr1   1.969160 S    
C27   H15   1.079237 S    
C44   H26   1.105207 S    
O32   H37   0.989130 S    
O29   H36   0.990927 S    
O6    Cr3   1.960879 S    
C45   H28   1.106305 S    
O11   Cr3   2.079663 S    
C24   C25   1.397518 A    
C2    O5    1.267669 A    
C23   C57   1.469731 S    
C8    H3    1.109744 S    
C21   H12   1.101793 S    
C20   N2    1.428123 S    
C7    C11   1.570782 S    
C10   N3    1.466963 S    
C18   O29   1.385283 S    
O2    C1    1.311412 A    
C8    H2    1.103504 S    
O24   Cr6   2.074997 S    
C42   C46   1.405190 A    
C58   O22   1.274885 A    
C39   C43   1.412907 A    
C7    O32   1.412392 S    
C28   C29   1.506772 S    
C36   H22   1.110990 S    
C49   C54   1.396594 A    
O7    C6    1.256677 A    
Cr6   O26   2.005755 S    
C53   H34   1.109003 S    
C39   C58   1.437593 S    
C14   H8    1.107474 S    
C47   C48   1.392918 A    
H4    C9    1.108777 S    
O21   C58   1.265986 A    
C12   C14   1.570040 S    
C17   C22   1.378410 A    
C7    C8    1.558055 S    
C13   N1    1.464323 S    
O33   H38   0.994053 S    
O17   Cr5   1.961319 S    
C39   C40   1.387280 A    
O3    Cr2   2.082405 S    
C23   C27   1.400215 A    
C36   C37   1.516478 S    
C4    O9    1.265996 A    
C42   C43   1.387108 A    
O14   Cr4   2.087818 S    
C35   H21   1.078648 S    
Cr5   O26   2.000310 S    
C16   C20   1.508848 S    
O10   C5    1.286459 A    
O25   C60   1.306013 A    
C26   H14   1.074350 S    
C18   C22   1.401742 A    
C41   C45   1.493579 S    
C19   H10   1.077748 S    
O8    C4    1.284806 A    
C1    C30   1.471731 S    
