data_mof_unit_58477.cif
_audit_creation_date              2012-12-10T17:22:08-0500
_audit_creation_method            fapswitch 2.2
_symmetry_space_group_name_H-M    P1
_symmetry_Int_Tables_number       1
_space_group_crystal_system       triclinic
_cell_length_a                    15.880457
_cell_length_b                    10.867757
_cell_length_c                    9.579676
_cell_angle_alpha                 90.207652
_cell_angle_beta                  89.893004
_cell_angle_gamma                 92.898064
_cell_volume                      1651.18021827

loop_
_atom_site_label
_atom_site_type_symbol
_atom_type_description
_atom_site_fract_x
_atom_site_fract_y
_atom_site_fract_z
_atom_type_partial_charge
C1    C     C_R   0.506047 0.262910 0.500594 0.798686
C2    C     C_3   0.947589 0.430617 0.624914 -0.394934
C3    C     C_3   0.917281 0.504621 0.498143 0.208750
C4    C     C_3   0.957190 0.638239 0.506379 -0.415360
C5    C     C_3   0.055329 0.637696 0.516055 0.261640
C6    C     C_1   0.825120 0.505338 0.498796 -0.060717
C7    C     C_1   0.175225 0.499027 0.501008 -0.029369
C8    C     C_1   0.250699 0.498257 0.500693 -0.183182
C9    C     C_R   0.548066 0.120351 0.757889 -0.162638
C10   C     C_R   0.535694 0.061354 0.885694 -0.159951
C11   C     C_R   0.493721 0.946324 0.890381 -0.138398
C12   C     C_R   0.340294 0.498813 0.500200 0.826637
C13   C     C_R   0.471992 0.885146 0.766505 -0.164295
C14   C     C_R   0.492860 0.938319 0.634947 0.092367
C15   C     C_R   0.518402 0.064277 0.632072 0.095880
C16   C     C_R   0.512307 0.128878 0.503930 -0.121139
C17   C     C_R   0.500747 0.063125 0.378930 -0.215607
C18   C     C_R   0.493453 0.935890 0.379810 -0.220500
C19   C     C_R   0.489907 0.871747 0.506373 -0.115410
C20   C     C_R   0.611397 0.665872 0.144519 -0.150079
C21   C     C_R   0.665118 0.747870 0.072304 -0.222685
C22   C     C_R   0.665174 0.747759 0.928483 -0.196394
C23   C     C_R   0.494648 0.737358 0.501314 0.776929
C24   C     C_R   0.611439 0.665748 0.856016 -0.135126
C25   C     C_R   0.554646 0.581697 0.925279 0.192852
C26   C     C_R   0.554627 0.581700 0.074985 0.205282
C27   C     C_R   0.448265 0.421897 0.073789 -0.064426
C28   C     C_R   0.448289 0.421922 0.925767 -0.067766
C29   C     C_R   0.659761 0.501377 0.499823 0.802904
C30   C     C_3   0.045034 0.431313 0.628328 -0.502471
C31   C     C_3   0.045846 0.449752 0.358650 0.346092
C32   C     C_3   0.947876 0.442697 0.362515 -0.452889
C33   C     C_1   0.749512 0.503888 0.499395 -0.185282
C34   C     C_3   0.083208 0.502096 0.500258 0.152139
Cu1   Cu    Cu3+1 0.499990 0.499990 0.640660 0.918169
Cu2   Cu    Cu3+1 0.500010 0.500010 0.359340 0.932367
H1    H     H_    0.921169 0.333906 0.619521 0.170367
H2    H     H_    0.067708 0.477277 0.726307 0.179017
H3    H     H_    0.924236 0.471438 0.723551 0.180945
H4    H     H_    0.938280 0.690871 0.413006 0.192085
H5    H     H_    0.497699 0.109955 0.279550 0.162141
H6    H     H_    0.582882 0.208322 0.759319 0.164580
H7    H     H_    0.556659 0.106437 0.981370 0.135040
H8    H     H_    0.479686 0.903052 0.989951 0.136579
H9    H     H_    0.436468 0.798370 0.776610 0.166316
H10   H     H_    0.489598 0.887784 0.280586 0.165652
H11   H     H_    0.405911 0.357887 0.129010 0.141582
H12   H     H_    0.066418 0.336309 0.636343 0.168728
H13   H     H_    0.617629 0.672490 0.254538 0.200140
H14   H     H_    0.707428 0.811500 0.128676 0.149690
H15   H     H_    0.707386 0.811475 0.872299 0.148831
H16   H     H_    0.617294 0.672746 0.745994 0.199962
H17   H     H_    0.405991 0.357880 0.870219 0.145274
H18   H     H_    0.062568 0.521378 0.279252 0.162836
H19   H     H_    0.921245 0.346482 0.355060 0.178809
H20   H     H_    0.923406 0.491366 0.270041 0.151095
H21   H     H_    0.072680 0.672096 0.623066 0.067709
H22   H     H_    0.932256 0.686303 0.599376 0.138393
N1    N     N_R   0.500800 0.501210 0.147910 -0.198769
N2    N     N_R   0.500820 0.501290 0.852040 -0.203720
O1    O     O_R   0.499990 0.319640 0.618810 -0.589042
O2    O     O_R   0.500000 0.319660 0.381240 -0.580811
O3    O     O_R   0.379430 0.499990 0.618840 -0.579319
O4    O     O_R   0.379440 0.500020 0.381260 -0.564310
O5    O     O_R   0.500000 0.680340 0.618760 -0.612895
O6    O     O_R   0.500010 0.680360 0.381190 -0.600449
O7    O     O_R   0.620560 0.499980 0.618740 -0.596001
O8    O     O_R   0.620570 0.500010 0.381160 -0.589274
O9    O     O_3   0.082071 0.342947 0.302335 -0.579381
C35   C     C_3   0.073514 0.237041 0.387158 0.096265
H23   H     H_    0.014211 0.230644 0.448491 0.133911
H24   H     H_    0.128457 0.234936 0.458539 0.149975
C36   C     C_3   0.073851 0.123351 0.294366 -0.813162
H25   H     H_    0.134382 0.121592 0.236281 0.251201
H26   H     H_    0.066053 0.039216 0.359366 0.205468
H27   H     H_    0.020973 0.124036 0.218693 0.248971
O10   O     O_3   0.092019 0.713316 0.408814 -0.589359
C37   C     C_3   0.154725 0.797673 0.462295 0.066672
H28   H     H_    0.197041 0.753898 0.538063 0.132514
H29   H     H_    0.124291 0.875405 0.514660 0.138408
C38   C     C_3   0.209375 0.847514 0.342635 -0.787419
H30   H     H_    0.169658 0.889016 0.261955 0.250277
H31   H     H_    0.255994 0.918800 0.382325 0.202309
H32   H     H_    0.243750 0.771575 0.294429 0.250096

loop_
_geom_bond_atom_site_label_1
_geom_bond_atom_site_label_2
_ccdc_geom_bond_type
C24   H16   S    
C36   H25   S    
Cu2   O4    S    
Cu1   Cu2   S    
C2    H1    S    
C3    C6    S    
C1    O2    A    
C38   H30   S    
C7    C8    T    
O10   C37   S    
C9    H6    S    
C23   O6    A    
C30   H12   S    
C12   O4    A    
Cu2   O6    S    
Cu1   O5    S    
C15   C16   A    
C29   C33   S    
C30   H2    S    
C18   C19   A    
C29   O7    A    
C2    H3    S    
C4    H4    S    
C16   C17   A    
C35   H23   S    
C25   N2    A    
C9    C10   A    
C32   H19   S    
Cu2   N1    S    
C13   C14   A    
C36   H26   S    
C3    C32   S    
Cu2   O2    S    
C18   H10   S    
C21   H14   S    
C38   H31   S    
C28   N2    A    
C30   C34   S    
C24   C25   A    
C12   O3    A    
C37   H28   S    
C25   C26   A    
Cu1   N2    S    
C19   C23   S    
C20   H13   S    
C29   O8    A    
C31   C32   S    
Cu1   O7    S    
C8    C12   S    
C5    C34   S    
C35   C36   S    
C17   C18   A    
C31   C34   S    
C11   H8    S    
Cu1   O1    S    
C1    C16   S    
C36   H27   S    
C22   C24   A    
C5    O10   S    
C3    C4    S    
C38   H32   S    
C26   N1    A    
C27   H11   S    
C10   H7    S    
C14   C19   A    
C4    C5    S    
C1    O1    A    
Cu1   O3    S    
C28   H17   S    
Cu2   O8    S    
C6    C33   T    
C5    H21   S    
C2    C30   S    
C23   O5    A    
C2    C3    S    
C9    C15   A    
C27   N1    A    
C13   H9    S    
C11   C13   A    
C37   C38   S    
C20   C26   A    
C7    C34   S    
C37   H29   S    
C31   H18   S    
O9    C35   S    
C17   H5    S    
C10   C11   A    
C31   O9    S    
C20   C21   A    
C4    H22   S    
C27   C28   A    
C14   C15   A    
C35   H24   S    
C21   C22   A    
C32   H20   S    
C22   H15   S    
