data_mof_unit_43689.cif
_audit_creation_date              2013-03-05T15:53:19-0500
_audit_creation_method            fapswitch 2.2
_symmetry_space_group_name_H-M    P1
_symmetry_Int_Tables_number       1
_space_group_crystal_system       triclinic
_cell_length_a                    27.359311
_cell_length_b                    7.186291
_cell_length_c                    22.530049
_cell_angle_alpha                 89.794426
_cell_angle_beta                  101.015988
_cell_angle_gamma                 89.942064
_cell_volume                      4348.02117218

loop_
_atom_site_label
_atom_site_type_symbol
_atom_site_description
_atom_site_fract_x
_atom_site_fract_y
_atom_site_fract_z
_atom_type_partial_charge
O1    O     O_R   0.207310 0.594030 0.676830 -0.575652
O2    O     O_R   0.792690 0.405970 0.323170 -0.576150
O3    O     O_R   0.292690 0.094030 0.823170 -0.573255
O4    O     O_R   0.707310 0.905970 0.176830 -0.573125
O5    O     O_R   0.197320 0.262370 0.795700 -0.571050
O6    O     O_R   0.802680 0.737630 0.204300 -0.571368
O7    O     O_R   0.302680 0.762370 0.704300 -0.569600
O8    O     O_R   0.697320 0.237630 0.295700 -0.570527
C1    C     C_R   0.183644 0.431649 0.810716 1.004730
C2    C     C_R   0.816467 0.568314 0.189437 1.005171
C3    C     C_R   0.316263 0.932086 0.689157 1.003390
C4    C     C_R   0.683997 0.068148 0.311028 1.001175
O9    O     O_R   0.201410 0.264250 0.675590 -0.580204
O10   O     O_R   0.798590 0.735750 0.324410 -0.580945
O11   O     O_R   0.298590 0.764250 0.824410 -0.580929
O12   O     O_R   0.701410 0.235750 0.175590 -0.579329
O13   O     O_R   0.296810 0.094940 0.702210 -0.583490
O14   O     O_R   0.703190 0.905060 0.297790 -0.581129
O15   O     O_R   0.203190 0.594940 0.797790 -0.583414
O16   O     O_R   0.796810 0.405060 0.202210 -0.583658
C5    C     C_R   0.189180 0.434102 0.653617 1.013515
C6    C     C_R   0.810680 0.565863 0.346440 1.014083
C7    C     C_R   0.310762 0.933234 0.846483 1.014638
C8    C     C_R   0.689227 0.066651 0.153483 1.014732
O17   O     O_3   0.281300 0.427390 0.758870 -0.267552
O18   O     O_3   0.718700 0.572610 0.241130 -0.266069
O19   O     O_3   0.218700 0.927390 0.741130 -0.269087
O20   O     O_3   0.781300 0.072610 0.258870 -0.270026
V1    V     V_3+5 0.244190 0.152150 0.748350 1.247893
V2    V     V_3+5 0.755810 0.847850 0.251650 1.248153
V3    V     V_3+5 0.255810 0.652150 0.751650 1.248382
V4    V     V_3+5 0.744190 0.347850 0.248350 1.248121
C9    C     C_R   0.653468 0.053930 0.094806 -0.288267
C10   C     C_R   0.346393 0.945209 0.905208 -0.286824
C11   C     C_R   0.845761 0.549197 0.405340 -0.288765
C12   C     C_R   0.153376 0.450523 0.595155 -0.287755
C13   C     C_R   0.639714 0.017470 0.984992 0.218376
C14   C     C_R   0.359902 0.982370 0.014855 0.217195
C15   C     C_R   0.858429 0.464744 0.512261 0.220191
C16   C     C_R   0.139592 0.532402 0.487914 0.220025
C17   C     C_R   0.671626 0.056467 0.040412 0.093607
C18   C     C_R   0.327820 0.948725 0.959250 0.091580
C19   C     C_R   0.826376 0.512775 0.457712 0.093686
C20   C     C_R   0.171953 0.479626 0.541764 0.091111
C21   C     C_R   0.601913 0.026360 0.092799 0.107726
C22   C     C_R   0.398284 0.963657 0.907493 0.106064
C23   C     C_R   0.897990 0.546962 0.408561 0.104967
C24   C     C_R   0.101295 0.458788 0.593108 0.105263
C25   C     C_R   0.568645 0.009913 0.035804 0.016387
C26   C     C_R   0.431512 0.979966 0.964693 0.017888
C27   C     C_R   0.930786 0.515367 0.465292 0.018458
C28   C     C_R   0.068028 0.491480 0.536823 0.017812
C29   C     C_R   0.589441 0.970558 0.984229 -0.107823
C30   C     C_R   0.410636 0.022555 0.016097 -0.109525
C31   C     C_R   0.910022 0.442190 0.513574 -0.105415
C32   C     C_R   0.088506 0.562191 0.488051 -0.104251
C33   C     C_R   0.515534 0.024038 0.027837 0.065978
C34   C     C_R   0.484656 0.963728 0.973012 0.066913
C35   C     C_R   0.983650 0.543087 0.475334 0.069848
C36   C     C_R   0.015094 0.465952 0.527383 0.069872
C37   C     C_R   0.507786 0.871677 0.931145 -0.202111
C38   C     C_R   0.492615 0.115040 0.070057 -0.200844
C39   C     C_R   0.993120 0.349192 0.564642 -0.197408
C40   C     C_R   0.005637 0.660774 0.438330 -0.198911
C41   C     C_R   0.559201 0.878738 0.935038 0.252628
C42   C     C_R   0.441172 0.111518 0.065698 0.252196
C43   C     C_R   0.941587 0.339735 0.559420 0.249911
C44   C     C_R   0.057126 0.667578 0.442914 0.252278
H1    H     H_    0.486150 0.786918 0.896223 0.185332
H2    H     H_    0.514530 0.196743 0.105658 0.186224
H3    H     H_    0.015960 0.257374 0.596580 0.183830
H4    H     H_    0.982861 0.753969 0.406809 0.183685
C45   C     C_R   0.649282 0.928903 0.395587 -0.232482
C46   C     C_R   0.355035 0.093327 0.611681 -0.225439
C47   C     C_R   0.858381 0.405694 0.115167 -0.232185
C48   C     C_R   0.142403 0.592999 0.885869 -0.232400
H5    H     H_    0.681222 0.837093 0.403459 0.191217
H6    H     H_    0.326708 0.199020 0.609996 0.199349
H7    H     H_    0.831626 0.295686 0.115009 0.205726
H8    H     H_    0.169594 0.701881 0.886623 0.204218
C49   C     C_R   0.613935 0.913761 0.433089 0.371019
C50   C     C_R   0.388807 0.109707 0.572309 0.376870
C51   C     C_R   0.892106 0.392990 0.075576 0.383627
C52   C     C_R   0.108576 0.605762 0.925338 0.383451
C53   C     C_R   0.571658 0.031056 0.423313 -0.247548
C54   C     C_R   0.426446 0.974178 0.573533 -0.258098
C55   C     C_R   0.928363 0.533125 0.076007 -0.253724
C56   C     C_R   0.072111 0.466300 0.924609 -0.253218
C57   C     C_R   0.565973 0.164015 0.375969 0.298896
C58   C     C_R   0.429820 0.825347 0.615510 0.323680
C59   C     C_R   0.929703 0.684329 0.116270 0.321635
C60   C     C_R   0.070526 0.315831 0.884039 0.321676
C61   C     C_R   0.602572 0.181600 0.339463 0.139877
C62   C     C_R   0.394378 0.806970 0.653727 0.168821
C63   C     C_R   0.893510 0.701439 0.153303 0.171139
C64   C     C_R   0.106591 0.299036 0.846832 0.170418
C65   C     C_R   0.644435 0.060382 0.348605 -0.265771
C66   C     C_R   0.355978 0.942041 0.651479 -0.282488
C67   C     C_R   0.856865 0.560386 0.152659 -0.284919
C68   C     C_R   0.143458 0.439415 0.847775 -0.283313
N1    N     N_R   0.484873 0.991595 0.438072 0.008970
N2    N     N_R   0.513199 0.016488 0.558913 -0.003287
N3    N     N_R   0.994955 0.361302 0.038965 0.014679
N4    N     N_R   0.005576 0.638205 0.961708 0.014495
N5    N     N_R   0.450892 0.978819 0.473196 0.021819
N6    N     N_R   0.547252 0.028456 0.523808 0.000746
N7    N     N_R   0.028230 0.344834 0.003051 0.024025
N8    N     N_R   0.972295 0.654655 0.997614 0.023850
C69   C     C_R   0.464244 0.993036 0.534263 0.301335
C70   C     C_R   0.533750 0.016896 0.462636 0.310490
C71   C     C_R   0.034106 0.482621 0.963560 0.279353
C72   C     C_R   0.966409 0.516861 0.037100 0.279660
I1    I     I_    0.586941 0.691638 0.876101 -0.148742
I2    I     I_    0.414275 0.300088 0.124946 -0.137650
I3    I     I_    0.917125 0.116277 0.608944 -0.174779
I4    I     I_    0.082330 0.890021 0.393663 -0.176357
I5    I     I_    0.421289 0.033163 0.824067 -0.317640
I6    I     I_    0.579652 0.939780 0.175001 -0.306789
I7    I     I_    0.077016 0.495322 0.677476 -0.313227
I8    I     I_    0.923470 0.515021 0.324682 -0.313005
I9    I     I_    0.249686 0.927306 0.955682 -0.223951
I10   I     I_    0.749099 0.095487 0.043131 -0.223761
I11   I     I_    0.250394 0.466124 0.544814 -0.220799
I12   I     I_    0.747371 0.503659 0.451554 -0.226073
I13   I     I_    0.663762 0.089654 0.902669 -0.086697
I14   I     I_    0.334757 0.910575 0.096521 -0.084625
I15   I     I_    0.830439 0.485974 0.594590 -0.064575
I16   I     I_    0.165459 0.508692 0.404221 -0.074959
N9    N     N_R   0.621150 0.775766 0.480243 0.250677
O21   O     O_R   0.665070 0.750223 0.513414 -0.307287
O22   O     O_R   0.584843 0.666622 0.487607 -0.307277
N10   N     N_R   0.385367 0.269709 0.533293 0.263021
O23   O     O_R   0.376505 0.432640 0.553899 -0.343098
O24   O     O_R   0.381973 0.249391 0.475334 -0.299957
N11   N     N_R   0.887932 0.239469 0.034021 0.268527
O25   O     O_R   0.872265 0.078413 0.049086 -0.338257
O26   O     O_R   0.893345 0.265702 0.978459 -0.309771
N12   N     N_R   0.112756 0.758892 0.967004 0.267741
O27   O     O_R   0.127611 0.920914 0.951674 -0.336864
O28   O     O_R   0.107712 0.732034 0.022671 -0.310218
N13   N     N_R   0.523426 0.285052 0.365752 0.253968
O29   O     O_R   0.491067 0.275153 0.315401 -0.289696
O30   O     O_R   0.514698 0.393801 0.408597 -0.300082
N14   N     N_R   0.469573 0.692419 0.619525 0.256618
O31   O     O_R   0.476411 0.603017 0.571643 -0.299783
O32   O     O_R   0.502683 0.678150 0.669137 -0.299179
N15   N     N_R   0.970279 0.813477 0.123177 0.253511
O33   O     O_R   0.005884 0.803238 0.170467 -0.294838
O34   O     O_R   0.971881 0.941074 0.082533 -0.306178
N16   N     N_R   0.029832 0.187187 0.877025 0.253641
O35   O     O_R   0.028160 0.059186 0.917523 -0.305544
O36   O     O_R   0.994155 0.198469 0.829840 -0.295174
I17   I     I_    0.592943 0.398230 0.272502 -0.166027
I18   I     I_    0.401610 0.572625 0.714065 -0.151283
I19   I     I_    0.898531 0.942239 0.210191 -0.154614
I20   I     I_    0.101122 0.059598 0.789303 -0.153677

loop_
_geom_bond_atom_site_label_1
_geom_bond_atom_site_label_2
_geom_bond_distance
_ccdc_geom_bond_type
C21   I6    2.147468 S    
O17   V3    1.753322 S    
C51   C55   1.413021 A    
O1    C5    1.321642 A    
C55   C59   1.413986 A    
O19   V1    1.755695 S    
C9    C21   1.416714 A    
O3    C7    1.323183 A    
N15   O33   1.300815 A    
C10   C18   1.406374 A    
C60   C64   1.416860 A    
C11   C23   1.416933 A    
C48   C52   1.403788 A    
C59   N15   1.433557 S    
C25   C33   1.433132 A    
N11   O25   1.300879 A    
C46   C66   1.403820 A    
C5    C12   1.487934 S    
O7    C3    1.337301 A    
C6    C11   1.486071 S    
C35   C40   1.399913 A    
C26   C30   1.419904 A    
C3    C66   1.502869 S    
C40   C44   1.393596 A    
O9    V1    1.990350 S    
N15   O34   1.300256 A    
O10   V2    1.990352 S    
C14   C18   1.407373 A    
N13   O30   1.301035 A    
O16   V4    1.972895 S    
O4    C8    1.322810 A    
C63   C67   1.424606 A    
C62   C66   1.423287 A    
C16   I16   2.144162 S    
O1    V3    1.981943 S    
O13   V1    1.973840 S    
C31   C43   1.416730 A    
C38   H2    1.080691 S    
O2    V4    1.981948 S    
O3    V1    1.978831 S    
C43   I3    2.132197 S    
C28   C36   1.435046 A    
C56   C71   1.488028 S    
C1    O15   1.343920 A    
C15   C31   1.415339 A    
C56   C60   1.413733 A    
C2    O16   1.344032 A    
N10   O23   1.300615 A    
C16   C32   1.414368 A    
O2    C6    1.320700 A    
C12   C24   1.417980 A    
C10   C22   1.417144 A    
C11   C19   1.406874 A    
C16   C20   1.408961 A    
C51   N11   1.439982 S    
C62   I18   2.145535 S    
C13   C29   1.413396 A    
C34   C37   1.399827 A    
O11   C7    1.332200 A    
O15   V3    1.972898 S    
C35   C36   1.425262 A    
O12   C8    1.333262 A    
C57   C61   1.417509 A    
N7    C71   1.358903 A    
C46   C50   1.402539 A    
C45   C49   1.404555 A    
C14   I14   2.145340 S    
C58   C62   1.420430 A    
C24   I7    2.146890 S    
C13   I13   2.145269 S    
N1    N5    1.334111 A    
C39   C43   1.393990 A    
O7    V3    1.982069 S    
C38   C42   1.392270 A    
C26   C34   1.434651 A    
C52   C56   1.412766 A    
C48   C68   1.404201 A    
C33   C38   1.399019 A    
C54   C69   1.489829 S    
C15   I15   2.143591 S    
N14   O32   1.300986 A    
C53   C70   1.490503 S    
C54   C58   1.416356 A    
C53   C57   1.415599 A    
O18   V4    1.753321 S    
C15   C19   1.408197 A    
C55   C72   1.488220 S    
N1    C70   1.358668 A    
C50   C54   1.413067 A    
C59   C63   1.417040 A    
N8    C72   1.358918 A    
C22   I5    2.150478 S    
N3    C72   1.358951 A    
O8    V4    1.982070 S    
C17   I10   2.127642 S    
C45   C65   1.403451 A    
O5    C1    1.335934 A    
C57   N13   1.434833 S    
C49   N9    1.436299 S    
C14   C30   1.413107 A    
C21   C25   1.430369 A    
O8    C4    1.334735 A    
C7    C10   1.488748 S    
C47   C67   1.403940 A    
O9    C5    1.333582 A    
C4    C65   1.497128 S    
N12   O28   1.301428 A    
C44   I4    2.131673 S    
O14   V2    1.973846 S    
C23   I8    2.148529 S    
O6    V2    1.984091 S    
C39   H3    1.080526 S    
C1    C68   1.503355 S    
C36   C39   1.399627 A    
C60   N16   1.433545 S    
N16   O36   1.300822 A    
C12   C20   1.407514 A    
C27   C35   1.434783 A    
C50   N10   1.436851 S    
O5    V1    1.984091 S    
C61   C65   1.421112 A    
N4    N8    1.333946 A    
C29   C41   1.415656 A    
N9    O21   1.300567 A    
N6    C70   1.359813 A    
C37   H1    1.080113 S    
N11   O26   1.301437 A    
N5    C69   1.358620 A    
C3    O13   1.341789 A    
C42   I2    2.132152 S    
C41   I1    2.131401 S    
C48   H8    1.078144 S    
N14   O31   1.301298 A    
O6    C2    1.336099 A    
N4    C71   1.358888 A    
C23   C27   1.431630 A    
O11   V3    1.996064 S    
C30   C42   1.415970 A    
O12   V4    1.996061 S    
C22   C26   1.433367 A    
C20   I11   2.136122 S    
C8    C9    1.489946 S    
C9    C17   1.407645 A    
O10   C6    1.333552 A    
O20   V2    1.755694 S    
C32   C44   1.415726 A    
N13   O29   1.300999 A    
C47   C51   1.403674 A    
C33   C34   1.425855 A    
C64   I20   2.146032 S    
C25   C29   1.417259 A    
C64   C68   1.424616 A    
C61   I17   2.144607 S    
N2    N6    1.335005 A    
C27   C31   1.419583 A    
C63   I19   2.145975 S    
C40   H4    1.080650 S    
C13   C17   1.409348 A    
C2    C67   1.503878 S    
O4    V2    1.978826 S    
N12   O27   1.300721 A    
C52   N12   1.439414 S    
C37   C41   1.393581 A    
C24   C28   1.431097 A    
C58   N14   1.436421 S    
N10   O24   1.300069 A    
C46   H6    1.079975 S    
C4    O14   1.341419 A    
C45   H5    1.081248 S    
N16   O35   1.300286 A    
N2    C69   1.359264 A    
N3    N7    1.333964 A    
C47   H7    1.077492 S    
C19   I12   2.140448 S    
C49   C53   1.412895 A    
C28   C32   1.418237 A    
C18   I9    2.129562 S    
N9    O22   1.301180 A    
