data_mof_unit_49384.cif
_audit_creation_date              2012-10-26T19:45:32-0400
_audit_creation_method            fapswitch 2.2
_symmetry_space_group_name_H-M    P1
_symmetry_Int_Tables_number       1
_space_group_crystal_system       triclinic
_cell_length_a                    10.828782
_cell_length_b                    9.509582
_cell_length_c                    10.765476
_cell_angle_alpha                 89.744536
_cell_angle_beta                  90.122831
_cell_angle_gamma                 89.980071
_cell_volume                      1108.58483401

loop_
_atom_site_label
_atom_site_type_symbol
_atom_type_description
_atom_site_fract_x
_atom_site_fract_y
_atom_site_fract_z
_atom_type_partial_charge
C1    C     C_R   0.262059 0.500005 0.500476 0.550397
C2    C     C_R   0.420410 0.925946 0.425745 0.014367
C3    C     C_R   0.579873 0.925184 0.574033 0.024703
C4    C     C_R   0.579985 0.074067 0.573918 0.037333
C5    C     C_R   0.502634 0.500454 0.260054 0.544332
C6    C     C_R   0.737944 0.499980 0.500660 0.559125
C7    C     C_R   0.502738 0.499641 0.740167 0.551238
C8    C     C_3   0.528335 0.652022 0.072015 -0.239137
C9    C     C_3   0.379727 0.446271 0.073084 -0.240774
C10   C     C_3   0.536971 0.650204 0.929128 -0.134105
C11   C     C_3   0.372893 0.465055 0.930522 -0.141193
C12   C     C_3   0.603057 0.387366 0.932394 -0.024378
C13   C     C_3   0.611538 0.405510 0.075824 -0.234652
C14   C     C_3   0.505286 0.501158 0.122733 -0.004128
C15   C     C_3   0.505809 0.498201 0.878790 0.001074
C16   C     C_1   0.657634 0.705757 0.887523 0.213748
C17   C     C_1   0.309869 0.344042 0.872422 0.221836
C18   C     C_1   0.726779 0.405031 0.876514 0.193018
C19   C     C_1   0.567411 0.240198 0.905664 0.210885
C20   C     C_R   0.063916 0.372201 0.504083 -0.122651
C21   C     C_R   0.063810 0.627777 0.500000 -0.132619
C22   C     C_R   0.936176 0.372189 0.504189 -0.119185
C23   C     C_R   0.936079 0.627764 0.500185 -0.121361
C24   C     C_R   0.871771 0.499967 0.501743 0.034104
C25   C     C_R   0.128223 0.499995 0.501536 0.019584
C26   C     C_R   0.420366 0.074855 0.425793 0.018065
Cu1   Cu    Cu3+1 0.500020 0.640660 0.500000 0.947403
Cu2   Cu    Cu3+1 0.500020 0.359340 0.500000 0.965367
H1    H     H_    0.613738 0.696305 0.114673 0.144496
H2    H     H_    0.608932 0.301589 0.124087 0.137036
H3    H     H_    0.112022 0.272309 0.505764 0.137905
H4    H     H_    0.111823 0.727682 0.498301 0.131979
H5    H     H_    0.888147 0.272295 0.505982 0.130935
H6    H     H_    0.887986 0.727666 0.498694 0.133409
H7    H     H_    0.356631 0.131369 0.366291 0.107228
H8    H     H_    0.356734 0.870072 0.366190 0.107116
H9    H     H_    0.369148 0.333611 0.100055 0.141885
H10   H     H_    0.643902 0.868743 0.633135 0.138741
H11   H     H_    0.644176 0.129952 0.632892 0.131673
H12   H     H_    0.450739 0.721993 0.099900 0.128816
H13   H     H_    0.302171 0.504897 0.116712 0.110568
H14   H     H_    0.466863 0.725940 0.893141 0.133659
H15   H     H_    0.312096 0.556899 0.910443 0.108767
H16   H     H_    0.701255 0.453784 0.103486 0.118316
N1    N     N_R   0.500030 0.852070 0.500030 -0.231933
N2    N     N_R   0.500030 0.147930 0.500030 -0.227317
N3    N     N_1   0.751859 0.749892 0.855089 -0.286194
N4    N     N_1   0.260116 0.249693 0.826789 -0.258440
N5    N     N_1   0.823620 0.418177 0.832617 -0.277979
N6    N     N_1   0.540176 0.124805 0.885443 -0.302323
O1    O     O_R   0.319660 0.618740 0.499990 -0.511181
O2    O     O_R   0.319660 0.381260 0.499990 -0.502617
O3    O     O_R   0.499990 0.618790 0.317690 -0.511562
O4    O     O_R   0.499990 0.381210 0.317690 -0.513780
O5    O     O_R   0.680370 0.618830 0.500010 -0.509542
O6    O     O_R   0.680370 0.381170 0.500010 -0.515476
O7    O     O_R   0.500030 0.618780 0.682310 -0.505608
O8    O     O_R   0.500030 0.381220 0.682310 -0.480975

loop_
_geom_bond_atom_site_label_1
_geom_bond_atom_site_label_2
_ccdc_geom_bond_type
C9    C14   S    
Cu1   O3    S    
C11   H15   S    
Cu2   O8    S    
C10   H14   S    
C1    O1    A    
C18   N5    T    
C5    O4    A    
C7    O8    A    
C9    H13   S    
C12   C15   S    
C6    O5    A    
C23   C24   A    
C17   N4    T    
C6    C24   S    
Cu1   N1    S    
C9    H9    S    
C7    O7    A    
Cu2   O6    S    
C2    C26   A    
C10   C16   S    
C13   C14   S    
C6    O6    A    
C1    C25   S    
Cu2   O2    S    
C19   N6    T    
Cu2   N2    S    
C5    C14   S    
C8    H1    S    
C16   N3    T    
C5    O3    A    
C21   H4    S    
C20   C22   A    
C22   C24   A    
C10   C15   S    
C9    C11   S    
C21   C23   A    
Cu1   O7    S    
Cu2   O4    S    
C4    N2    A    
C1    O2    A    
Cu1   O5    S    
C2    N1    A    
C26   N2    A    
C2    H8    S    
C3    C4    A    
C26   H7    S    
C12   C13   S    
C12   C19   S    
C8    C10   S    
C20   C25   A    
C12   C18   S    
Cu1   Cu2   S    
C22   H5    S    
C21   C25   A    
C11   C17   S    
C23   H6    S    
C8    C14   S    
C7    C15   S    
C8    H12   S    
C13   H2    S    
C4    H11   S    
C11   C15   S    
C3    N1    A    
C13   H16   S    
C3    H10   S    
Cu1   O1    S    
C20   H3    S    
