data_mof_unit_19033.cif
_audit_creation_date              2012-12-10T18:59:13-0500
_audit_creation_method            fapswitch 2.2
_symmetry_space_group_name_H-M    P1
_symmetry_Int_Tables_number       1
_space_group_crystal_system       triclinic
_cell_length_a                    9.889823
_cell_length_b                    10.781441
_cell_length_c                    16.75072
_cell_angle_alpha                 87.742309
_cell_angle_beta                  95.055998
_cell_angle_gamma                 91.26189
_cell_volume                      1777.43202552

loop_
_atom_site_label
_atom_site_type_symbol
_atom_type_description
_atom_site_fract_x
_atom_site_fract_y
_atom_site_fract_z
_atom_type_partial_charge
C1    C     C_R   0.498323 0.259595 0.499582 0.992406
C2    C     C_R   0.502609 0.738971 0.507519 0.925548
C3    C     C_R   0.392241 0.930686 0.542005 0.281065
C4    C     C_R   0.609482 0.063913 0.480539 0.292186
C5    C     C_R   0.507304 0.870698 0.519250 -0.349228
C6    C     C_R   0.496418 0.126028 0.503567 -0.368662
C7    C     C_R   0.064562 0.558249 0.438849 0.363460
C8    C     C_R   0.934072 0.433971 0.557909 0.323410
C9    C     C_R   0.920136 0.555898 0.437671 0.397123
C10   C     C_R   0.079848 0.439431 0.560512 0.387493
C11   C     C_R   0.518938 0.502891 0.653764 0.962632
C12   C     C_R   0.481579 0.499795 0.346554 0.958395
C13   C     C_R   0.532603 0.501928 0.741630 -0.335144
C14   C     C_R   0.466836 0.481629 0.260645 -0.334680
C15   C     C_R   0.430425 0.551609 0.782963 0.402008
C16   C     C_R   0.547046 0.393593 0.227900 0.436919
C17   C     C_R   0.424450 0.519712 0.863769 -0.374232
C18   C     C_R   0.521503 0.367373 0.146912 -0.371523
C19   C     C_R   0.527718 0.449472 0.905873 0.098305
C20   C     C_R   0.421169 0.431727 0.098488 0.086182
C21   C     C_R   0.641309 0.417812 0.867505 0.411481
C22   C     C_R   0.338435 0.515529 0.131794 0.409685
C23   C     C_R   0.646552 0.449069 0.785867 0.329731
C24   C     C_R   0.366601 0.546308 0.211789 0.360588
C25   C     C_R   0.390212 0.059171 0.538234 0.315470
C26   C     C_R   0.623134 0.940060 0.501024 0.289080
H1    H     H_    0.581533 0.299272 0.120863 0.195987
H2    H     H_    0.341458 0.554550 0.894033 0.219604
N1    N     N_2   0.529575 0.426890 0.989390 -0.116693
N2    N     N_2   0.414911 0.429927 0.014441 -0.123289
N3    N     N_R   0.857210 0.499970 0.500020 -0.171069
N4    N     N_R   0.142790 0.500030 0.499980 -0.177344
O1    O     O_R   0.614620 0.316750 0.500010 -0.555723
O2    O     O_R   0.385380 0.683250 0.499990 -0.588575
O3    O     O_R   0.385290 0.316780 0.500000 -0.561185
O4    O     O_R   0.614710 0.683220 0.500000 -0.598196
O5    O     O_R   0.627460 0.498830 0.616130 -0.556895
O6    O     O_R   0.372540 0.501170 0.383870 -0.562972
O7    O     O_R   0.398130 0.498850 0.616130 -0.537124
O8    O     O_R   0.601870 0.501150 0.383870 -0.546570
Zn1   Zn    Zn3+2 0.653130 0.499980 0.500000 1.073695
Zn2   Zn    Zn3+2 0.346870 0.500020 0.500000 1.087529
O9    O     O_3   0.643322 0.328419 0.277036 -0.544898
C27   C     C_3   0.772905 0.346349 0.248583 -0.090503
H3    H     H_    0.792414 0.444444 0.228497 0.150714
H4    H     H_    0.786340 0.282640 0.199506 0.120247
H5    H     H_    0.850965 0.323371 0.298335 0.214617
O10   O     O_3   0.336712 0.632022 0.744652 -0.591037
C28   C     C_3   0.370504 0.753702 0.768803 -0.200039
H6    H     H_    0.463547 0.788349 0.741677 0.163018
H7    H     H_    0.383907 0.760874 0.835165 0.133741
H8    H     H_    0.285822 0.815563 0.747507 0.236800
O11   O     O_3   0.752127 0.365847 0.911497 -0.592150
C29   C     C_3   0.745944 0.236480 0.902015 -0.273808
H9    H     H_    0.754392 0.213138 0.838521 0.187929
H10   H     H_    0.651283 0.194691 0.923749 0.151129
H11   H     H_    0.833066 0.194130 0.938703 0.183910
O12   O     O_3   0.243107 0.581480 0.083024 -0.589100
C30   C     C_3   0.116375 0.520093 0.086633 -0.237215
H12   H     H_    0.083242 0.518055 0.148522 0.185620
H13   H     H_    0.118798 0.424171 0.064501 0.151870
H14   H     H_    0.039429 0.571862 0.047062 0.191467
O13   O     O_3   0.765992 0.434806 0.750888 -0.543397
C31   C     C_3   0.844575 0.545358 0.760701 -0.156010
H15   H     H_    0.913216 0.537382 0.816755 0.165446
H16   H     H_    0.783559 0.631299 0.760920 0.120945
H17   H     H_    0.906972 0.558781 0.709361 0.177728
O14   O     O_3   0.298127 0.642591 0.241059 -0.544913
C32   C     C_3   0.373553 0.753398 0.228772 -0.277490
H18   H     H_    0.393196 0.769636 0.164692 0.185196
H19   H     H_    0.470923 0.753074 0.267527 0.122882
H20   H     H_    0.313951 0.832877 0.245399 0.174748
Cl1   Cl    Cl    0.254028 0.130936 0.579046 -0.513498
Cl2   Cl    Cl    0.789788 0.881858 0.515103 -0.597943
Cl3   Cl    Cl    0.253423 0.848744 0.581363 -0.563114
Cl4   Cl    Cl    0.731063 0.134076 0.420448 -0.559166
O15   O     O_3   0.125519 0.606929 0.373248 -0.536585
C33   C     C_3   0.146180 0.736503 0.379778 -0.087959
H21   H     H_    0.114040 0.775817 0.435538 0.161760
H22   H     H_    0.091383 0.784779 0.327287 0.145950
H23   H     H_    0.255213 0.759388 0.376948 0.189802
O16   O     O_3   0.867265 0.359123 0.611333 -0.569133
C34   C     C_3   0.893125 0.232516 0.600731 -0.024054
H24   H     H_    0.972241 0.198568 0.646934 0.185357
H25   H     H_    0.924424 0.212591 0.540305 0.198937
H26   H     H_    0.799081 0.177637 0.609548 0.171603
O17   O     O_3   0.844961 0.581548 0.365581 -0.583803
C35   C     C_3   0.817330 0.709105 0.354874 -0.149163
H27   H     H_    0.884424 0.770351 0.393023 0.177764
H28   H     H_    0.710298 0.725435 0.365414 0.189487
H29   H     H_    0.829603 0.737508 0.291516 0.147499
O18   O     O_3   0.159402 0.373555 0.618843 -0.530874
C36   C     C_3   0.139836 0.414404 0.695879 -0.147747
H30   H     H_    0.131537 0.516921 0.696839 0.180535
H31   H     H_    0.228395 0.386119 0.737128 0.187292
H32   H     H_    0.050283 0.368486 0.720226 0.178732

loop_
_geom_bond_atom_site_label_1
_geom_bond_atom_site_label_2
_ccdc_geom_bond_type
O17   C35   S    
C36   H30   S    
C35   H28   S    
O2    Zn2   S    
C1    O1    A    
C20   N2    S    
O15   C33   S    
C8    O16   S    
C22   C24   A    
C19   C21   A    
O6    Zn2   S    
C33   H22   S    
C6    C25   A    
C13   C23   A    
C7    C9    A    
C14   C24   A    
C32   H19   S    
O3    Zn2   S    
C17   C19   A    
O14   C32   S    
C28   H7    S    
C3    Cl3   S    
C25   Cl1   S    
C27   H5    S    
C7    O15   S    
C2    O2    A    
C23   O13   S    
C10   O18   S    
C30   H12   S    
C36   H31   S    
C12   O6    A    
C17   H2    S    
O4    Zn1   S    
C15   O10   S    
C27   H4    S    
O7    Zn2   S    
C29   H10   S    
C30   H13   S    
C1    C6    S    
C31   H17   S    
C3    C25   A    
C4    C6    A    
C24   O14   S    
C33   H21   S    
O12   C30   S    
O11   C29   S    
C5    C26   A    
C31   H16   S    
C12   O8    A    
C32   H20   S    
O9    C27   S    
N1    N2    D    
C34   H24   S    
C35   H29   S    
C28   H8    S    
C11   O7    A    
C16   O9    S    
C8    C10   A    
O8    Zn1   S    
C34   H25   S    
C20   C22   A    
O16   C34   S    
C36   H32   S    
C13   C15   A    
C14   C16   A    
C2    C5    S    
C19   N1    S    
C27   H3    S    
C1    O3    A    
C11   O5    A    
C2    O4    A    
C15   C17   A    
C29   H9    S    
O10   C28   S    
C30   H14   S    
C7    N4    A    
N3    Zn1   S    
C8    N3    A    
C18   H1    S    
C12   C14   S    
C3    C5    A    
C22   O12   S    
C4    C26   A    
O1    Zn1   S    
C31   H15   S    
C21   C23   A    
C9    O17   S    
C21   O11   S    
C11   C13   S    
C33   H23   S    
O18   C36   S    
C26   Cl2   S    
C18   C20   A    
O5    Zn1   S    
C32   H18   S    
C4    Cl4   S    
C9    N3    A    
O13   C31   S    
C10   N4    A    
C34   H26   S    
C35   H27   S    
C16   C18   A    
C28   H6    S    
N4    Zn2   S    
C29   H11   S    
