data_mof_unit_34294.cif
_audit_creation_date              2012-12-10T17:15:50-0500
_audit_creation_method            fapswitch 2.2
_symmetry_space_group_name_H-M    P1
_symmetry_Int_Tables_number       1
_space_group_crystal_system       triclinic
_cell_length_a                    10.312161
_cell_length_b                    10.664772
_cell_length_c                    10.590451
_cell_angle_alpha                 91.178611
_cell_angle_beta                  94.378807
_cell_angle_gamma                 81.78924
_cell_volume                      1149.34553242

loop_
_atom_site_label
_atom_site_type_symbol
_atom_type_description
_atom_site_fract_x
_atom_site_fract_y
_atom_site_fract_z
_atom_type_partial_charge
C1    C     C_R   0.446885 0.516056 0.266627 0.931837
C2    C     C_R   0.575693 0.063771 0.614779 -0.041817
C3    C     C_R   0.500004 0.129552 0.514840 -0.095389
C4    C     C_R   0.414017 0.072959 0.434049 -0.350164
C5    C     C_R   0.406600 0.946557 0.445242 0.485202
C6    C     C_R   0.501967 0.872810 0.525457 -0.201174
C7    C     C_2   0.425295 0.542585 0.131501 -0.409645
C8    C     C_2   0.511960 0.599839 0.071436 -0.118210
C9    C     C_2   0.578958 0.511950 0.870321 -0.452448
C10   C     C_2   0.500753 0.600832 0.932515 0.576735
C11   C     C_2   0.070559 0.504470 0.474987 0.085888
C12   C     C_R   0.499282 0.261095 0.499874 0.854540
C13   C     C_2   0.927113 0.516472 0.502337 0.043831
C14   C     C_R   0.553802 0.495303 0.734092 0.994585
C15   C     C_R   0.503010 0.738650 0.513032 1.017491
C16   C     C_R   0.639510 0.129990 0.711813 -0.274838
C17   C     C_R   0.703970 0.067635 0.816818 0.536731
C18   C     C_R   0.715959 0.936886 0.821388 -0.373690
C19   C     C_R   0.661822 0.864924 0.721322 0.482284
C20   C     C_R   0.582042 0.930734 0.619748 -0.080127
H1    H     H_    0.353801 0.126628 0.360481 0.152275
H2    H     H_    0.347831 0.502367 0.077011 0.163956
H3    H     H_    0.893311 0.583770 0.573489 0.132392
H4    H     H_    0.634043 0.231789 0.711410 0.164489
H5    H     H_    0.767391 0.893134 0.905368 0.174016
H6    H     H_    0.659775 0.451508 0.919800 0.110580
N1    N     N_2   0.157290 0.551390 0.551110 0.049314
N2    N     N_2   0.842740 0.448550 0.448960 0.066320
O1    O     O_R   0.568950 0.489660 0.307530 -0.589951
O2    O     O_R   0.348880 0.522640 0.340350 -0.618953
O3    O     O_R   0.610060 0.300270 0.483590 -0.650991
O4    O     O_R   0.389990 0.333260 0.516410 -0.623453
O5    O     O_R   0.651120 0.477360 0.659650 -0.622092
O6    O     O_R   0.431050 0.510340 0.692470 -0.546226
O7    O     O_R   0.610010 0.666740 0.483590 -0.589457
O8    O     O_R   0.389940 0.699730 0.516410 -0.612997
Zn1   Zn    Zn3+2 0.646940 0.477980 0.478090 0.984024
Zn2   Zn    Zn3+2 0.353060 0.522020 0.521910 0.999706
C21   C     C_R   0.108745 0.455103 0.350271 0.226030
C22   C     C_R   0.147266 0.325090 0.330657 -0.071408
C23   C     C_R   0.161201 0.277116 0.207569 -0.194624
C24   C     C_R   0.136589 0.358569 0.104119 -0.098065
C25   C     C_R   0.099368 0.488295 0.123508 -0.161550
C26   C     C_R   0.086661 0.536419 0.246409 -0.077710
H7    H     H_    0.159283 0.261015 0.409928 0.113135
H8    H     H_    0.187867 0.176501 0.191792 0.133346
H9    H     H_    0.146562 0.321245 0.009005 0.144808
H10   H     H_    0.081705 0.551504 0.043435 0.134525
H11   H     H_    0.060992 0.636862 0.262539 0.098088
O9    O     O_3   0.874938 0.390789 0.339076 -0.548398
C27   C     C_3   0.831091 0.272057 0.334434 -0.131906
H12   H     H_    0.890401 0.209919 0.268551 0.128979
H13   H     H_    0.727894 0.281081 0.294505 0.179645
H14   H     H_    0.845175 0.224222 0.428029 0.145165
O10   O     O_3   0.120658 0.580586 0.668722 -0.554021
C28   C     C_3   0.137115 0.707749 0.690729 -0.161969
H15   H     H_    0.115925 0.733330 0.789852 0.153974
H16   H     H_    0.238750 0.723912 0.678682 0.238526
H17   H     H_    0.067451 0.770765 0.626475 0.093451
O11   O     O_3   0.761366 0.134623 0.913382 -0.597290
C29   C     C_3   0.665406 0.176843 0.998533 -0.365909
H18   H     H_    0.635470 0.095581 0.047761 0.169407
H19   H     H_    0.577699 0.234837 0.950639 0.158365
H20   H     H_    0.708397 0.238281 0.071065 0.194929
O12   O     O_3   0.677794 0.733200 0.725655 -0.606666
C30   C     C_3   0.801680 0.682448 0.784454 -0.307324
H21   H     H_    0.801565 0.689974 0.888036 0.152312
H22   H     H_    0.882238 0.728342 0.750356 0.161956
H23   H     H_    0.822931 0.579860 0.764774 0.209936
O13   O     O_3   0.315701 0.891522 0.367222 -0.628629
C31   C     C_3   0.188198 0.932759 0.405158 -0.301301
H24   H     H_    0.153350 0.031617 0.374869 0.148747
H25   H     H_    0.183077 0.924327 0.509279 0.152054
H26   H     H_    0.120025 0.871697 0.358036 0.177916
O14   O     O_3   0.401561 0.680663 0.865160 -0.586912
C32   C     C_3   0.382183 0.803046 0.919469 -0.350101
H27   H     H_    0.328276 0.803103 0.006326 0.179111
H28   H     H_    0.320280 0.867485 0.851028 0.168780
H29   H     H_    0.476456 0.841898 0.938270 0.180163
C33   C     C_R   0.606195 0.678046 0.136069 0.168685
C34   C     C_R   0.740260 0.653841 0.115695 -0.097062
C35   C     C_R   0.821641 0.745963 0.146688 -0.177322
C36   C     C_R   0.772812 0.858378 0.206855 -0.115200
C37   C     C_R   0.640940 0.880902 0.232243 -0.154341
C38   C     C_R   0.557784 0.791760 0.195730 -0.163052
H30   H     H_    0.780137 0.567613 0.068416 0.130102
H31   H     H_    0.920774 0.733422 0.118012 0.118694
H32   H     H_    0.836035 0.929612 0.230103 0.120681
H33   H     H_    0.602259 0.970227 0.274290 0.135428
H34   H     H_    0.453997 0.814541 0.205228 0.179250

loop_
_geom_bond_atom_site_label_1
_geom_bond_atom_site_label_2
_ccdc_geom_bond_type
C26   H11   S    
C30   H22   S    
O10   C28   S    
C23   C24   A    
C19   C20   A    
C32   H29   S    
C25   C26   A    
C14   O5    A    
C34   C35   A    
C7    C8    D    
O2    Zn2   S    
C5    O13   S    
O7    Zn1   S    
C32   H28   S    
C5    C6    A    
N1    O10   S    
C30   H23   S    
N1    Zn2   S    
C35   H31   S    
C28   H15   S    
C13   H3    S    
C18   C19   A    
C29   H19   S    
C3    C12   S    
C6    C15   S    
N2    O9    S    
C16   C17   A    
C23   H8    S    
C13   N2    D    
O13   C31   S    
O4    Zn2   S    
C2    C16   A    
C25   H10   S    
C34   H30   S    
C36   H32   S    
C16   H4    S    
O6    Zn2   S    
C12   O4    A    
C18   H5    S    
C15   O7    A    
C9    H6    S    
O9    C27   S    
C22   H7    S    
C2    C20   A    
C27   H12   S    
C30   H21   S    
C32   H27   S    
C21   C22   A    
C31   H25   S    
C9    C14   S    
C4    C5    A    
O5    Zn1   S    
O3    Zn1   S    
O11   C29   S    
C27   H13   S    
C29   H20   S    
O14   C32   S    
C33   C38   A    
C10   O14   S    
C36   C37   A    
C11   N1    D    
C1    O1    A    
C17   C18   A    
C37   C38   A    
C11   C21   S    
C22   C23   A    
C35   C36   A    
C12   O3    A    
C37   H33   S    
C3    C4    A    
C15   O8    A    
C9    C10   D    
C1    C7    S    
C33   C34   A    
C14   O6    A    
C31   H26   S    
C38   H34   S    
C21   C26   A    
C7    H2    S    
C6    C20   A    
C28   H17   S    
C27   H14   S    
O8    Zn2   S    
C2    C3    A    
C31   H24   S    
C4    H1    S    
C11   C13   S    
N2    Zn1   S    
C1    O2    A    
C28   H16   S    
C19   O12   S    
C24   H9    S    
C29   H18   S    
C17   O11   S    
C8    C10   S    
O12   C30   S    
C24   C25   A    
O1    Zn1   S    
C8    C33   S    
