data_mof_unit_16263.cif
_audit_creation_date              2013-03-05T15:58:56-0500
_audit_creation_method            fapswitch 2.2
_symmetry_space_group_name_H-M    P1
_symmetry_Int_Tables_number       1
_space_group_crystal_system       triclinic
_cell_length_a                    10.661302
_cell_length_b                    12.719552
_cell_length_c                    13.043778
_cell_angle_alpha                 81.371084
_cell_angle_beta                  93.969055
_cell_angle_gamma                 101.58362
_cell_volume                      1711.79127012

loop_
_atom_site_label
_atom_site_type_symbol
_atom_site_description
_atom_site_fract_x
_atom_site_fract_y
_atom_site_fract_z
_atom_type_partial_charge
O1    O     O_R   0.468120 0.366740 0.627160 -0.614159
O2    O     O_R   0.510770 0.544830 0.662520 -0.632854
C1    C     C_R   0.471337 0.440158 0.689579 0.842487
O3    O     O_R   0.663880 0.410950 0.482330 -0.618689
O4    O     O_R   0.706530 0.589040 0.517700 -0.611895
C2    C     C_R   0.741539 0.500334 0.501041 0.800729
Zn1   Zn    Zn3+2 0.471520 0.381090 0.476390 0.933601
Zn2   Zn    Zn3+2 0.528480 0.618910 0.523610 0.990313
O5    O     O_R   0.489230 0.455170 0.337480 -0.632336
O6    O     O_R   0.531880 0.633260 0.372840 -0.539204
O7    O     O_R   0.293470 0.410960 0.482300 -0.632070
O8    O     O_R   0.336120 0.589050 0.517670 -0.625325
C3    C     C_R   0.513733 0.560111 0.308102 0.897420
C4    C     C_R   0.258360 0.499558 0.500491 0.853074
C5    C     C_3   0.913671 0.412137 0.586793 -0.397419
H1    H     H_    0.856617 0.331253 0.574371 0.187388
H2    H     H_    0.890932 0.427764 0.664497 0.158571
C6    C     C_3   0.057268 0.409540 0.585055 -0.405690
H3    H     H_    0.103781 0.420946 0.662763 0.158775
H4    H     H_    0.068656 0.328772 0.568281 0.192634
H5    H     H_    0.861867 0.395155 0.380964 0.203668
H6    H     H_    0.075318 0.404436 0.371500 0.177660
C7    C     C_3   0.913521 0.477359 0.394683 -0.418444
C8    C     C_3   0.958494 0.613544 0.525378 -0.204231
C9    C     C_3   0.878881 0.501863 0.501280 0.092398
H7    H     H_    0.935846 0.625650 0.604550 0.165263
C10   C     C_3   0.121487 0.500072 0.501272 0.153864
C11   C     C_3   0.058326 0.481633 0.393242 -0.385773
C12   C     C_3   0.101052 0.611152 0.526483 -0.424644
H8    H     H_    0.144637 0.625218 0.604618 0.163415
H9    H     H_    0.150798 0.678003 0.469760 0.211644
H10   H     H_    0.883240 0.535425 0.329863 0.145385
H11   H     H_    0.100876 0.548371 0.333058 0.210849
C13   C     C_R   0.525857 0.724700 0.041731 -0.165790
H12   H     H_    0.617702 0.754322 0.188868 0.195142
H13   H     H_    0.440931 0.755026 0.842669 0.153908
H14   H     H_    0.558250 0.807276 0.005447 0.145412
C14   C     C_R   0.503907 0.592438 0.195960 -0.045390
C15   C     C_R   0.411021 0.295010 0.836794 -0.201134
C16   C     C_R   0.388650 0.262490 0.941424 -0.129378
C17   C     C_R   0.388932 0.339543 0.006786 -0.181799
C18   C     C_R   0.402871 0.451070 0.966469 0.084359
C19   C     C_R   0.403848 0.481034 0.858023 0.084338
C20   C     C_R   0.430779 0.535281 0.029374 0.070825
C21   C     C_R   0.462011 0.644828 0.982947 0.160088
C22   C     C_R   0.431567 0.671272 0.878169 -0.241875
C23   C     C_R   0.393582 0.588836 0.817479 -0.205443
C24   C     C_R   0.439382 0.513763 0.136658 -0.254570
C25   C     C_R   0.555503 0.696068 0.146770 -0.091790
C26   C     C_R   0.424482 0.404723 0.794985 -0.123187
H15   H     H_    0.396863 0.435056 0.175079 0.157465
H16   H     H_    0.421840 0.234596 0.789442 0.163212
H17   H     H_    0.382595 0.309335 0.088329 0.135386
H18   H     H_    0.379339 0.177770 0.973331 0.162588
H19   H     H_    0.364051 0.611608 0.737657 0.178267
C27   C     C_R   0.280701 0.090221 0.374587 -0.179045
H20   H     H_    0.281301 0.259719 0.343063 0.129803
H21   H     H_    0.198870 0.073735 0.321847 0.206752
N1    N     N_R   0.433240 0.222190 0.444680 -0.105150
C28   C     C_R   0.660109 0.798338 0.628516 0.111614
C29   C     C_R   0.686670 0.898413 0.663844 -0.238626
C30   C     C_R   0.616901 0.977488 0.622727 -0.159482
C31   C     C_R   0.519262 0.957122 0.545328 -0.006762
C32   C     C_R   0.492570 0.853111 0.512712 0.072032
C33   C     C_R   0.452164 0.038066 0.495241 -0.059602
C34   C     C_R   0.343148 0.009631 0.428835 0.024709
C35   C     C_R   0.306937 0.904113 0.406803 0.182373
C36   C     C_R   0.392166 0.832795 0.435109 0.161696
C37   C     C_R   0.494005 0.148505 0.502292 0.002087
C38   C     C_R   0.328611 0.196682 0.383193 -0.023525
N2    N     N_R   0.566070 0.776970 0.554790 -0.118224
H22   H     H_    0.575137 0.178680 0.550921 0.113776
H23   H     H_    0.712894 0.736165 0.661477 0.133522
H24   H     H_    0.639445 0.053139 0.654174 0.129922
H25   H     H_    0.760753 0.914497 0.723645 0.149828
N3    N     N_R   0.206033 0.880543 0.329343 0.207480
O9    O     O_R   0.235117 0.885856 0.233138 -0.323929
O10   O     O_R   0.090564 0.888874 0.347790 -0.421820
N4    N     N_R   0.409159 0.776427 0.353623 0.265922
O11   O     O_R   0.315759 0.702370 0.324869 -0.410819
O12   O     O_R   0.489332 0.829616 0.284745 -0.395573
C39   C     C_2   0.928422 0.708324 0.449614 0.534979
H26   H     H_    0.936537 0.709979 0.366978 0.102046
O13   O     O_2   0.893439 0.783204 0.480821 -0.533021

loop_
_geom_bond_atom_site_label_1
_geom_bond_atom_site_label_2
_geom_bond_distance
_ccdc_geom_bond_type
C5    C6    1.539715 S    
C31   C33   1.424012 A    
C10   C12   1.557186 S    
C13   H14   1.083627 S    
C17   C18   1.418904 A    
C14   C25   1.398425 A    
C21   C22   1.389541 A    
C29   H25   1.082515 S    
Zn1   O7    2.017995 S    
C12   H8    1.114641 S    
C32   C36   1.433406 A    
C8    H7    1.116093 S    
O4    C2    1.309004 A    
O7    C4    1.314657 A    
C33   C37   1.400780 A    
C5    C9    1.554020 S    
C2    C9    1.460258 S    
C5    H1    1.113439 S    
C28   H23   1.081735 S    
C27   C38   1.366420 A    
Zn1   O5    1.915761 S    
C6    H3    1.113550 S    
C32   N2    1.392469 A    
C8    C39   1.512167 S    
C8    C12   1.525286 S    
O5    C3    1.310394 A    
C24   H15   1.075889 S    
C13   C25   1.395096 A    
H12   C25   1.079187 S    
H13   C22   1.083950 S    
H20   C38   1.082226 S    
C14   C24   1.398261 A    
C36   N4    1.408577 S    
C15   H16   1.083132 S    
H6    C11   1.113321 S    
C18   C20   1.418104 A    
O3    Zn1   2.007510 S    
Zn1   N1    2.078186 S    
C1    C26   1.470284 S    
C35   C36   1.403182 A    
C8    C9    1.565241 S    
O3    C2    1.309556 A    
C15   C16   1.388034 A    
N4    O12   1.298906 A    
C28   N2    1.356225 A    
C31   C32   1.418862 A    
C28   C29   1.387803 A    
O1    C1    1.321942 A    
C37   H22   1.077773 S    
C30   C31   1.412316 A    
Zn2   O8    2.007510 S    
C13   C21   1.402560 A    
C7    C11   1.535144 S    
N3    O9    1.302075 A    
C17   H17   1.077214 S    
C3    C14   1.461266 S    
N1    C37   1.352005 A    
C16   C17   1.391626 A    
O8    C4    1.305776 A    
C11   H11   1.112366 S    
C39   H26   1.084030 S    
C39   O13   1.221460 D    
H5    C7    1.113481 S    
C4    C10   1.461317 S    
C18   C19   1.408895 A    
C20   C21   1.416875 A    
C23   H19   1.080660 S    
C5    H2    1.113275 S    
C22   C23   1.387189 A    
Zn2   N2    2.065710 S    
O1    Zn1   1.949793 S    
O2    Zn2   1.915761 S    
C6    C10   1.548689 S    
N3    O10   1.298333 A    
O6    C3    1.325529 A    
O4    Zn2   2.017996 S    
C19   C26   1.420191 A    
C16   H18   1.082800 S    
C7    H10   1.111386 S    
O2    C1    1.314781 A    
C12   H9    1.111830 S    
C27   C34   1.409225 A    
C27   H21   1.079389 S    
C34   C35   1.387540 A    
C6    H4    1.113206 S    
C7    C9    1.553752 S    
C29   C30   1.391368 A    
N1    C38   1.342268 A    
N4    O11   1.302752 A    
C15   C26   1.402665 A    
Zn2   O6    1.949790 S    
C33   C34   1.420469 A    
C10   C11   1.548691 S    
C30   H24   1.078821 S    
C35   N3    1.441848 S    
C19   C23   1.416507 A    
C20   C24   1.385284 A    
