data_mof_unit_21999.cif
_audit_creation_date              2013-03-05T16:01:46-0500
_audit_creation_method            fapswitch 2.2
_symmetry_space_group_name_H-M    P1
_symmetry_Int_Tables_number       1
_space_group_crystal_system       triclinic
_cell_length_a                    14.777212
_cell_length_b                    14.231344
_cell_length_c                    11.520727
_cell_angle_alpha                 90.001066
_cell_angle_beta                  87.721229
_cell_angle_gamma                 89.980854
_cell_volume                      2420.88803427

loop_
_atom_site_label
_atom_site_type_symbol
_atom_site_description
_atom_site_fract_x
_atom_site_fract_y
_atom_site_fract_z
_atom_type_partial_charge
O1    O     O_R   0.367850 0.580280 0.500030 -0.618173
O2    O     O_R   0.632150 0.419720 0.499970 -0.623055
O3    O     O_R   0.632150 0.580280 0.499970 -0.617665
O4    O     O_R   0.367850 0.419720 0.500030 -0.621986
C1    C     C_R   0.327020 0.500198 0.500976 0.897972
C2    C     C_R   0.672987 0.500146 0.499474 0.897626
O5    O     O_R   0.500010 0.580270 0.334450 -0.621178
O6    O     O_R   0.499990 0.419730 0.665550 -0.618297
O7    O     O_R   0.499990 0.580270 0.665550 -0.620672
O8    O     O_R   0.500010 0.419730 0.334450 -0.617623
C3    C     C_R   0.500385 0.499999 0.282193 0.884459
C4    C     C_R   0.499595 0.500000 0.717807 0.883878
Zn1   Zn    Zn3+2 0.500000 0.607200 0.500000 0.929688
Zn2   Zn    Zn3+2 0.500000 0.392800 0.500000 0.926123
C5    C     C_1   0.500306 0.500003 0.161659 -0.196998
C6    C     C_1   0.499626 0.500004 0.838343 -0.197373
C7    C     C_1   0.500099 0.500011 0.059376 0.001853
C8    C     C_1   0.499808 0.500011 0.940626 0.001762
C9    C     C_R   0.816823 0.520986 0.393663 0.006990
C10   C     C_R   0.184065 0.516097 0.610941 0.007565
C11   C     C_R   0.769669 0.503187 0.499261 -0.120801
C12   C     C_R   0.230299 0.503402 0.503427 -0.120727
C13   C     C_R   0.810974 0.506288 0.606112 0.117569
C14   C     C_R   0.188066 0.512231 0.397835 0.118235
C15   C     C_R   0.901417 0.536084 0.608468 0.071096
C16   C     C_R   0.098035 0.543397 0.399256 0.071392
C17   C     C_R   0.952635 0.542314 0.502607 -0.098908
C18   C     C_R   0.047105 0.542274 0.505660 -0.099086
C19   C     C_R   0.909974 0.542597 0.393741 0.076502
C20   C     C_R   0.090080 0.534877 0.614047 0.076614
C21   C     C_R   0.942689 0.560300 0.712908 0.177245
C22   C     C_R   0.056857 0.576162 0.298238 0.177069
C23   C     C_R   0.037469 0.550921 0.719280 0.189846
C24   C     C_R   0.961934 0.568786 0.291428 0.192182
C25   C     C_R   0.573821 0.799450 0.455019 0.246550
C26   C     C_R   0.426191 0.200569 0.545024 0.246768
C27   C     C_R   0.426167 0.799495 0.544947 0.245018
C28   C     C_R   0.573825 0.200542 0.454966 0.245860
N1    N     N_R   0.500000 0.750030 0.500000 -0.117225
N2    N     N_R   0.500000 0.249970 0.500000 -0.117185
C29   C     C_R   0.420409 0.899409 0.530481 0.004462
C30   C     C_R   0.579602 0.100607 0.469411 0.004378
C31   C     C_R   0.579588 0.899354 0.469482 0.004441
C32   C     C_R   0.420414 0.100654 0.530535 0.004379
C33   C     C_R   0.500002 0.949744 0.499985 -0.063071
C34   C     C_R   0.500007 0.050275 0.499973 -0.063255
C35   C     C_R   0.337923 0.950240 0.544525 0.067303
C36   C     C_R   0.662084 0.049731 0.455300 0.067758
C37   C     C_R   0.662075 0.950121 0.455386 0.067482
C38   C     C_R   0.337926 0.049849 0.544615 0.067791
N3    N     N_3   0.770517 0.509968 0.287148 -0.468892
H1    H     H_    0.743434 0.442176 0.284139 0.183094
H2    H     H_    0.717686 0.558623 0.284793 0.181138
N4    N     N_3   0.232925 0.505194 0.715460 -0.469584
H3    H     H_    0.283838 0.556010 0.717576 0.181178
H4    H     H_    0.262623 0.438510 0.715828 0.183246
C39   C     C_3   0.760585 0.466240 0.712619 -0.888259
H5    H     H_    0.806826 0.446072 0.781758 0.250711
H6    H     H_    0.709240 0.517192 0.746784 0.236836
H7    H     H_    0.725583 0.400150 0.689704 0.248742
C40   C     C_3   0.237182 0.477238 0.287662 -0.891318
H8    H     H_    0.270020 0.408618 0.304437 0.246384
H9    H     H_    0.190446 0.463695 0.216696 0.252420
H10   H     H_    0.290274 0.528116 0.258445 0.237752
C41   C     C_3   0.888130 0.609483 0.809576 -0.916519
H11   H     H_    0.821131 0.633282 0.780894 0.256821
H12   H     H_    0.878506 0.562877 0.886359 0.243126
H13   H     H_    0.923596 0.674552 0.835499 0.242891
C42   C     C_3   0.112076 0.630453 0.206685 -0.918420
H14   H     H_    0.180804 0.647878 0.235308 0.257690
H15   H     H_    0.117683 0.590307 0.124066 0.244921
H16   H     H_    0.079628 0.699481 0.191209 0.241310
C43   C     C_3   0.080136 0.559350 0.836937 -0.868863
H17   H     H_    0.032034 0.576047 0.909920 0.230829
H18   H     H_    0.110316 0.491060 0.861182 0.254422
H19   H     H_    0.131655 0.616185 0.834481 0.249372
C44   C     C_3   0.917661 0.591825 0.177753 -0.870536
H20   H     H_    0.963567 0.622553 0.109956 0.230747
H21   H     H_    0.891384 0.526646 0.138444 0.254012
H22   H     H_    0.862623 0.643996 0.193368 0.248071
C45   C     C_3   0.644046 0.750021 0.378753 -0.781207
H23   H     H_    0.615725 0.688814 0.335408 0.256680
H24   H     H_    0.667550 0.796293 0.306039 0.205898
H25   H     H_    0.702754 0.728518 0.429698 0.255083
C46   C     C_3   0.355847 0.250077 0.621078 -0.783570
H26   H     H_    0.383752 0.311694 0.664116 0.258374
H27   H     H_    0.297098 0.271155 0.569962 0.252768
H28   H     H_    0.332518 0.203926 0.693999 0.206965
C47   C     C_3   0.355865 0.750075 0.621062 -0.778564
H29   H     H_    0.384085 0.688767 0.664369 0.256501
H30   H     H_    0.332329 0.796326 0.693800 0.206051
H31   H     H_    0.297198 0.728689 0.569989 0.254860
C48   C     C_3   0.644255 0.250068 0.379084 -0.782788
H32   H     H_    0.616493 0.311829 0.336133 0.259009
H33   H     H_    0.702981 0.270968 0.430328 0.252370
H34   H     H_    0.667588 0.203977 0.306088 0.206906
N5    N     N_3   0.253077 0.900883 0.548962 -0.473794
H35   H     H_    0.216522 0.919079 0.625179 0.180210
H36   H     H_    0.215985 0.919655 0.477186 0.186019
N6    N     N_3   0.746949 0.099029 0.450579 -0.474760
H37   H     H_    0.783377 0.080710 0.374311 0.180224
H38   H     H_    0.784137 0.080302 0.522288 0.185479
N7    N     N_3   0.746915 0.900691 0.450863 -0.473838
H39   H     H_    0.783408 0.918824 0.374587 0.180004
H40   H     H_    0.784074 0.919458 0.522570 0.186094
N8    N     N_3   0.253070 0.099226 0.549304 -0.474571
H41   H     H_    0.216627 0.080949 0.625566 0.180209
H42   H     H_    0.215890 0.080519 0.477588 0.185487

loop_
_geom_bond_atom_site_label_1
_geom_bond_atom_site_label_2
_geom_bond_distance
_ccdc_geom_bond_type
C15   C21   1.413143 A    
C16   C22   1.413606 A    
C48   H32   1.096185 S    
C17   C19   1.425955 A    
C43   H17   1.105011 S    
O3    C2    1.289962 A    
C45   H23   1.095487 S    
C25   C45   1.506879 S    
C10   C20   1.413282 A    
C44   H20   1.104335 S    
O5    C3    1.291191 A    
C14   C40   1.520634 S    
O1    C1    1.289556 A    
C9    C11   1.400877 A    
C14   C16   1.401729 A    
C28   C30   1.434814 A    
C24   C44   1.522707 S    
C39   H6    1.110072 S    
N8    H41   1.045022 S    
C13   C39   1.520703 S    
C30   C34   1.410009 A    
C42   H15   1.110381 S    
O7    Zn1   1.945383 S    
C45   H24   1.110445 S    
C3    C5    1.388691 S    
C1    C12   1.429134 S    
C4    C6    1.388681 S    
C41   H12   1.110286 S    
C21   C23   1.411684 A    
C47   H30   1.110441 S    
C25   C31   1.434457 A    
C40   H8    1.110688 S    
O3    Zn1   1.989894 S    
C46   H27   1.109485 S    
C48   H33   1.109511 S    
C27   C29   1.434540 A    
C43   H18   1.109516 S    
O2    C2    1.293995 A    
N5    H36   1.044768 S    
C32   C34   1.409904 A    
N5    H35   1.045005 S    
C35   C38   1.417572 A    
C44   H21   1.109278 S    
C36   N6    1.436329 S    
N4    H4    1.045501 S    
N3    H1    1.045716 S    
C26   N2    1.381476 A    
C10   N4    1.436801 S    
O8    Zn2   1.945383 S    
C31   C37   1.420905 A    
C39   H7    1.110420 S    
C46   H26   1.096045 S    
C2    C11   1.429262 S    
C19   C24   1.430415 A    
N3    H2    1.044518 S    
C22   C24   1.411937 A    
C40   H10   1.110160 S    
C25   N1    1.381577 A    
C9    N3    1.437183 S    
O6    C4    1.291181 A    
C41   H13   1.110912 S    
N6    H38   1.044768 S    
C7    C8    1.368269 S    
C29   C35   1.420894 A    
N7    H40   1.044747 S    
C30   C36   1.421231 A    
C47   H31   1.109564 S    
C31   C33   1.409752 A    
C23   C43   1.522267 S    
C36   C37   1.417590 A    
C10   C12   1.402234 A    
C48   H34   1.110464 S    
C11   C13   1.396291 A    
C43   H19   1.110548 S    
C12   C14   1.394804 A    
C26   C32   1.434652 A    
O1    Zn1   1.990147 S    
C9    C19   1.410587 A    
N7    H39   1.044997 S    
C45   H25   1.109546 S    
C46   H28   1.110464 S    
C44   H22   1.110428 S    
C32   C38   1.421189 A    
C21   C41   1.519347 S    
N4    H3    1.044723 S    
O6    Zn2   1.945368 S    
C20   C23   1.432241 A    
C40   H9    1.107952 S    
C42   H16   1.110505 S    
O4    C1    1.294176 A    
C37   N7    1.436498 S    
C5    C7    1.178489 T    
C22   C42   1.518979 S    
C26   C46   1.507221 S    
C15   C17   1.412361 A    
C16   C18   1.412804 A    
C35   N5    1.436476 S    
C27   C47   1.506953 S    
C18   C20   1.427110 A    
C27   N1    1.381519 A    
C28   N2    1.381514 A    
C39   H5    1.107665 S    
N8    H42   1.044779 S    
C28   C48   1.507438 S    
N6    H37   1.045015 S    
C13   C15   1.403579 A    
O4    Zn2   1.989896 S    
C42   H14   1.108370 S    
O2    Zn2   1.990145 S    
O7    C4    1.291200 A    
Zn1   N1    2.032663 S    
O8    C3    1.291193 A    
Zn2   N2    2.032664 S    
C33   C34   1.430703 A    
O5    Zn1   1.945370 S    
C6    C8    1.178481 T    
C41   H11   1.109014 S    
C17   C18   1.397833 A    
C38   N8    1.436339 S    
C29   C33   1.409848 A    
C47   H29   1.095621 S    
