data_mof_unit_14310.cif
_audit_creation_date              2012-12-10T18:06:48-0500
_audit_creation_method            fapswitch 2.2
_symmetry_space_group_name_H-M    P1
_symmetry_Int_Tables_number       1
_space_group_crystal_system       triclinic
_cell_length_a                    12.600168
_cell_length_b                    13.055533
_cell_length_c                    15.520634
_cell_angle_alpha                 82.284384
_cell_angle_beta                  97.816595
_cell_angle_gamma                 96.9987
_cell_volume                      2492.55893297

loop_
_atom_site_label
_atom_site_type_symbol
_atom_type_description
_atom_site_fract_x
_atom_site_fract_y
_atom_site_fract_z
_atom_type_partial_charge
C1    C     C_R   0.443153 0.307488 0.511175 0.844546
C2    C     C_R   0.570107 0.347718 0.921026 0.161878
C3    C     C_R   0.507627 0.431535 0.891504 0.089071
C4    C     C_R   0.434990 0.510908 0.335164 0.857272
C5    C     C_R   0.651301 0.329507 0.873039 -0.193627
C6    C     C_R   0.662960 0.387375 0.791737 -0.223489
C7    C     C_R   0.524660 0.491151 0.812159 -0.217638
C8    C     C_R   0.726499 0.928339 0.552740 -0.129770
C9    C     C_R   0.595888 0.801304 0.488515 -0.030375
C10   C     C_R   0.297982 0.163271 0.492699 -0.216735
C11   C     C_R   0.266013 0.058424 0.484168 0.223005
C12   C     C_R   0.392820 0.456511 0.092672 0.041433
C13   C     C_R   0.345364 0.990234 0.491803 -0.215139
C14   C     C_R   0.455800 0.026007 0.510060 0.016447
C15   C     C_R   0.481618 0.123061 0.540643 0.048300
C16   C     C_R   0.556635 0.692133 0.488704 0.875642
C17   C     C_R   0.540396 0.965605 0.506167 0.013982
C18   C     C_R   0.645634 0.994809 0.548530 0.069002
C19   C     C_R   0.665337 0.084776 0.591552 0.089069
C20   C     C_R   0.578858 0.141426 0.596351 0.137222
C21   C     C_R   0.524549 0.876403 0.461855 0.158580
C22   C     C_R   0.699982 0.829826 0.527187 -0.266205
C23   C     C_R   0.316773 0.528054 0.059220 0.097014
C24   C     C_R   0.406320 0.196343 0.518994 -0.144165
C25   C     C_R   0.134405 0.645626 0.616459 -0.336650
C26   C     C_R   0.759401 0.372453 0.404175 -0.025134
C27   C     C_R   0.855290 0.340097 0.388888 0.143041
C28   C     C_R   0.564252 0.487817 0.663926 0.853902
C29   C     C_R   0.952267 0.386534 0.427273 -0.204219
C30   C     C_R   0.952924 0.464214 0.482825 -0.003676
C31   C     C_R   0.852860 0.492688 0.497108 0.178707
C32   C     C_R   0.048086 0.514960 0.524182 -0.016544
C33   C     C_R   0.040679 0.589051 0.582396 0.088270
C34   C     C_R   0.433279 0.405206 0.029913 0.076212
C35   C     C_R   0.939932 0.606796 0.603925 0.108566
C36   C     C_R   0.848388 0.562933 0.556339 -0.204039
C37   C     C_R   0.151110 0.496643 0.508675 -0.079883
C38   C     C_R   0.233012 0.625823 0.597943 0.306739
C39   C     C_R   0.393076 0.512735 0.239732 -0.136943
C40   C     C_R   0.592290 0.461933 0.758227 -0.061826
C41   C     C_R   0.271507 0.580275 0.114617 -0.224042
C42   C     C_R   0.309237 0.576084 0.203248 0.134369
C43   C     C_R   0.435151 0.451388 0.183820 0.072076
C44   C     C_3   0.444179 0.866310 0.379679 -0.463706
C45   C     C_R   0.431382 0.454145 0.943150 0.068958
C46   C     C_3   0.497517 0.843535 0.302350 -0.869711
C47   C     C_3   0.148743 0.021234 0.461007 -0.434586
C48   C     C_3   0.084294 0.024138 0.536959 -0.779869
C49   C     C_3   0.578913 0.198459 0.675504 -0.383113
C50   C     C_3   0.493391 0.146328 0.733144 -0.843960
C51   C     C_3   0.929379 0.674460 0.675088 -0.427071
C52   C     C_3   0.828826 0.644576 0.722265 -0.843587
C53   C     C_3   0.261997 0.648798 0.252870 -0.393477
C54   C     C_3   0.156124 0.598540 0.284564 -0.788171
C55   C     C_3   0.530623 0.389202 0.219373 -0.363405
C56   C     C_R   0.353030 0.522629 0.911760 -0.208799
C57   C     C_3   0.494477 0.287221 0.273982 -0.852972
C58   C     C_R   0.291680 0.553803 0.968985 -0.192951
C59   C     C_R   0.474690 0.307923 0.047934 -0.233887
C60   C     C_R   0.547055 0.281745 0.996151 -0.240023
H1    H     H_    0.231970 0.606801 0.943085 0.149907
H2    H     H_    0.683890 0.334432 0.377561 0.166170
H3    H     H_    0.024547 0.358456 0.413970 0.150583
H4    H     H_    0.773486 0.583919 0.567067 0.229577
H5    H     H_    0.719826 0.367369 0.751983 0.173435
H6    H     H_    0.586561 0.211620 0.015913 0.162736
H7    H     H_    0.210628 0.631620 0.087091 0.147003
H8    H     H_    0.336001 0.551017 0.843274 0.169296
H9    H     H_    0.457297 0.254801 0.104694 0.181566
H10   H     H_    0.567445 0.902134 0.291007 0.281712
H11   H     H_    0.524824 0.764648 0.314140 0.246558
H12   H     H_    0.701204 0.266993 0.895883 0.156416
H13   H     H_    0.438547 0.847221 0.242224 0.246027
H14   H     H_    0.378317 0.804403 0.393663 0.215106
H15   H     H_    0.408104 0.940035 0.356878 0.224341
H16   H     H_    0.117216 0.974261 0.595858 0.257037
H17   H     H_    0.086968 0.104967 0.552805 0.271698
H18   H     H_    0.998905 0.994540 0.518533 0.256493
H19   H     H_    0.114811 0.071095 0.402458 0.225096
H20   H     H_    0.139373 0.940229 0.444122 0.204371
H21   H     H_    0.411040 0.152093 0.698233 0.267546
H22   H     H_    0.505369 0.063119 0.752784 0.272960
H23   H     H_    0.759126 0.774572 0.541527 0.164665
H24   H     H_    0.499642 0.185168 0.793195 0.258219
H25   H     H_    0.656753 0.198591 0.717853 0.233725
H26   H     H_    0.564933 0.280145 0.655563 0.219242
H27   H     H_    0.755113 0.667168 0.680012 0.245094
H28   H     H_    0.819957 0.559756 0.743810 0.273039
H29   H     H_    0.837052 0.686112 0.781144 0.257802
H30   H     H_    0.997547 0.666273 0.728027 0.221036
H31   H     H_    0.932228 0.757293 0.646453 0.207639
H32   H     H_    0.166030 0.520279 0.320432 0.263532
H33   H     H_    0.129240 0.647808 0.328740 0.238958
H34   H     H_    0.807346 0.946323 0.583904 0.175555
H35   H     H_    0.092940 0.590406 0.227857 0.249439
H36   H     H_    0.319134 0.675740 0.307504 0.224797
H37   H     H_    0.246009 0.721872 0.209710 0.189945
H38   H     H_    0.475012 0.302200 0.337986 0.267578
H39   H     H_    0.420755 0.246576 0.240992 0.245095
H40   H     H_    0.559243 0.234709 0.284871 0.257456
H41   H     H_    0.578250 0.374049 0.169224 0.205734
H42   H     H_    0.597358 0.435662 0.254218 0.223001
H43   H     H_    0.238801 0.218806 0.477753 0.161182
H44   H     H_    0.320066 0.909333 0.485052 0.154091
H45   H     H_    0.480731 0.556991 0.788063 0.174295
H46   H     H_    0.132979 0.707445 0.655930 0.163858
H47   H     H_    0.164308 0.440186 0.467877 0.129655
I1    I     I_    0.825120 0.139236 0.646070 -0.441310
I2    I     I_    0.366084 0.715803 0.660000 -0.435728
I3    I     I_    0.853075 0.218868 0.311264 -0.436374
N1    N     N_R   0.239390 0.551900 0.544730 -0.114006
N2    N     N_R   0.759950 0.448600 0.455730 -0.135900
O1    O     O_R   0.374950 0.371210 0.521360 -0.605969
O2    O     O_R   0.542050 0.338030 0.492790 -0.612321
O3    O     O_R   0.368720 0.526070 0.390200 -0.608024
O4    O     O_R   0.535820 0.492890 0.361630 -0.614592
O5    O     O_R   0.457950 0.661970 0.507210 -0.584086
O6    O     O_R   0.625050 0.628790 0.478640 -0.642842
O7    O     O_R   0.464180 0.507110 0.638370 -0.576021
O8    O     O_R   0.631280 0.473930 0.609800 -0.640068
Zn1   Zn    Zn3+2 0.388420 0.522150 0.519080 0.958194
Zn2   Zn    Zn3+2 0.611580 0.477850 0.480920 0.924870

loop_
_geom_bond_atom_site_label_1
_geom_bond_atom_site_label_2
_ccdc_geom_bond_type
C23   C58   A    
C29   H3    S    
O3    Zn1   S    
N1    Zn1   S    
C41   C42   A    
C48   H16   S    
C4    O3    A    
C11   C47   S    
C19   C20   A    
C47   H19   S    
C50   H24   S    
C41   H7    S    
C53   C54   S    
N2    Zn2   S    
C12   C23   A    
C26   C27   A    
C29   C30   A    
O4    Zn2   S    
C10   H43   S    
C9    C16   S    
C37   H47   S    
C5    H12   S    
C3    C7    A    
C51   H30   S    
C30   C31   A    
C2    C60   A    
C9    C22   A    
C27   C29   A    
C28   C40   S    
C57   H39   S    
C18   C19   A    
O6    Zn2   S    
C48   H18   S    
O5    Zn1   S    
C54   H33   S    
C51   H31   S    
C6    H5    S    
C35   C36   A    
C27   I3    S    
C44   C46   S    
C8    C22   A    
C7    C40   A    
C7    H45   S    
C19   I1    S    
C58   H1    S    
C60   H6    S    
C59   C60   A    
C13   C14   A    
C53   H36   S    
C14   C17   A    
C52   H29   S    
C1    O1    A    
C47   H20   S    
O8    Zn2   S    
C25   H46   S    
C39   C42   A    
O7    Zn1   S    
C15   C20   A    
C37   N1    A    
C51   C52   S    
C49   H25   S    
C52   H28   S    
C8    H34   S    
C45   C56   A    
C28   O8    A    
C39   C43   A    
C10   C24   A    
C56   H8    S    
C57   H40   S    
C3    C45   A    
C8    C18   A    
C13   H44   S    
C48   H17   S    
C44   H15   S    
C54   H32   S    
C20   C49   S    
C16   O6    A    
C25   C38   A    
C21   C44   S    
C47   C48   S    
C55   H42   S    
C4    C39   S    
C31   N2    A    
C17   C18   A    
C54   H35   S    
C34   C45   A    
C32   C37   A    
C38   I2    S    
C44   H14   S    
C46   H11   S    
C59   H9    S    
C43   C55   S    
C15   C24   A    
C55   C57   S    
C35   C51   S    
C34   C59   A    
C6    C40   A    
C2    C5    A    
C1    O2    A    
C12   C34   A    
C26   N2    A    
C50   H22   S    
C31   C36   A    
C49   H26   S    
C4    O4    A    
C52   H27   S    
C28   O7    A    
C12   C43   A    
C55   H41   S    
C23   C41   A    
C53   H37   S    
C32   C33   A    
C2    C3    A    
C26   H2    S    
C42   C53   S    
C16   O5    A    
C22   H23   S    
C30   C32   A    
C11   C13   A    
C9    C21   A    
C5    C6    A    
C57   H38   S    
C33   C35   A    
C56   C58   A    
C17   C21   A    
C46   H10   S    
C10   C11   A    
O2    Zn2   S    
O1    Zn1   S    
C1    C24   S    
C49   C50   S    
C14   C15   A    
C38   N1    A    
C36   H4    S    
C46   H13   S    
C50   H21   S    
C25   C33   A    
