data_mof_unit_29427.cif
_audit_creation_date              2012-12-10T17:50:39-0500
_audit_creation_method            fapswitch 2.2
_symmetry_space_group_name_H-M    P1
_symmetry_Int_Tables_number       1
_space_group_crystal_system       triclinic
_cell_length_a                    15.711249
_cell_length_b                    10.701504
_cell_length_c                    9.967824
_cell_angle_alpha                 91.571361
_cell_angle_beta                  88.080498
_cell_angle_gamma                 94.618083
_cell_volume                      1669.03751399

loop_
_atom_site_label
_atom_site_type_symbol
_atom_type_description
_atom_site_fract_x
_atom_site_fract_y
_atom_site_fract_z
_atom_type_partial_charge
C1    C     C_R   0.510465 0.262362 0.497399 0.862335
C2    C     C_R   0.663370 0.091558 0.789952 0.091391
C3    C     C_R   0.678780 0.964092 0.771955 0.020727
C4    C     C_R   0.338231 0.500028 0.501894 0.922232
C5    C     C_R   0.640462 0.894181 0.662768 0.111166
C6    C     C_R   0.576240 0.945963 0.588256 0.031956
C7    C     C_R   0.572451 0.076853 0.594595 0.004797
C8    C     C_R   0.532554 0.133302 0.489229 -0.079821
C9    C     C_R   0.510154 0.061202 0.374117 -0.119199
C10   C     C_R   0.482675 0.937306 0.393800 -0.130624
C11   C     C_R   0.518959 0.876203 0.499439 -0.126378
C12   C     C_3   0.082974 0.492911 0.506664 0.110920
C13   C     C_R   0.403234 0.313983 0.144769 -0.114061
C14   C     C_R   0.371451 0.203859 0.081400 0.136897
C15   C     C_R   0.383497 0.190632 0.943472 -0.188089
C16   C     C_R   0.504367 0.740829 0.501270 0.945288
C17   C     C_R   0.403120 0.299135 0.869007 0.168848
C18   C     C_R   0.452707 0.403695 0.929559 0.108557
C19   C     C_R   0.453115 0.406274 0.073809 0.076864
C20   C     C_R   0.545964 0.590264 0.070023 0.237257
C21   C     C_R   0.544848 0.589994 0.927462 -0.094780
C22   C     C_R   0.661568 0.496994 0.497875 0.861308
C23   C     C_3   0.969175 0.542382 0.617310 -0.082459
C24   C     C_3   0.964996 0.372556 0.486968 -0.288019
C25   C     C_3   0.029260 0.442405 0.388069 0.187258
C26   C     C_1   0.249301 0.497687 0.506146 -0.142156
C27   C     C_1   0.750151 0.493826 0.493722 -0.127370
C28   C     C_3   0.019568 0.424714 0.605762 -0.078170
C29   C     C_3   0.064602 0.385525 0.258334 -0.879162
C30   C     C_2   0.739837 0.909137 0.861590 0.356889
C31   C     C_3   0.685144 0.784651 0.605488 -0.758394
C32   C     C_2   0.414934 0.876111 0.307247 0.412122
C33   C     C_3   0.597958 0.695470 0.138681 -0.807730
C34   C     C_3   0.915857 0.491760 0.498299 0.083364
C35   C     C_3   0.315182 0.109264 0.158693 -0.922432
C36   C     C_3   0.331017 0.317060 0.777913 -0.708439
C37   C     C_3   0.954489 0.636379 0.281630 -0.875519
C38   C     C_3   0.072430 0.744485 0.535197 -0.879323
C39   C     C_2   0.937385 0.598317 0.747238 0.405859
C40   C     C_2   0.039949 0.348218 0.722360 0.388957
C41   C     C_2   0.532002 0.104269 0.235388 0.419194
C42   C     C_3   0.702588 0.172538 0.901840 -0.871627
C43   C     C_3   0.033035 0.610625 0.517892 0.099319
C44   C     C_3   0.978983 0.560127 0.398999 0.205244
C45   C     C_1   0.173942 0.495246 0.507773 0.045710
C46   C     C_1   0.825227 0.491943 0.493861 0.040384
C47   C     C_R   0.616224 0.147879 0.695808 -0.165614
H1    H     H_    0.388173 0.324604 0.249280 0.201097
H2    H     H_    0.671935 0.705000 0.672374 0.295826
H3    H     H_    0.667170 0.758940 0.501295 0.179986
H4    H     H_    0.755256 0.808885 0.599648 0.245791
H5    H     H_    0.414735 0.893570 0.200871 0.040853
H6    H     H_    0.648180 0.738240 0.069916 0.245681
H7    H     H_    0.556360 0.770230 0.170722 0.216980
H8    H     H_    0.631250 0.662138 0.224809 0.266749
H9    H     H_    0.342917 0.093840 0.257095 0.233039
H10   H     H_    0.251519 0.145594 0.177530 0.256066
H11   H     H_    0.306670 0.018271 0.102544 0.246513
H12   H     H_    0.353515 0.107514 0.894184 0.161103
H13   H     H_    0.348061 0.291481 0.672798 0.238955
H14   H     H_    0.272672 0.254447 0.801726 0.231576
H15   H     H_    0.308288 0.411656 0.796138 0.257356
H16   H     H_    0.013106 0.674760 0.226987 0.248220
H17   H     H_    0.914809 0.575544 0.212104 0.252228
H18   H     H_    0.917558 0.714880 0.319541 0.243902
H19   H     H_    0.021168 0.810145 0.540542 0.247057
H20   H     H_    0.108590 0.753570 0.629172 0.242052
H21   H     H_    0.116464 0.768087 0.448583 0.265217
H22   H     H_    0.982719 0.632886 0.821898 0.067512
H23   H     H_    0.580522 0.663776 0.872540 0.177595
H24   H     H_    0.988387 0.304237 0.783975 0.066169
H25   H     H_    0.503300 0.056449 0.149055 0.050500
H26   H     H_    0.773049 0.184237 0.886215 0.226106
H27   H     H_    0.678350 0.267370 0.906622 0.267627
H28   H     H_    0.686462 0.128369 0.999831 0.265132
H29   H     H_    0.935879 0.275134 0.473960 0.163360
H30   H     H_    0.619178 0.248773 0.699543 0.193440
H31   H     H_    0.011374 0.356932 0.190800 0.248783
H32   H     H_    0.109705 0.455698 0.207728 0.249815
H33   H     H_    0.098742 0.302125 0.281030 0.242298
H34   H     H_    0.781509 0.969047 0.924720 0.087134
N1    N     N_R   0.499210 0.498800 0.142780 -0.106739
N2    N     N_R   0.499180 0.498720 0.857170 -0.133414
O1    O     O_R   0.500000 0.316780 0.614690 -0.641102
O2    O     O_2   0.356550 0.807912 0.355963 -0.559847
O3    O     O_2   0.861097 0.604907 0.769934 -0.518840
O4    O     O_2   0.113890 0.335156 0.748791 -0.590298
O5    O     O_2   0.587831 0.188341 0.214974 -0.552063
O6    O     O_R   0.499990 0.316750 0.385360 -0.594808
O7    O     O_R   0.376780 0.500000 0.614650 -0.622202
O8    O     O_R   0.376770 0.499980 0.385310 -0.616324
O9    O     O_R   0.500010 0.683250 0.614640 -0.616016
O10   O     O_R   0.500000 0.683220 0.385310 -0.605173
O11   O     O_R   0.623230 0.500020 0.614690 -0.621142
O12   O     O_R   0.623220 0.500000 0.385350 -0.607993
O13   O     O_2   0.743915 0.796209 0.868462 -0.555318
Zn1   Zn    Zn3+2 0.500010 0.500020 0.653130 0.944160
Zn2   Zn    Zn3+2 0.499990 0.499980 0.346870 0.979927

loop_
_geom_bond_atom_site_label_1
_geom_bond_atom_site_label_2
_ccdc_geom_bond_type
C33   H8    S    
C40   H24   S    
C20   N1    A    
C1    C8    S    
C22   O11   A    
C22   O12   A    
O12   Zn2   S    
C7    C8    A    
C1    O1    A    
C42   H28   S    
C12   C28   S    
C35   H11   S    
O1    Zn1   S    
C40   O4    D    
C12   C43   S    
C5    C6    A    
C28   C40   S    
C23   C43   S    
C18   C19   A    
C32   H5    S    
C30   O13   D    
C26   C45   T    
C29   H31   S    
C38   H19   S    
C8    C9    A    
C37   H18   S    
C34   C46   S    
C17   C36   S    
C19   N1    A    
C9    C10   A    
O7    Zn1   S    
C16   O10   A    
C4    O8    A    
C13   C14   A    
C25   C29   S    
N1    Zn2   S    
C31   H2    S    
C36   H15   S    
C25   C44   S    
C37   H16   S    
O9    Zn1   S    
C17   C18   A    
C4    O7    A    
C33   H6    S    
C42   H27   S    
C13   C19   A    
C21   H23   S    
C21   N2    A    
C34   C44   S    
C24   C25   S    
C14   C35   S    
C24   H29   S    
O11   Zn1   S    
C3    C5    A    
C24   C34   S    
C7    C47   A    
C3    C30   S    
C43   C44   S    
C11   C16   S    
C29   H32   S    
C23   C34   S    
C18   N2    A    
C39   H22   S    
C23   C28   S    
C38   H20   S    
C41   H25   S    
C20   C33   S    
C27   C46   T    
C38   H21   S    
C16   O9    A    
C22   C27   S    
C47   H30   S    
C31   H3    S    
C36   H14   S    
C6    C11   A    
C37   H17   S    
C33   H7    S    
C15   C17   A    
C41   O5    D    
C42   H26   S    
C1    O6    A    
C35   H9    S    
C15   H12   S    
C24   C28   S    
C31   H4    S    
C12   C45   S    
C36   H13   S    
C13   H1    S    
C4    C26   S    
C6    C7    A    
C2    C47   A    
O6    Zn2   S    
C9    C41   S    
C12   C25   S    
C35   H10   S    
C30   H34   S    
C2    C3    A    
C38   C43   S    
C29   H33   S    
C2    C42   S    
C23   C39   S    
C32   O2    D    
O8    Zn2   S    
C10   C11   A    
C37   C44   S    
C10   C32   S    
C20   C21   A    
N2    Zn1   S    
C14   C15   A    
C39   O3    D    
O10   Zn2   S    
C5    C31   S    
