data_mof_unit_36986.cif
_audit_creation_date              2013-03-05T15:48:19-0500
_audit_creation_method            fapswitch 2.2
_symmetry_space_group_name_H-M    P1
_symmetry_Int_Tables_number       1
_space_group_crystal_system       triclinic
_cell_length_a                    10.120224
_cell_length_b                    10.470172
_cell_length_c                    16.732343
_cell_angle_alpha                 90.98806
_cell_angle_beta                  77.621452
_cell_angle_gamma                 93.787028
_cell_volume                      1727.96030645

loop_
_atom_site_label
_atom_site_type_symbol
_atom_site_description
_atom_site_fract_x
_atom_site_fract_y
_atom_site_fract_z
_atom_type_partial_charge
O1    O     O_R   0.430310 0.692580 0.506610 -0.609625
O2    O     O_R   0.569690 0.307420 0.493390 -0.608029
O3    O     O_R   0.652740 0.659410 0.485540 -0.598790
O4    O     O_R   0.347260 0.340590 0.514460 -0.597209
C1    C     C_R   0.553377 0.734496 0.501383 0.934245
C2    C     C_R   0.445343 0.265698 0.511190 0.937075
O5    O     O_R   0.375640 0.518570 0.627580 -0.619721
O6    O     O_R   0.624360 0.481430 0.372420 -0.606352
O7    O     O_R   0.598070 0.485390 0.606510 -0.623424
O8    O     O_R   0.401930 0.514610 0.393490 -0.612577
C3    C     C_R   0.483276 0.503208 0.655004 0.855469
C4    C     C_R   0.518658 0.505855 0.345244 0.901974
Zn1   Zn    Zn3+2 0.351480 0.522150 0.514070 0.919334
Zn2   Zn    Zn3+2 0.648520 0.477850 0.485930 0.921641
C5    C     C_R   0.478669 0.519212 0.741932 -0.081237
C6    C     C_R   0.535599 0.550666 0.261556 -0.086571
C7    C     C_R   0.595613 0.504571 0.772078 -0.342630
C8    C     C_R   0.438483 0.628264 0.242768 -0.338349
C9    C     C_R   0.598199 0.535612 0.853467 0.516357
C10   C     C_R   0.453854 0.678038 0.164061 0.509646
C11   C     C_R   0.478970 0.577415 0.904496 0.081035
C12   C     C_R   0.570696 0.651977 0.105273 0.074519
C13   C     C_R   0.360645 0.585745 0.875128 -0.247836
C14   C     C_R   0.672371 0.582749 0.125651 -0.225144
C15   C     C_R   0.360608 0.557755 0.794061 -0.212832
C16   C     C_R   0.654678 0.531585 0.203532 -0.205649
C17   C     C_2   0.471019 0.602913 0.990917 -0.143479
C18   C     C_2   0.571294 0.665651 0.018908 -0.107162
H1    H     H_    0.684292 0.468631 0.732296 0.153670
H2    H     H_    0.351634 0.651364 0.289556 0.160764
H3    H     H_    0.732690 0.475547 0.217941 0.161755
H4    H     H_    0.268894 0.568129 0.771946 0.165256
H5    H     H_    0.661913 0.705190 0.977615 0.162319
H6    H     H_    0.382060 0.561715 0.033166 0.149466
H7    H     H_    0.268516 0.615465 0.914942 0.152242
H8    H     H_    0.761009 0.560897 0.079651 0.171674
C19   C     C_2   0.575378 0.869720 0.519294 -0.436448
C20   C     C_2   0.419286 0.131334 0.533520 -0.435479
C21   C     C_2   0.484446 0.931893 0.575632 0.117703
C22   C     C_2   0.500243 0.071451 0.574016 0.113470
H9    H     H_    0.335756 0.078263 0.513844 0.144787
H10   H     H_    0.664536 0.921562 0.483474 0.145898
H11   H     H_    0.116042 0.418329 0.448037 0.164644
H12   H     H_    0.883447 0.580393 0.552849 0.160655
N1    N     N_2   0.846390 0.448330 0.467170 -0.194547
N2    N     N_2   0.153610 0.551670 0.532830 -0.194459
C23   C     C_2   0.925747 0.510476 0.507493 -0.143673
C24   C     C_2   0.073933 0.488736 0.493080 -0.137902
H13   H     H_    0.110210 0.617677 0.575207 0.150102
H14   H     H_    0.889956 0.382665 0.424616 0.158355
O9    O     O_3   0.360461 0.755645 0.142506 -0.609967
C25   C     C_3   0.225288 0.706614 0.171785 0.077498
H15   H     H_    0.187888 0.739772 0.235624 0.153534
H16   H     H_    0.215141 0.599895 0.169409 0.123544
C26   C     C_3   0.135675 0.757195 0.118762 -0.816064
H17   H     H_    0.169894 0.725016 0.054461 0.245209
H18   H     H_    0.028906 0.720507 0.141654 0.206485
H19   H     H_    0.140809 0.863496 0.120673 0.263991
O10   O     O_3   0.708753 0.512040 0.886991 -0.619625
C27   C     C_3   0.831761 0.563137 0.837664 0.074565
H20   H     H_    0.820324 0.657828 0.811093 0.127385
H21   H     H_    0.869856 0.494933 0.787646 0.152246
C28   C     C_3   0.937872 0.582012 0.889656 -0.848718
H22   H     H_    0.952651 0.489538 0.917086 0.264103
H23   H     H_    0.035741 0.618832 0.850985 0.206270
H24   H     H_    0.905373 0.652225 0.939338 0.242027
C29   C     C_3   0.612582 0.140832 0.609654 -0.349657
C30   C     C_3   0.672042 0.059339 0.667354 -0.388943
C31   C     C_3   0.776483 0.138660 0.704170 -0.870637
H25   H     H_    0.860512 0.177882 0.654995 0.259374
H26   H     H_    0.728278 0.218926 0.741176 0.268920
H27   H     H_    0.819249 0.077299 0.744534 0.253675
H28   H     H_    0.590496 0.020796 0.717988 0.228107
H29   H     H_    0.722551 0.977719 0.633152 0.228324
H30   H     H_    0.697362 0.173234 0.558799 0.221356
H31   H     H_    0.570648 0.225686 0.644549 0.204888
C32   C     C_3   0.362806 0.864849 0.633528 -0.360965
C33   C     C_3   0.287643 0.951042 0.701469 -0.365063
C34   C     C_3   0.175004 0.874498 0.760078 -0.903634
H32   H     H_    0.102556 0.826021 0.726247 0.252551
H33   H     H_    0.218763 0.801802 0.792503 0.264142
H34   H     H_    0.118962 0.939862 0.806289 0.258953
H35   H     H_    0.358987 0.996034 0.737139 0.228020
H36   H     H_    0.241387 0.028021 0.674019 0.230990
H37   H     H_    0.287904 0.827518 0.597766 0.217279
H38   H     H_    0.399167 0.783535 0.662935 0.204908

loop_
_geom_bond_atom_site_label_1
_geom_bond_atom_site_label_2
_geom_bond_distance
_ccdc_geom_bond_type
C26   H17   1.110932 S    
C28   H23   1.109822 S    
C1    C19   1.454743 S    
C7    H1    1.081646 S    
C32   C33   1.539461 S    
O5    C3    1.289572 A    
N2    H13   1.031017 S    
C14   H8    1.083720 S    
C27   C28   1.521730 S    
O1    C1    1.278224 A    
C21   C32   1.531216 S    
C9    C11   1.411275 A    
C14   C16   1.388713 A    
C10   O9    1.393340 S    
Zn1   N2    2.003232 S    
C5    C15   1.398555 A    
C30   H29   1.111087 S    
C19   H10   1.087502 S    
C27   H21   1.111953 S    
O4    Zn1   1.898713 S    
C31   H26   1.111016 S    
C3    C5    1.452385 S    
C33   H35   1.108875 S    
C4    C6    1.455829 S    
C30   C31   1.527074 S    
C22   C29   1.530500 S    
C2    C20   1.454354 S    
C8    H2    1.081863 S    
H11   C24   1.085214 S    
H12   C23   1.085378 S    
C15   H4    1.082664 S    
C11   C17   1.452021 S    
C28   H24   1.110529 S    
C32   H37   1.110270 S    
O10   C27   1.415584 S    
C12   C18   1.453306 S    
O2    C2    1.278414 A    
C25   H16   1.116103 S    
Zn2   N1    2.003233 S    
N1    C23   1.292955 D    
C17   H6    1.087508 S    
C6    C16   1.399384 A    
N2    C24   1.292828 D    
C29   C30   1.538684 S    
C20   H9    1.087527 S    
O4    C2    1.296612 A    
C21   C22   1.459465 S    
C34   H33   1.109760 S    
C33   C34   1.526629 S    
C9    O10   1.392003 S    
C30   H28   1.108939 S    
O9    C25   1.415451 S    
C27   H20   1.116421 S    
C31   H27   1.110498 S    
O7    Zn2   1.973764 S    
C23   C24   1.499043 S    
O6    C4    1.290416 A    
O7    C3    1.289224 A    
O3    Zn2   1.898713 S    
O8    C4    1.287822 A    
C10   C12   1.405326 A    
C32   H38   1.111678 S    
C13   H7    1.083884 S    
C26   H18   1.111130 S    
C12   C14   1.399255 A    
O1    Zn1   1.900833 S    
C25   H15   1.111752 S    
C5    C7    1.400410 A    
O6    Zn2   1.967549 S    
C16   H3    1.083220 S    
C28   H22   1.111016 S    
O3    C1    1.297097 A    
O8    Zn1   1.973764 S    
C18   H5    1.085284 S    
C34   H34   1.110360 S    
C25   C26   1.521406 S    
C11   C13   1.396638 A    
C19   C21   1.358409 D    
C20   C22   1.357948 D    
N1    H14   1.030843 S    
C7    C9    1.399923 A    
C8    C10   1.398319 A    
C13   C15   1.382865 A    
C31   H25   1.111016 S    
O2    Zn2   1.900833 S    
C34   H32   1.111092 S    
C33   H36   1.111068 S    
O5    Zn1   1.967548 S    
C29   H30   1.110767 S    
C6    C8    1.404155 A    
C26   H19   1.111000 S    
C17   C18   1.336337 D    
C29   H31   1.111761 S    
