data_mof_unit_56217.cif
_audit_creation_date              2012-12-10T17:57:49-0500
_audit_creation_method            fapswitch 2.2
_symmetry_space_group_name_H-M    P1
_symmetry_Int_Tables_number       1
_space_group_crystal_system       triclinic
_cell_length_a                    10.855476
_cell_length_b                    9.613889
_cell_length_c                    14.946482
_cell_angle_alpha                 89.235619
_cell_angle_beta                  93.225229
_cell_angle_gamma                 89.38237
_cell_volume                      1557.15165898

loop_
_atom_site_label
_atom_site_type_symbol
_atom_type_description
_atom_site_fract_x
_atom_site_fract_y
_atom_site_fract_z
_atom_type_partial_charge
C1    C     C_R   0.263508 0.500843 0.508154 0.821175
C2    C     C_R   0.737806 0.498955 0.497744 0.834836
C3    C     C_R   0.285903 0.577200 0.038465 -0.260786
C4    C     C_R   0.717118 0.429203 0.961876 -0.260770
C5    C     C_R   0.068673 0.375656 0.532920 0.172101
C6    C     C_R   0.935768 0.623111 0.488246 0.191080
C7    C     C_R   0.940018 0.371663 0.519396 0.148710
C8    C     C_R   0.061528 0.628126 0.510639 0.143474
C9    C     C_R   0.872994 0.496535 0.498414 -0.203169
C10   C     C_R   0.130219 0.502476 0.519886 -0.202178
C11   C     C_R   0.443655 0.076335 0.429859 0.249013
C12   C     C_R   0.561175 0.922310 0.567413 0.275975
C13   C     C_R   0.557311 0.070815 0.569527 0.263178
C14   C     C_R   0.443717 0.927581 0.429967 0.228454
C15   C     C_R   0.499455 0.500832 0.329229 0.788504
C16   C     C_R   0.501256 0.499450 0.670856 0.781164
C17   C     C_R   0.608828 0.465439 0.817852 -0.263923
C18   C     C_R   0.394568 0.542677 0.182400 -0.235464
C19   C     C_R   0.501012 0.499279 0.767190 -0.054542
C20   C     C_R   0.500673 0.502723 0.233056 -0.040636
C21   C     C_R   0.393155 0.535707 0.807797 -0.273753
C22   C     C_R   0.607932 0.463448 0.192597 -0.274709
C23   C     C_R   0.390656 0.538140 0.901438 0.095380
C24   C     C_R   0.611514 0.464760 0.098947 0.093808
C25   C     C_R   0.500700 0.502631 0.953234 0.023895
C26   C     C_R   0.502232 0.503219 0.047102 0.021468
C27   C     C_R   0.609350 0.465745 0.910973 0.102685
C28   C     C_R   0.393940 0.541657 0.089329 0.097055
C29   C     C_R   0.281994 0.574852 0.944755 0.085831
C30   C     C_R   0.720136 0.427835 0.055639 0.085321
Cu1   Cu    Cu3+1 0.500000 0.640660 0.500000 0.971187
Cu2   Cu    Cu3+1 0.500000 0.359340 0.500000 0.964932
H1    H     H_    0.691684 0.437972 0.784409 0.131452
H2    H     H_    0.312109 0.571879 0.215731 0.125666
H3    H     H_    0.312100 0.560502 0.765057 0.127851
H4    H     H_    0.687713 0.433755 0.235502 0.131279
H5    H     H_    0.203421 0.605095 0.072172 0.147928
H6    H     H_    0.799557 0.401265 0.928186 0.149859
N1    N     N_R   0.500000 0.852070 0.500000 -0.215790
N2    N     N_R   0.500000 0.147930 0.500000 -0.216599
O1    O     O_R   0.319640 0.618740 0.499990 -0.574938
O2    O     O_R   0.680360 0.381260 0.500010 -0.568554
O3    O     O_R   0.680360 0.618740 0.500010 -0.523035
O4    O     O_R   0.319640 0.381260 0.499990 -0.531796
O5    O     O_R   0.499970 0.618800 0.370260 -0.552707
O6    O     O_R   0.500030 0.381200 0.629740 -0.576894
O7    O     O_R   0.500030 0.618800 0.629740 -0.571858
O8    O     O_R   0.499970 0.381200 0.370260 -0.551599
C31   C     C_3   0.160370 0.610095 0.893908 -0.402185
C32   C     C_3   0.094459 0.477480 0.862337 -0.336479
C33   C     C_3   0.984669 0.510950 0.796988 -0.894042
H7    H     H_    0.919336 0.583483 0.827677 0.258721
H8    H     H_    0.016843 0.558376 0.734464 0.259856
H9    H     H_    0.935414 0.413593 0.779353 0.235128
H10   H     H_    0.159051 0.407551 0.828888 0.219992
H11   H     H_    0.061293 0.420676 0.921493 0.213991
H12   H     H_    0.098213 0.667658 0.937544 0.184629
H13   H     H_    0.175691 0.681969 0.836917 0.192271
C34   C     C_3   0.840154 0.385891 0.106517 -0.401358
C35   C     C_3   0.908902 0.513529 0.143378 -0.333809
C36   C     C_3   0.019920 0.470743 0.205331 -0.899954
H14   H     H_    0.989295 0.411649 0.264350 0.257530
H15   H     H_    0.085162 0.405458 0.168937 0.258628
H16   H     H_    0.068866 0.565075 0.229528 0.231984
H17   H     H_    0.941337 0.576522 0.086548 0.214473
H18   H     H_    0.846560 0.580147 0.181237 0.218611
H19   H     H_    0.821860 0.310336 0.160920 0.190229
H20   H     H_    0.901881 0.330081 0.061691 0.185527
N3    N     N_2   0.136305 0.253510 0.562442 -0.405611
H21   H     H_    0.102375 0.159810 0.540115 0.246618
C37   C     C_3   0.174300 0.250464 0.656746 -0.664215
H22   H     H_    0.092204 0.243315 0.697643 0.207087
H23   H     H_    0.227127 0.345177 0.675087 0.229800
H24   H     H_    0.235008 0.158442 0.671784 0.217876
N4    N     N_2   0.873243 0.745319 0.452947 -0.388721
H25   H     H_    0.910780 0.838593 0.472922 0.266960
C38   C     C_3   0.845555 0.743484 0.357134 -0.680968
H26   H     H_    0.932471 0.743643 0.321216 0.212381
H27   H     H_    0.790120 0.837387 0.336367 0.216796
H28   H     H_    0.791080 0.650273 0.338000 0.225477
N5    N     N_2   0.878158 0.242087 0.526017 -0.409547
H29   H     H_    0.906765 0.179427 0.579897 0.245355
C39   C     C_3   0.862527 0.168331 0.442307 -0.672552
H30   H     H_    0.952815 0.129052 0.421146 0.198444
H31   H     H_    0.820081 0.237585 0.388674 0.235907
H32   H     H_    0.800318 0.078904 0.450862 0.216441
N6    N     N_2   0.114134 0.760682 0.528487 -0.435642
H33   H     H_    0.176527 0.795945 0.485059 0.285033
C40   C     C_3   0.144687 0.789103 0.621775 -0.698230
H34   H     H_    0.061375 0.779182 0.661109 0.222875
H35   H     H_    0.178666 0.897220 0.628260 0.218157
H36   H     H_    0.217893 0.716411 0.649190 0.231944
N7    N     N_2   0.395576 0.149969 0.352012 -0.368813
H37   H     H_    0.425195 0.115287 0.291789 0.230570
C41   C     C_3   0.267240 0.193755 0.348734 -0.589384
H38   H     H_    0.260681 0.307929 0.337501 0.229665
H39   H     H_    0.222745 0.165776 0.411282 0.223868
H40   H     H_    0.215505 0.144378 0.291610 0.178867
N8    N     N_2   0.631887 0.845272 0.634584 -0.356035
H41   H     H_    0.592457 0.836549 0.695496 0.249991
C42   C     C_3   0.764080 0.866054 0.640993 -0.621018
H42   H     H_    0.791786 0.917946 0.704801 0.198442
H43   H     H_    0.794668 0.931062 0.584750 0.217011
H44   H     H_    0.811776 0.763473 0.640394 0.231884
N9    N     N_2   0.617975 0.137184 0.643869 -0.400770
H45   H     H_    0.670513 0.223675 0.633692 0.292495
C43   C     C_3   0.569943 0.114802 0.731597 -0.686156
H46   H     H_    0.538182 0.213903 0.759160 0.248481
H47   H     H_    0.643841 0.070697 0.778178 0.216176
H48   H     H_    0.489790 0.043673 0.728887 0.205605
N10   N     N_2   0.402249 0.857152 0.350995 -0.359060
H49   H     H_    0.457471 0.871308 0.297725 0.233880
C44   C     C_3   0.271461 0.855469 0.326112 -0.691238
H50   H     H_    0.217708 0.922028 0.369857 0.210379
H51   H     H_    0.237914 0.747092 0.330263 0.227079
H52   H     H_    0.254564 0.893519 0.255933 0.203115

loop_
_geom_bond_atom_site_label_1
_geom_bond_atom_site_label_2
_ccdc_geom_bond_type
N6    H33   S    
N7    H37   S    
C43   H47   S    
C41   H38   S    
C6    C9    A    
N5    H29   S    
C41   H40   S    
C6    N4    S    
C29   C31   S    
C38   H26   S    
N9    C43   S    
C42   H42   S    
Cu1   O3    S    
C23   C29   A    
C3    C28   A    
C19   C21   A    
C24   C26   A    
C8    C10   A    
C11   C14   A    
C31   H12   S    
C36   H15   S    
N3    C37   S    
C12   N8    S    
C5    N3    S    
C34   H19   S    
C14   N1    A    
C39   H30   S    
C13   N2    A    
C43   H46   S    
C40   H35   S    
C36   H14   S    
C44   H52   S    
C11   N7    S    
Cu2   N2    S    
C35   H18   S    
C34   C35   S    
C42   H43   S    
Cu1   O7    S    
Cu2   O8    S    
C11   N2    A    
C17   H1    S    
C15   O8    A    
C16   O7    A    
N5    C39   S    
C38   H27   S    
C14   N10   S    
C33   H7    S    
C17   C27   A    
C18   C28   A    
C13   N9    S    
C16   O6    A    
C5    C7    A    
C6    C8    A    
C25   C26   A    
C32   H11   S    
C31   H13   S    
C35   C36   S    
C33   H8    S    
C36   H16   S    
N4    H25   S    
C34   H20   S    
N4    C38   S    
C1    O4    A    
N8    H41   S    
C2    O3    A    
C15   C20   S    
C30   C34   S    
C32   C33   S    
Cu2   O4    S    
N10   C44   S    
C40   H36   S    
C18   H2    S    
C1    O1    A    
C39   H31   S    
C4    H6    S    
C35   H17   S    
C42   H44   S    
C21   C23   A    
C43   H48   S    
C22   C24   A    
C15   O5    A    
C4    C27   A    
C37   H23   S    
C44   H50   S    
C38   H28   S    
C7    C9    A    
Cu1   O1    S    
N10   H49   S    
C7    N5    S    
Cu2   O6    S    
Cu1   Cu2   S    
C1    C10   S    
C20   C22   A    
C37   H24   S    
C41   H39   S    
C21   H3    S    
C25   C27   A    
C22   H4    S    
N9    H45   S    
C26   C28   A    
C32   H10   S    
C33   H9    S    
C8    N6    S    
C12   N1    A    
N6    C40   S    
C37   H22   S    
C3    C29   A    
C2    O2    A    
C16   C19   S    
C17   C19   A    
Cu1   N1    S    
C18   C20   A    
C23   C25   A    
N3    H21   S    
C24   C30   A    
C5    C10   A    
C39   H32   S    
C12   C13   A    
C3    H5    S    
N7    C41   S    
C31   C32   S    
Cu1   O5    S    
Cu2   O2    S    
C40   H34   S    
C2    C9    S    
N8    C42   S    
C4    C30   A    
C44   H51   S    
