data_mof_unit_9832.cif
_audit_creation_date              2012-10-26T20:43:35-0400
_audit_creation_method            fapswitch 2.2
_symmetry_space_group_name_H-M    P1
_symmetry_Int_Tables_number       1
_space_group_crystal_system       triclinic
_cell_length_a                    10.798543
_cell_length_b                    9.782865
_cell_length_c                    23.490838
_cell_angle_alpha                 90.206
_cell_angle_beta                  94.333184
_cell_angle_gamma                 91.06271
_cell_volume                      2474.03807845

loop_
_atom_site_label
_atom_site_type_symbol
_atom_type_description
_atom_site_fract_x
_atom_site_fract_y
_atom_site_fract_z
_atom_type_partial_charge
C1    C     C_R   0.263142 0.498900 0.500814 0.530282
C2    C     C_R   0.554620 0.406004 0.706118 -0.154993
C3    C     C_R   0.472069 0.402921 0.234345 -0.054546
C4    C     C_R   0.554177 0.415132 0.765310 -0.053202
C5    C     C_R   0.509407 0.524879 0.209215 0.240214
C6    C     C_R   0.497059 0.524995 0.790512 0.237974
C7    C     C_R   0.058656 0.384589 0.481223 -0.138991
C8    C     C_R   0.943552 0.608884 0.526367 -0.144132
C9    C     C_R   0.930398 0.386687 0.480125 -0.135443
C10   C     C_R   0.071551 0.608085 0.526289 -0.134023
C11   C     C_R   0.871983 0.500113 0.501897 0.017856
C12   C     C_R   0.737334 0.500724 0.500729 0.530037
C13   C     C_R   0.129434 0.496943 0.502736 0.021749
C14   C     C_R   0.429807 0.069979 0.459397 0.121599
C15   C     C_R   0.586670 0.930060 0.533016 0.117030
C16   C     C_R   0.569836 0.073582 0.540694 0.120844
C17   C     C_R   0.412073 0.925841 0.467332 0.118078
C18   C     C_R   0.501747 0.500525 0.391249 0.531751
C19   C     C_R   0.499630 0.500762 0.608665 0.529559
C20   C     C_R   0.609267 0.550886 0.883227 0.398796
C21   C     C_R   0.395466 0.525730 0.116515 0.398779
C22   C     C_R   0.388184 0.523850 0.876931 0.400904
C23   C     C_R   0.547265 0.637066 0.243768 -0.059468
C24   C     C_R   0.616796 0.549625 0.122873 0.400770
C25   C     C_R   0.387440 0.527684 0.936608 0.029632
C26   C     C_R   0.616974 0.553747 0.063176 0.029335
C27   C     C_R   0.501204 0.541578 0.969816 -0.028318
C28   C     C_R   0.503072 0.541676 0.029952 -0.028401
C29   C     C_R   0.613205 0.553979 0.943040 0.029980
C30   C     C_R   0.391127 0.528307 0.056715 0.029725
C31   C     C_R   0.276200 0.516024 0.963756 -0.122511
C32   C     C_R   0.728041 0.567575 0.036019 -0.122562
C33   C     C_R   0.278009 0.516530 0.023196 -0.123282
C34   C     C_R   0.439785 0.625505 0.755960 -0.058778
C35   C     C_R   0.726162 0.567878 0.976567 -0.123232
C36   C     C_3   0.398731 0.119864 0.398892 -0.224978
C37   C     C_3   0.279331 0.202071 0.388782 -0.397158
C38   C     C_3   0.712122 0.875866 0.554701 -0.232678
C39   C     C_3   0.712514 0.792274 0.609917 -0.382503
C40   C     C_3   0.617386 0.131600 0.598635 -0.225954
C41   C     C_3   0.737875 0.217590 0.599100 -0.384925
C42   C     C_3   0.286737 0.865891 0.443727 -0.217238
C43   C     C_3   0.287749 0.780573 0.388881 -0.371392
C44   C     C_R   0.546330 0.627655 0.302954 -0.148853
C45   C     C_R   0.439779 0.616135 0.696719 -0.147650
C46   C     C_R   0.507119 0.505874 0.328563 0.000954
C47   C     C_R   0.496844 0.505890 0.671204 0.001250
C48   C     C_R   0.470826 0.393607 0.293462 -0.153524
Cu1   Cu    Cu3+1 0.500000 0.640660 0.500000 0.911958
Cu2   Cu    Cu3+1 0.500000 0.359340 0.500000 0.920505
H1    H     H_    0.187484 0.505624 0.939204 0.170534
H2    H     H_    0.603644 0.323335 0.688330 0.107514
H3    H     H_    0.442820 0.315538 0.207902 0.132300
H4    H     H_    0.599270 0.337340 0.791726 0.135655
H5    H     H_    0.101844 0.296227 0.464618 0.116094
H6    H     H_    0.902426 0.692804 0.546976 0.108163
H7    H     H_    0.877102 0.300073 0.461932 0.128078
H8    H     H_    0.125177 0.693080 0.545633 0.117764
H9    H     H_    0.202415 0.157320 0.411184 0.119823
H10   H     H_    0.291129 0.310102 0.401448 0.190928
H11   H     H_    0.249386 0.200915 0.342502 0.121455
H12   H     H_    0.816802 0.577327 0.060575 0.170591
H13   H     H_    0.482158 0.167879 0.383018 0.162663
H14   H     H_    0.386819 0.031564 0.369239 0.101281
H15   H     H_    0.628083 0.810020 0.632897 0.160340
H16   H     H_    0.721141 0.681752 0.601505 0.173617
H17   H     H_    0.794309 0.822620 0.639066 0.116371
H18   H     H_    0.755699 0.828029 0.519209 0.163209
H19   H     H_    0.779274 0.961585 0.563641 0.097488
H20   H     H_    0.788825 0.197652 0.560715 0.155389
H21   H     H_    0.719911 0.328075 0.602461 0.173791
H22   H     H_    0.800275 0.191543 0.637143 0.115361
H23   H     H_    0.190630 0.506490 0.042745 0.167400
H24   H     H_    0.541189 0.178269 0.619687 0.164811
H25   H     H_    0.637135 0.047291 0.629122 0.101074
H26   H     H_    0.373797 0.798911 0.366933 0.153242
H27   H     H_    0.275930 0.670230 0.397638 0.176280
H28   H     H_    0.208142 0.808554 0.358688 0.120021
H29   H     H_    0.235911 0.817611 0.477315 0.159850
H30   H     H_    0.221990 0.949380 0.433486 0.095700
H31   H     H_    0.813541 0.577857 0.957014 0.167130
H32   H     H_    0.576304 0.731886 0.224715 0.133079
H33   H     H_    0.395960 0.711223 0.775058 0.135815
H34   H     H_    0.576114 0.716124 0.328625 0.127472
H35   H     H_    0.395011 0.695111 0.670818 0.126720
H36   H     H_    0.438583 0.299596 0.310852 0.111424
N1    N     N_R   0.498065 0.534555 0.851531 -0.399238
N2    N     N_R   0.507197 0.534828 0.148225 -0.399437
N3    N     N_R   0.500000 0.852070 0.500000 -0.225163
N4    N     N_R   0.500000 0.147930 0.500000 -0.225090
O1    O     O_R   0.319640 0.618740 0.500000 -0.517090
O2    O     O_2   0.288937 0.514318 0.142843 -0.495065
O3    O     O_2   0.280241 0.507398 0.844554 -0.493305
O4    O     O_2   0.725283 0.558162 0.155311 -0.492341
O5    O     O_R   0.680360 0.381260 0.500000 -0.505291
O6    O     O_R   0.680360 0.618740 0.500000 -0.510822
O7    O     O_R   0.319640 0.381260 0.500000 -0.498427
O8    O     O_R   0.499960 0.618810 0.417880 -0.501914
O9    O     O_R   0.500040 0.381190 0.582120 -0.505653
O10   O     O_R   0.500040 0.618810 0.582120 -0.503140
O11   O     O_R   0.499960 0.381190 0.417880 -0.510988
O12   O     O_2   0.715624 0.564281 0.856890 -0.496288

loop_
_geom_bond_atom_site_label_1
_geom_bond_atom_site_label_2
_ccdc_geom_bond_type
C25   C31   A    
C16   N4    A    
C23   H32   S    
C27   C29   A    
C2    C4    A    
C7    H5    S    
C8    H6    S    
C35   H31   S    
C43   H28   S    
C26   C32   A    
Cu2   O9    S    
C43   H27   S    
C36   C37   S    
C10   H8    S    
C24   C26   A    
C14   C36   S    
C38   C39   S    
C19   C47   S    
Cu2   O5    S    
C20   O12   S    
C15   C16   A    
C20   N1    A    
C3    C48   A    
C17   C42   S    
C14   N4    A    
Cu1   O8    S    
C5    N2    S    
Cu2   N4    S    
C22   C25   A    
C31   C33   A    
C12   O5    A    
C36   H13   S    
C41   H21   S    
C21   N2    A    
C42   H29   S    
C1    O1    A    
C39   H15   S    
C14   C17   A    
Cu1   O1    S    
C18   C46   S    
C44   C46   A    
C20   C29   A    
C45   C47   A    
C46   C48   A    
C32   C35   A    
C17   N3    A    
C4    C6    A    
C31   H1    S    
C19   O9    A    
C3    C5    A    
C23   C44   A    
C6    C34   A    
C18   O11   A    
C45   H35   S    
C15   C38   S    
C24   O4    S    
C15   N3    A    
C24   N2    A    
C5    C23   A    
C11   C12   S    
C34   C45   A    
C22   N1    A    
C9    C11   A    
C37   H9    S    
C2    H2    S    
C16   C40   S    
C41   H22   S    
C33   H23   S    
C40   C41   S    
C38   H18   S    
C39   H16   S    
C48   H36   S    
C1    C13   S    
C34   H33   S    
C1    O7    A    
C43   H26   S    
C7    C9    A    
Cu2   O7    S    
C30   C33   A    
C4    H4    S    
C39   H17   S    
Cu1   N3    S    
C44   H34   S    
C10   C13   A    
C37   H11   S    
C19   O10   A    
C2    C47   A    
C25   C27   A    
C21   C30   A    
C29   C35   A    
C26   C28   A    
C40   H25   S    
C28   C30   A    
C32   H12   S    
C42   H30   S    
Cu1   O10   S    
C3    H3    S    
C8    C11   A    
C22   O3    S    
C40   H24   S    
C9    H7    S    
Cu1   O6    S    
C38   H19   S    
C37   H10   S    
C6    N1    S    
C7    C13   A    
Cu2   O11   S    
C8    C10   A    
Cu1   Cu2   S    
C42   C43   S    
C27   C28   A    
C12   O6    A    
C18   O8    A    
C36   H14   S    
C41   H20   S    
C21   O2    S    
