data_mof_unit_43173.cif
_audit_creation_date              2013-03-05T15:48:11-0500
_audit_creation_method            fapswitch 2.2
_symmetry_space_group_name_H-M    P1
_symmetry_Int_Tables_number       1
_space_group_crystal_system       triclinic
_cell_length_a                    20.867067
_cell_length_b                    7.128293
_cell_length_c                    14.103687
_cell_angle_alpha                 90.435632
_cell_angle_beta                  98.214403
_cell_angle_gamma                 89.323852
_cell_volume                      2076.1698719

loop_
_atom_site_label
_atom_site_type_symbol
_atom_site_description
_atom_site_fract_x
_atom_site_fract_y
_atom_site_fract_z
_atom_type_partial_charge
O1    O     O_R   0.447130 0.507140 0.597350 -0.581190
O2    O     O_R   0.552870 0.007140 0.402650 -0.592954
O3    O     O_R   0.578910 0.181280 0.586990 -0.594530
O4    O     O_R   0.421090 0.681280 0.413010 -0.582761
C1    C     C_R   0.604517 0.344093 0.607270 1.024365
C2    C     C_R   0.395495 0.844905 0.392698 1.025461
O5    O     O_R   0.449230 0.177860 0.608640 -0.590526
O6    O     O_R   0.550770 0.677860 0.391360 -0.579200
O7    O     O_R   0.422260 0.000770 0.424450 -0.595493
O8    O     O_R   0.577740 0.500770 0.575550 -0.583736
C3    C     C_R   0.432762 0.347617 0.634146 1.064745
C4    C     C_R   0.567427 0.844916 0.365955 1.064729
O9    O     O_3   0.491310 0.336980 0.439550 -0.279834
O10   O     O_3   0.508690 0.836980 0.560450 -0.278445
V1    V     V_3+5 0.501610 0.064760 0.511210 1.256494
V2    V     V_3+5 0.498390 0.564760 0.488790 1.275696
C5    C     C_R   0.614161 0.819306 0.118382 0.449461
C6    C     C_R   0.385497 0.430026 0.878642 0.447959
H1    H     H_    0.699049 0.853423 0.994058 0.208188
H2    H     H_    0.300877 0.421111 0.004560 0.210310
C7    C     C_R   0.605751 0.847017 0.287337 -0.351857
C8    C     C_R   0.394449 0.363615 0.712484 -0.348694
C9    C     C_R   0.918234 0.839197 0.302599 0.313015
C10   C     C_R   0.082119 0.356121 0.697298 0.310644
C11   C     C_R   0.881784 0.785112 0.373416 0.432996
C12   C     C_R   0.118224 0.393759 0.623578 0.434929
C13   C     C_R   0.814751 0.759181 0.350818 0.281985
C14   C     C_R   0.184932 0.426711 0.644436 0.280572
C15   C     C_R   0.781899 0.810846 0.258881 -0.064077
C16   C     C_R   0.218051 0.397900 0.738970 -0.067572
C17   C     C_R   0.819619 0.848746 0.184489 -0.137687
C18   C     C_R   0.180565 0.376603 0.815279 -0.139910
C19   C     C_R   0.712802 0.822120 0.237399 0.162873
C20   C     C_R   0.287161 0.394379 0.760929 0.161607
C21   C     C_R   0.682556 0.822290 0.140619 -0.144031
C22   C     C_R   0.317224 0.418223 0.856989 -0.144518
C23   C     C_R   0.720887 0.840052 0.068081 -0.149129
C24   C     C_R   0.278998 0.415846 0.930253 -0.150010
C25   C     C_R   0.787095 0.869676 0.089339 0.346966
C26   C     C_R   0.213131 0.379122 0.911153 0.341914
C27   C     C_R   0.673045 0.849169 0.309054 -0.195901
C28   C     C_R   0.327290 0.352311 0.691364 -0.199157
C29   C     C_R   0.575967 0.827980 0.192380 0.391886
C30   C     C_R   0.423856 0.407114 0.805444 0.390155
C31   C     C_R   0.888378 0.860205 0.207422 -0.377386
C32   C     C_R   0.111960 0.358715 0.793134 -0.377991
H3    H     H_    0.693502 0.878612 0.382295 0.189276
H4    H     H_    0.307274 0.304316 0.620611 0.189041
C33   C     C_1   0.166143 0.855623 0.169399 -0.104271
C34   C     C_1   0.833973 0.358460 0.830252 -0.110812
C35   C     C_1   0.218588 0.853872 0.220461 0.148924
C36   C     C_1   0.781520 0.355741 0.779230 0.142768
C37   C     C_1   0.280453 0.853618 0.280176 0.137384
C38   C     C_1   0.719609 0.353206 0.719633 0.134681
C39   C     C_1   0.332962 0.852003 0.331089 -0.204713
C40   C     C_1   0.667069 0.350232 0.668827 -0.205010
O11   O     O_R   0.922300 0.202240 0.924350 -0.543607
O12   O     O_R   0.077700 0.702240 0.075650 -0.569879
O13   O     O_R   0.050780 0.535130 0.891350 -0.598270
O14   O     O_R   0.949220 0.035130 0.108650 -0.568239
C41   C     C_R   0.069541 0.367432 0.867940 1.106856
C42   C     C_R   0.930703 0.869130 0.132510 1.108488
O15   O     O_R   0.921100 0.531560 0.912990 -0.576865
O16   O     O_R   0.078900 0.031560 0.087010 -0.550146
O17   O     O_R   0.947120 0.708470 0.097370 -0.599039
O18   O     O_R   0.052880 0.208470 0.902630 -0.571014
C43   C     C_R   0.896277 0.363985 0.892499 1.026886
C44   C     C_R   0.103801 0.862933 0.107289 1.022647
O19   O     O_3   0.008710 0.375800 0.060400 -0.272020
O20   O     O_3   0.991290 0.875800 0.939600 -0.272346
V3    V     V_3+5 0.998380 0.648080 0.988790 1.318154
V4    V     V_3+5 0.001620 0.148080 0.011210 1.352271
Cl1   Cl    Cl    0.490542 0.823664 0.166240 -0.497032
Cl2   Cl    Cl    0.509078 0.424845 0.830654 -0.498907
Cl3   Cl    Cl    0.575200 0.807393 0.998425 -0.436938
Cl4   Cl    Cl    0.424137 0.470386 0.997026 -0.436427
Cl5   Cl    Cl    0.003146 0.864168 0.331913 -0.479618
Cl6   Cl    Cl    0.997510 0.322164 0.669757 -0.482577
Cl7   Cl    Cl    0.777213 0.623143 0.431834 -0.574061
Cl8   Cl    Cl    0.221346 0.543890 0.555533 -0.571285
Cl9   Cl    Cl    0.921273 0.738545 0.490521 -0.345689
Cl10  Cl    Cl    0.078589 0.411114 0.504350 -0.342748
N1    N     N_R   0.817513 0.950512 0.015499 0.209358
O21   O     O_R   0.818680 0.132448 0.011520 -0.425904
O22   O     O_R   0.823705 0.852556 0.939064 -0.403681
N2    N     N_R   0.183234 0.317516 0.989974 0.212339
O23   O     O_R   0.180615 0.137857 0.003308 -0.420052
O24   O     O_R   0.180106 0.430373 0.062092 -0.408281

loop_
_geom_bond_atom_site_label_1
_geom_bond_atom_site_label_2
_geom_bond_distance
_ccdc_geom_bond_type
C29   Cl1   1.768547 S    
C16   C18   1.427962 A    
C9    C31   1.405120 A    
C33   C44   1.461450 S    
C13   C15   1.426245 A    
C1    C40   1.461617 S    
C20   C28   1.406455 A    
C2    C39   1.461296 S    
O2    C4    1.313333 A    
C2    O7    1.297121 A    
O5    C3    1.315556 A    
O16   C44   1.320862 A    
C21   C23   1.393065 A    
C10   C12   1.397672 A    
C13   Cl7   1.774842 S    
N2    O24   1.300496 A    
O12   V3    1.953936 S    
O14   V4    2.049254 S    
C15   C19   1.431772 A    
C31   C42   1.472877 S    
O14   C42   1.310237 A    
C26   N2    1.424751 S    
O19   V3    2.188898 S    
H1    C23   1.082223 S    
C7    C29   1.399866 A    
C41   O18   1.307890 A    
C8    C30   1.400011 A    
O18   V4    2.040476 S    
C33   C35   1.221090 T    
O1    C3    1.309103 A    
C34   C36   1.221250 T    
O20   V3    1.766431 S    
C34   C43   1.461874 S    
O5    V1    2.030867 S    
O6    V2    2.049319 S    
C11   Cl9   1.769184 S    
O11   C43   1.322649 A    
C36   C38   1.437305 S    
C12   Cl10  1.769260 S    
O15   C43   1.321091 A    
C37   C39   1.221201 T    
C38   C40   1.221365 T    
O13   C41   1.308108 A    
C16   C20   1.431033 A    
C32   C41   1.471398 S    
O4    C2    1.293982 A    
N2    O23   1.298727 A    
O17   V3    2.030214 S    
C4    C7    1.457108 S    
C35   C37   1.437047 S    
O4    V2    1.980721 S    
O19   V4    1.759932 S    
C5    C29   1.401353 A    
C6    C30   1.401305 A    
H2    C24   1.082230 S    
N1    O21   1.299193 A    
O6    C4    1.311144 A    
C27   H3    1.079857 S    
O1    V2    2.035933 S    
C28   H4    1.079966 S    
C9    Cl5   1.771747 S    
C30   Cl2   1.768846 S    
O2    V1    2.026118 S    
C7    C27   1.394079 A    
O12   C44   1.321121 A    
N1    O22   1.301011 A    
O15   V3    1.989660 S    
C18   C26   1.424027 A    
O3    V1    1.989849 S    
C10   Cl6   1.771798 S    
C6    Cl4   1.770351 S    
C42   O17   1.305818 A    
C18   C32   1.428004 A    
O3    C1    1.296226 A    
C11   C13   1.403612 A    
C3    C8    1.456429 S    
C12   C14   1.403239 A    
C19   C27   1.406979 A    
C22   C24   1.392965 A    
O7    V1    1.969110 S    
C25   N1    1.423421 S    
C1    O8    1.296578 A    
C15   C17   1.427823 A    
O8    V2    1.964362 S    
C24   C26   1.389902 A    
C8    C28   1.393629 A    
C14   C16   1.426510 A    
C19   C21   1.419610 A    
C17   C25   1.422717 A    
C20   C22   1.419179 A    
O16   V4    1.980536 S    
O11   V4    1.949893 S    
C14   Cl8   1.774933 S    
C9    C11   1.398067 A    
C23   C25   1.389525 A    
C17   C31   1.428173 A    
O9    V2    1.760583 S    
C5    Cl3   1.771125 S    
O10   V1    1.767095 S    
O20   V4    2.179773 S    
C5    C21   1.417179 A    
C6    C22   1.417067 A    
O13   V3    2.030822 S    
C10   C32   1.405141 A    
