data_mof_unit_11752.cif
_audit_creation_date              2012-12-11T14:08:11-0500
_audit_creation_method            fapswitch 2.2
_symmetry_space_group_name_H-M    P1
_symmetry_Int_Tables_number       1
_space_group_crystal_system       triclinic
_cell_length_a                    10.939571
_cell_length_b                    11.011137
_cell_length_c                    18.702801
_cell_angle_alpha                 90.323711
_cell_angle_beta                  89.818687
_cell_angle_gamma                 59.910174
_cell_volume                      1949.20970972

loop_
_atom_site_label
_atom_site_type_symbol
_atom_type_description
_atom_site_fract_x
_atom_site_fract_y
_atom_site_fract_z
_atom_type_partial_charge
C1    C     C_R   0.241823 0.643530 0.610009 0.532428
C2    C     C_3   0.644211 0.554468 0.812430 -0.269022
C3    C     C_3   0.686925 0.668888 0.816156 0.066098
C4    C     C_3   0.648329 0.623039 0.683840 0.020301
C5    C     C_3   0.805960 0.577646 0.695862 -0.181082
C6    C     C_3   0.605943 0.540187 0.735007 -0.270155
C7    C     C_2   0.672663 0.163527 0.672393 -0.130373
C8    C     C_2   0.685377 0.171986 0.829246 -0.120083
C9    C     C_2   0.796851 0.135847 0.785967 -0.187143
C10   C     C_2   0.778908 0.163552 0.708495 -0.194231
C11   C     C_2   0.196813 0.657776 0.684318 -0.120953
C12   C     C_R   0.628677 0.589916 0.609743 0.551054
C13   C     C_2   0.199890 0.658256 0.841346 -0.117815
C14   C     C_2   0.201932 0.555350 0.801709 -0.146475
C15   C     C_2   0.230706 0.544075 0.724422 -0.156575
C16   C     C_2   0.650392 0.646867 0.317466 -0.091905
C17   C     C_2   0.633363 0.666817 0.159859 -0.111644
C18   C     C_2   0.707163 0.547208 0.195547 -0.162290
C19   C     C_2   0.688543 0.538202 0.271992 -0.148453
C20   C     C_2   0.674074 0.139325 0.333138 -0.110476
C21   C     C_2   0.651579 0.146760 0.178964 -0.098114
C22   C     C_2   0.608374 0.077479 0.221682 -0.152242
C23   C     C_R   0.627729 0.229204 0.602407 0.542102
C24   C     C_2   0.591921 0.102319 0.297982 -0.162991
C25   C     C_2   0.121978 0.681565 0.345061 -0.106151
C26   C     C_2   0.112535 0.691816 0.190810 -0.089558
C27   C     C_2   0.042092 0.804766 0.234203 -0.146658
C28   C     C_2   0.074811 0.800304 0.309371 -0.165743
C29   C     C_R   0.702519 0.103198 0.897953 0.548003
C30   C     C_R   0.719228 0.686234 0.890289 0.526167
C31   C     C_R   0.120506 0.705140 0.908173 0.541148
C32   C     C_R   0.675362 0.105440 0.105017 0.548788
C33   C     C_R   0.692067 0.689059 0.094800 0.551234
C34   C     C_R   0.215767 0.651424 0.404566 0.559883
C35   C     C_R   0.085698 0.713854 0.115406 0.552036
C36   C     C_R   0.641696 0.621275 0.392742 0.559556
C37   C     C_R   0.621245 0.223266 0.397281 0.556893
C38   C     C_3   0.565573 0.808842 0.782535 -0.079366
C39   C     C_3   0.554656 0.782200 0.701989 -0.208932
C40   C     C_3   0.826418 0.618271 0.771226 0.020062
Cr1   Cr    Cr6+3 0.393010 0.398050 0.501480 1.015380
Cr2   Cr    Cr6+3 0.398820 0.707980 0.501630 1.014014
Cr3   Cr    Cr6+3 0.708140 0.393940 0.496850 1.009276
Cr4   Cr    Cr6+3 0.937950 0.938450 0.008940 1.012365
Cr5   Cr    Cr6+3 0.626180 0.937030 0.994750 1.004803
Cr6   Cr    Cr6+3 0.937790 0.625760 0.001410 1.013453
H1    H     H_    0.596220 0.890610 0.787839 0.166648
H2    H     H_    0.660891 0.428408 0.719514 0.135124
H3    H     H_    0.910890 0.518773 0.794866 0.147515
H4    H     H_    0.871416 0.461174 0.690406 0.108539
H5    H     H_    0.903846 0.077326 0.806383 0.148816
H6    H     H_    0.851503 0.188884 0.681759 0.149422
H7    H     H_    0.578596 0.233102 0.808816 0.106737
H8    H     H_    0.604154 0.132390 0.698773 0.099289
H9    H     H_    0.170708 0.484391 0.824521 0.151989
H10   H     H_    0.276218 0.440524 0.700020 0.150569
H11   H     H_    0.235415 0.724937 0.818809 0.087823
H12   H     H_    0.150151 0.761625 0.708221 0.100237
H13   H     H_    0.793625 0.455169 0.169964 0.153475
H14   H     H_    0.719781 0.434216 0.292139 0.149401
H15   H     H_    0.541628 0.756182 0.183991 0.104483
H16   H     H_    0.617821 0.752228 0.299337 0.088078
H17   H     H_    0.577569 0.005025 0.199880 0.152117
H18   H     H_    0.501021 0.105003 0.323276 0.156490
H19   H     H_    0.683345 0.219301 0.199306 0.084368
H20   H     H_    0.769804 0.127851 0.308863 0.094492
H21   H     H_    0.969973 0.907852 0.212632 0.157353
H22   H     H_    0.443114 0.818934 0.687039 0.147015
H23   H     H_    0.078382 0.889619 0.331954 0.152588
H24   H     H_    0.186026 0.587434 0.210132 0.093852
H25   H     H_    0.109555 0.596251 0.323805 0.113444
H26   H     H_    0.587011 0.844271 0.668547 0.114550
H27   H     H_    0.843818 0.619384 0.653087 0.153599
H28   H     H_    0.733342 0.451968 0.830353 0.130944
H29   H     H_    0.552939 0.580928 0.848450 0.116695
H30   H     H_    0.490599 0.579554 0.731233 0.122092
O1    O     O_R   0.507110 0.256280 0.580300 -0.522026
O2    O     O_R   0.524640 0.695370 0.425100 -0.488189
O3    O     O_R   0.735890 0.504390 0.415980 -0.509588
O4    O     O_R   0.690560 0.277820 0.422350 -0.507245
O5    O     O_3   0.499990 0.499990 0.499980 -0.265110
O6    O     O_R   0.089190 0.825870 0.932320 -0.521153
O7    O     O_R   0.819070 0.053960 0.931440 -0.495248
O8    O     O_R   0.607070 0.076440 0.916460 -0.524892
O9    O     O_R   0.647110 0.806550 0.917690 -0.515436
O10   O     O_R   0.837080 0.593860 0.915300 -0.536015
O11   O     O_R   0.064770 0.636080 0.932550 -0.503510
O12   O     O_R   0.280830 0.527190 0.577940 -0.500381
O13   O     O_R   0.068250 0.829200 0.092940 -0.515223
O14   O     O_R   0.799650 0.057040 0.080330 -0.504031
O15   O     O_R   0.586130 0.079760 0.077080 -0.510735
O16   O     O_R   0.627700 0.809630 0.066580 -0.504911
O17   O     O_R   0.816140 0.597180 0.075920 -0.508861
O18   O     O_R   0.045360 0.639170 0.081440 -0.492526
O19   O     O_3   0.833980 0.833750 0.001700 -0.251648
O20   O     O_R   0.261360 0.738990 0.584270 -0.529623
O21   O     O_R   0.532590 0.694780 0.574370 -0.509566
O22   O     O_R   0.744470 0.503750 0.577000 -0.529756
O23   O     O_R   0.698520 0.277230 0.571620 -0.511282
O24   O     O_R   0.498530 0.256920 0.419280 -0.509199
O25   O     O_R   0.272880 0.527780 0.428680 -0.496575
O26   O     O_R   0.252780 0.739630 0.423250 -0.510397
C41   C     C_3   0.418438 0.867751 0.819372 -0.276877
C42   C     C_3   0.324687 0.025691 0.808080 -0.457333
H31   H     H_    0.372596 0.083140 0.833630 0.167169
H32   H     H_    0.310470 0.050257 0.750159 0.140944
H33   H     H_    0.219236 0.062309 0.832698 0.141047
H34   H     H_    0.363964 0.814982 0.796988 0.133914
H35   H     H_    0.425930 0.847713 0.877575 0.176650
N1    N     N_2   0.879984 0.716741 0.774424 -0.521777
H36   H     H_    0.884725 0.752551 0.824709 0.279337
C43   C     C_3   0.861079 0.814579 0.718240 -0.296912
H37   H     H_    0.909922 0.876704 0.735209 0.147877
H38   H     H_    0.748793 0.887745 0.708048 0.132912
H39   H     H_    0.916716 0.760309 0.668424 0.151819

loop_
_geom_bond_atom_site_label_1
_geom_bond_atom_site_label_2
_ccdc_geom_bond_type
C7    C10   D    
C23   O23   A    
C39   H22   S    
C28   H23   S    
C1    C11   S    
Cr3   O22   S    
Cr4   O7    S    
C10   H6    S    
C42   H32   S    
C25   C28   D    
C26   C27   D    
C34   O26   A    
C31   O6    A    
C16   H16   S    
Cr2   O20   S    
C8    C29   S    
C37   O24   A    
C20   H20   S    
Cr3   O23   S    
C29   O7    A    
Cr4   O6    S    
C16   C19   D    
Cr1   O1    S    
C38   C39   S    
C32   O15   A    
C13   H11   S    
Cr3   O3    S    
C40   H3    S    
C18   C19   S    
Cr5   O16   S    
N1    H36   S    
C42   H31   S    
C17   H15   S    
C22   H17   S    
C11   C15   D    
C32   O14   A    
Cr6   O19   S    
C20   C24   D    
C3    C38   S    
C8    C9    D    
C9    H5    S    
C39   H26   S    
C41   H34   S    
C25   H25   S    
C30   O10   A    
C11   H12   S    
C9    C10   S    
C12   O22   A    
C2    H28   S    
C25   C34   S    
C1    O12   A    
C14   H9    S    
C24   H18   S    
C21   C22   D    
C2    C6    S    
Cr2   O5    S    
C17   C33   S    
Cr2   O26   S    
C43   H38   S    
C43   H37   S    
C37   O4    A    
C21   C32   S    
C34   O25   A    
C31   O11   A    
C29   O8    A    
C4    C6    S    
C33   O16   A    
C40   N1    S    
Cr3   O4    S    
C3    C30   S    
Cr5   O9    S    
C38   C41   S    
C26   C35   S    
Cr6   O18   S    
C4    C39   S    
Cr1   O5    S    
C17   C18   D    
C38   H1    S    
Cr1   O24   S    
C23   O1    A    
C30   O9    A    
C12   O21   A    
C6    H2    S    
C35   O13   A    
C3    C40   S    
Cr2   O2    S    
C26   H24   S    
C22   C24   S    
C5    H4    S    
Cr2   O21   S    
Cr5   O8    S    
C4    C12   S    
Cr5   O19   S    
C41   C42   S    
Cr4   O14   S    
Cr6   O11   S    
C35   O18   A    
Cr1   O12   S    
Cr3   O5    S    
C21   H19   S    
C13   C31   S    
C4    C5    S    
C36   O3    A    
C33   O17   A    
C8    H7    S    
C6    H30   S    
C19   H14   S    
C41   H35   S    
C15   H10   S    
C2    C3    S    
Cr4   O19   S    
C36   O2    A    
C16   C36   S    
C20   C37   S    
Cr6   O17   S    
C1    O20   A    
C7    C23   S    
Cr1   O25   S    
C43   H39   S    
C5    H27   S    
Cr5   O15   S    
N1    C43   S    
C27   H21   S    
C2    H29   S    
C18   H13   S    
C5    C40   S    
C27   C28   S    
C14   C15   S    
C7    H8    S    
C13   C14   D    
C42   H33   S    
Cr4   O13   S    
Cr6   O10   S    
