data_mof_unit_17732.cif
_audit_creation_date              2013-03-05T15:47:08-0500
_audit_creation_method            fapswitch 2.2
_symmetry_space_group_name_H-M    P1
_symmetry_Int_Tables_number       1
_space_group_crystal_system       triclinic
_cell_length_a                    10.235834
_cell_length_b                    10.804984
_cell_length_c                    13.504146
_cell_angle_alpha                 92.693435
_cell_angle_beta                  99.475721
_cell_angle_gamma                 96.290741
_cell_volume                      1461.05820604

loop_
_atom_site_label
_atom_site_type_symbol
_atom_site_description
_atom_site_fract_x
_atom_site_fract_y
_atom_site_fract_z
_atom_type_partial_charge
O1    O     O_R   0.935190 0.693030 0.507870 -0.624618
O2    O     O_R   0.064810 0.306970 0.492130 -0.621325
O3    O     O_R   0.142080 0.658430 0.482770 -0.543854
O4    O     O_R   0.857920 0.341570 0.517230 -0.544628
C1    C     C_R   0.054645 0.732743 0.496575 0.949065
C2    C     C_R   0.947877 0.267843 0.509329 0.952343
O5    O     O_R   0.969700 0.527180 0.651960 -0.549117
O6    O     O_R   0.030300 0.472820 0.348040 -0.545843
O7    O     O_R   0.176600 0.492580 0.626860 -0.604336
O8    O     O_R   0.823400 0.507420 0.373140 -0.600286
C3    C     C_R   0.093181 0.516488 0.686195 0.906912
C4    C     C_R   0.906841 0.483598 0.313794 0.917607
Zn1   Zn    Zn3+2 0.861850 0.523100 0.516760 1.097505
Zn2   Zn    Zn3+2 0.138150 0.476900 0.483240 1.098232
C5    C     C_R   0.143034 0.533178 0.794469 -0.168622
C6    C     C_R   0.857092 0.467351 0.205467 -0.172644
C7    C     C_R   0.142555 0.612270 0.964966 -0.188312
C8    C     C_R   0.857829 0.389175 0.034765 -0.187149
C9    C     C_R   0.082102 0.598937 0.863687 0.292065
C10   C     C_R   0.918198 0.402096 0.136065 0.290388
C11   C     C_R   0.261681 0.485033 0.827588 -0.187127
C12   C     C_R   0.738491 0.515635 0.172441 -0.185608
C13   C     C_R   0.334156 0.516667 0.923741 0.097573
C14   C     C_R   0.666164 0.484554 0.076158 0.097373
C15   C     C_R   0.270450 0.575987 0.995483 -0.003558
C16   C     C_R   0.729924 0.425467 0.004318 -0.003248
C17   C     C_R   0.467724 0.489640 0.949536 0.029881
C18   C     C_R   0.532657 0.511797 0.050345 0.029734
C19   C     C_R   0.461134 0.557596 0.122948 -0.203903
C20   C     C_R   0.539274 0.444060 0.876879 -0.205952
C21   C     C_R   0.334724 0.594688 0.096124 0.345328
C22   C     C_R   0.665703 0.406999 0.903646 0.345864
H1    H     H_    0.703563 0.577406 0.224490 0.172856
H2    H     H_    0.296568 0.422944 0.775731 0.171392
C23   C     C_2   0.089830 0.866207 0.504057 -0.273927
C24   C     C_2   0.922280 0.136675 0.524225 -0.270581
C25   C     C_2   0.003099 0.937130 0.534396 -0.114546
C26   C     C_2   0.025149 0.069645 0.531468 -0.141107
N1    N     N_2   0.322180 0.446120 0.460900 -0.196278
N2    N     N_2   0.677820 0.553880 0.539100 -0.195447
C27   C     C_2   0.430580 0.515451 0.505342 0.247427
C28   C     C_2   0.569388 0.484935 0.494230 0.248028
N3    N     N_R   0.273450 0.650398 0.172787 0.197320
O9    O     O_R   0.276132 0.600405 0.258790 -0.352624
O10   O     O_R   0.239498 0.762525 0.164622 -0.356756
N4    N     N_R   0.726986 0.351433 0.826919 0.196775
O11   O     O_R   0.724143 0.401481 0.740930 -0.354834
O12   O     O_R   0.761051 0.239335 0.834997 -0.359473
N5    N     N_R   0.036511 0.343758 0.166728 0.235849
O13   O     O_R   0.038752 0.264981 0.236803 -0.342851
O14   O     O_R   0.128379 0.346862 0.110493 -0.367928
N6    N     N_R   0.963940 0.657423 0.832827 0.236673
O15   O     O_R   0.961850 0.735828 0.762481 -0.355667
O16   O     O_R   0.872112 0.654863 0.889079 -0.367763
H3    H     H_    0.091368 0.656796 0.018113 0.219457
H4    H     H_    0.909119 0.344975 0.981519 0.219159
H5    H     H_    0.500850 0.567086 0.202177 0.193987
H6    H     H_    0.499532 0.434802 0.797642 0.193603
H7    H     H_    0.125990 0.111096 0.528068 0.204790
H8    H     H_    0.909651 0.897437 0.554933 0.215536
H9    H     H_    0.821672 0.094774 0.527522 0.198622
H10   H     H_    0.183014 0.906339 0.483536 0.199588
N7    N     N_R   0.581328 0.376329 0.433164 0.218185
O17   O     O_R   0.556773 0.378714 0.335718 -0.389156
O18   O     O_R   0.581906 0.269216 0.473205 -0.351699
N8    N     N_R   0.418581 0.624570 0.565784 0.217809
O19   O     O_R   0.419515 0.731525 0.525407 -0.351956
O20   O     O_R   0.441383 0.622536 0.663287 -0.390375
H11   H     H_    0.666518 0.631613 0.582460 0.217266
H12   H     H_    0.333515 0.367936 0.418087 0.218907

loop_
_geom_bond_atom_site_label_1
_geom_bond_atom_site_label_2
_geom_bond_distance
_ccdc_geom_bond_type
C15   C21   1.404066 A    
N8    O20   1.300503 A    
O7    Zn2   1.910055 S    
N7    O18   1.300445 A    
C16   C22   1.404148 A    
C10   N5    1.436001 S    
C13   C17   1.419884 A    
O6    C4    1.292002 A    
C20   C22   1.392429 A    
N3    O10   1.301134 A    
C27   C28   1.522562 S    
C7    H3    1.080592 S    
C8    C16   1.409713 A    
C8    H4    1.080598 S    
N3    O9    1.301182 A    
C7    C15   1.409723 A    
N6    O16   1.301033 A    
N2    C28   1.307254 D    
N8    O19   1.300552 A    
O3    C1    1.295689 A    
C19   C21   1.392477 A    
C22   N4    1.437219 S    
C17   C20   1.418397 A    
O5    C3    1.291984 A    
O7    C3    1.300772 A    
O2    C2    1.286521 A    
O3    Zn2   1.957759 S    
O8    C4    1.300831 A    
O1    C1    1.286469 A    
C20   H6    1.076179 S    
C28   N7    1.430280 S    
C24   C26   1.335176 D    
C6    C10   1.412185 A    
C7    C9    1.399105 A    
C25   C26   1.428302 S    
C2    C24   1.442411 S    
C23   H10   1.087324 S    
C8    C10   1.399097 A    
C11   C13   1.392382 A    
C4    C6    1.463248 S    
O2    Zn2   1.922894 S    
C12   C14   1.392472 A    
C5    C11   1.388168 A    
C25   H8    1.088301 S    
O1    Zn1   1.922894 S    
N2    H11   1.029102 S    
C19   H5    1.076036 S    
C27   N8    1.430275 S    
C26   H7    1.088278 S    
N4    O12   1.301143 A    
C1    C23   1.442231 S    
O5    Zn1   1.967780 S    
C13   C15   1.419813 A    
N6    O15   1.301332 A    
N1    C27   1.307221 D    
C14   C18   1.420069 A    
O4    C2    1.295735 A    
N5    O13   1.301300 A    
C17   C18   1.410279 A    
C12   H1    1.076219 S    
N4    O11   1.301159 A    
C18   C19   1.418542 A    
Zn1   N2    2.016164 S    
C6    C12   1.388247 A    
C11   H2    1.076418 S    
O6    Zn2   1.967780 S    
C23   C25   1.335131 D    
Zn2   N1    2.016164 S    
C5    C9    1.412167 A    
C3    C5    1.462932 S    
C9    N6    1.436024 S    
N1    H12   1.029090 S    
C21   N3    1.437166 S    
C24   H9    1.087320 S    
O4    Zn1   1.957759 S    
C14   C16   1.419953 A    
N7    O17   1.300462 A    
N5    O14   1.301034 A    
O8    Zn1   1.910053 S    
