data_mof_unit_49181.cif
_audit_creation_date              2012-12-10T19:05:20-0500
_audit_creation_method            fapswitch 2.2
_symmetry_space_group_name_H-M    P1
_symmetry_Int_Tables_number       1
_space_group_crystal_system       triclinic
_cell_length_a                    9.512952
_cell_length_b                    10.837443
_cell_length_c                    17.326477
_cell_angle_alpha                 90.289637
_cell_angle_beta                  85.344685
_cell_angle_gamma                 91.541151
_cell_volume                      1779.74734893

loop_
_atom_site_label
_atom_site_type_symbol
_atom_type_description
_atom_site_fract_x
_atom_site_fract_y
_atom_site_fract_z
_atom_type_partial_charge
C1    C     C_R   0.502151 0.738568 0.502357 0.841435
C2    C     C_R   0.336630 0.488230 0.776736 -0.183878
C3    C     C_R   0.411425 0.584047 0.147349 0.148207
C4    C     C_R   0.410990 0.580215 0.228945 -0.004470
C5    C     C_R   0.654165 0.507608 0.216621 -0.004405
C6    C     C_R   0.650556 0.509099 0.136438 -0.174508
C7    C     C_R   0.530249 0.541763 0.101953 0.126148
C8    C     C_2   0.440348 0.471491 0.980487 -0.218581
C9    C     C_2   0.537475 0.534834 0.017377 -0.206525
C10   C     C_R   0.529749 0.533915 0.264493 -0.184909
C11   C     C_R   0.377106 0.932230 0.521971 0.081143
C12   C     C_R   0.480804 0.496774 0.650033 0.770993
C13   C     C_R   0.505396 0.872444 0.515735 -0.155065
C14   C     C_R   0.629808 0.942936 0.531001 0.147389
C15   C     C_R   0.617376 0.071080 0.548301 -0.022662
C16   C     C_R   0.495158 0.131022 0.527106 -0.230837
C17   C     C_R   0.372550 0.058568 0.524532 0.129089
C18   C     C_3   0.250450 0.061381 0.476186 -0.471333
C19   C     C_3   0.254992 0.921997 0.473198 -0.403594
C20   C     C_R   0.933751 0.455158 0.437874 0.211116
C21   C     C_R   0.918721 0.555222 0.557930 -0.080530
C22   C     C_R   0.067729 0.554721 0.558129 -0.058529
C23   C     C_R   0.497706 0.262922 0.508277 0.822834
C24   C     C_R   0.081833 0.458290 0.436765 0.190939
C25   C     C_3   0.090122 0.331745 0.403428 -0.259933
C26   C     C_3   0.930043 0.326214 0.407504 -0.541660
C27   C     C_R   0.519389 0.510290 0.349721 0.872471
C28   C     C_R   0.468920 0.485477 0.734423 -0.026519
C29   C     C_R   0.590638 0.468276 0.773217 -0.200061
C30   C     C_R   0.581059 0.458490 0.853235 -0.135191
C31   C     C_R   0.449750 0.467098 0.895760 0.176698
C32   C     C_R   0.327195 0.478495 0.857166 -0.158230
Cu1   Cu    Cu3+1 0.359330 0.500020 0.500000 0.986111
Cu2   Cu    Cu3+1 0.640670 0.499980 0.500000 0.936215
H1    H     H_    0.693576 0.462837 0.741891 0.152362
H2    H     H_    0.743812 0.485087 0.099710 0.177505
H3    H     H_    0.153714 0.093925 0.509591 0.204294
H4    H     H_    0.278516 0.104306 0.418760 0.246001
H5    H     H_    0.161166 0.875534 0.504034 0.202791
H6    H     H_    0.284860 0.886957 0.414148 0.258430
H7    H     H_    0.857280 0.598239 0.605411 0.137818
H8    H     H_    0.117904 0.597091 0.605794 0.134853
H9    H     H_    0.134603 0.267769 0.443336 0.191854
H10   H     H_    0.884712 0.318590 0.350702 0.227285
H11   H     H_    0.883259 0.259259 0.451391 0.215800
H12   H     H_    0.629048 0.577385 0.985426 0.150130
H13   H     H_    0.225119 0.484279 0.889418 0.130965
H14   H     H_    0.240972 0.499634 0.747919 0.148476
H15   H     H_    0.348243 0.430344 0.012807 0.177972
H16   H     H_    0.676584 0.445425 0.881868 0.131367
N1    N     N_R   0.852130 0.499070 0.499500 -0.181074
N2    N     N_R   0.148040 0.499110 0.499500 -0.184302
O1    O     O_R   0.381190 0.680360 0.500000 -0.554110
O2    O     O_R   0.618770 0.680320 0.499990 -0.591383
O3    O     O_R   0.367430 0.500040 0.613600 -0.597740
O4    O     O_R   0.605020 0.500000 0.613590 -0.604516
O5    O     O_R   0.381230 0.319680 0.500010 -0.567029
O6    O     O_R   0.618810 0.319640 0.500000 -0.600279
O7    O     O_R   0.394980 0.500000 0.386410 -0.537179
O8    O     O_R   0.632570 0.499960 0.386400 -0.606985
C33   C     C_3   0.775177 0.888168 0.520312 -0.712506
H17   H     H_    0.789203 0.840659 0.463429 0.218623
H18   H     H_    0.861354 0.959254 0.517444 0.239407
H19   H     H_    0.790211 0.823222 0.568095 0.235630
C34   C     C_2   0.719677 0.137788 0.596203 0.340892
H20   H     H_    0.711478 0.235546 0.608077 0.108105
O9    O     O_2   0.807444 0.082733 0.629308 -0.554303
C35   C     C_2   0.159043 0.331259 0.322249 0.447978
H21   H     H_    0.122018 0.390866 0.278508 0.092344
O10   O     O_2   0.257635 0.264103 0.304930 -0.550011
C36   C     C_2   0.289153 0.634142 0.275309 0.375145
H22   H     H_    0.182199 0.614821 0.260356 0.060834
O11   O     O_2   0.308026 0.706086 0.327994 -0.566868
C37   C     C_2   0.792471 0.483544 0.246420 0.326838
H23   H     H_    0.826305 0.532317 0.296578 0.092293
O12   O     O_2   0.874205 0.412973 0.212278 -0.579251
C38   C     C_3   0.289457 0.641265 0.110104 -0.883910
H24   H     H_    0.266514 0.732877 0.136475 0.240538
H25   H     H_    0.311526 0.658811 0.047358 0.253094
H26   H     H_    0.194096 0.580011 0.118796 0.232456

loop_
_geom_bond_atom_site_label_1
_geom_bond_atom_site_label_2
_ccdc_geom_bond_type
C10   C27   S    
C24   N2    A    
C23   O6    A    
Cu1   O3    S    
C25   H9    S    
C26   H10   S    
C38   H24   S    
Cu1   N2    S    
Cu2   O4    S    
C11   C19   S    
Cu2   N1    S    
C37   O12   D    
C12   C28   S    
C5    C6    A    
C2    C32   A    
C28   C29   A    
C18   H3    S    
C20   N1    A    
C3    C7    A    
C27   O8    A    
C30   C31   A    
C15   C16   A    
C15   C34   S    
C7    C9    S    
C18   C19   S    
C5    C37   S    
C33   H18   S    
C1    O1    A    
C26   H11   S    
C35   H21   S    
C20   C24   A    
C8    C9    D    
C34   O9    D    
C30   H16   S    
C9    H12   S    
Cu1   O7    S    
C13   C14   A    
Cu2   O8    S    
C25   C35   S    
C17   C18   S    
C38   H25   S    
Cu1   O1    S    
C37   H23   S    
C24   C25   S    
C36   O11   D    
C16   C17   A    
C2    H14   S    
C25   C26   S    
C14   C33   S    
C33   H19   S    
C1    O2    A    
C29   C30   A    
C31   C32   A    
Cu1   Cu2   S    
C12   O4    A    
C19   H5    S    
C21   H7    S    
Cu2   O2    S    
C16   C23   S    
C32   H13   S    
C1    C13   S    
C4    C10   A    
C3    C4    A    
C3    C38   S    
C21   N1    A    
C22   N2    A    
C38   H26   S    
C23   O5    A    
C11   C17   A    
Cu1   O5    S    
C8    C31   S    
C6    C7    A    
C29   H1    S    
C18   H4    S    
C5    C10   A    
C27   O7    A    
C11   C13   A    
C22   H8    S    
C20   C26   S    
C6    H2    S    
C33   H17   S    
C12   O3    A    
C19   H6    S    
C36   H22   S    
C35   O10   D    
C34   H20   S    
Cu2   O6    S    
C14   C15   A    
C2    C28   A    
C21   C22   A    
C8    H15   S    
C4    C36   S    
