data_mof_unit_55155.cif
_audit_creation_date              2012-12-10T22:11:15-0500
_audit_creation_method            fapswitch 2.2
_symmetry_space_group_name_H-M    P1
_symmetry_Int_Tables_number       1
_space_group_crystal_system       triclinic
_cell_length_a                    12.165265
_cell_length_b                    12.337192
_cell_length_c                    23.188655
_cell_angle_alpha                 92.086155
_cell_angle_beta                  90.936217
_cell_angle_gamma                 90.456915
_cell_volume                      3477.37531296

loop_
_atom_site_label
_atom_site_type_symbol
_atom_type_description
_atom_site_fract_x
_atom_site_fract_y
_atom_site_fract_z
_atom_type_partial_charge
C1    C     C_R   0.657769 0.999785 0.579189 0.882394
C2    C     C_R   0.342870 0.999938 0.420624 0.880515
C3    C     C_R   0.881507 0.783602 0.142329 -0.076635
C4    C     C_R   0.099192 0.244822 0.842570 -0.094808
C5    C     C_R   0.064173 0.917227 0.162542 -0.281322
C6    C     C_R   0.941913 0.079575 0.841573 -0.155630
C7    C     C_R   0.068195 0.838166 0.118804 -0.039328
C8    C     C_R   0.939812 0.158792 0.885244 -0.009004
C9    C     C_R   0.903948 0.155213 0.184772 -0.202525
C10   C     C_R   0.096125 0.856246 0.821689 -0.218004
C11   C     C_R   0.905572 0.231569 0.143596 -0.178828
C12   C     C_R   0.094431 0.779182 0.862664 -0.190465
C13   C     C_R   0.148120 0.908807 0.298163 -0.001385
C14   C     C_R   0.850672 0.089452 0.702627 0.042448
C15   C     C_R   0.228504 0.902654 0.342361 -0.073184
C16   C     C_R   0.774001 0.096644 0.656737 -0.061198
C17   C     C_R   0.822333 0.103763 0.302767 -0.153182
C18   C     C_R   0.185703 0.902721 0.702673 -0.166796
C19   C     C_R   0.742727 0.097163 0.344019 -0.137154
C20   C     C_R   0.264608 0.908412 0.660674 -0.148317
C21   C     C_3   0.987909 0.018285 0.249005 -0.091788
C22   C     C_3   0.012559 0.983397 0.751949 -0.089817
C23   C     C_R   0.653262 0.001385 0.420807 0.865607
C24   C     C_R   0.347031 0.998679 0.579454 0.862293
C25   C     C_R   0.086329 0.007079 0.291996 -0.014044
C26   C     C_R   0.913442 0.991982 0.708951 0.005612
C27   C     C_R   0.253371 0.995651 0.377896 -0.128960
C28   C     C_R   0.746927 0.002943 0.622429 -0.131445
C29   C     C_R   0.891724 0.015070 0.290844 0.125996
C30   C     C_R   0.109148 0.987008 0.710271 0.128163
C31   C     C_R   0.733776 0.004304 0.376439 -0.009740
C32   C     C_R   0.267156 0.996445 0.624378 -0.006618
C33   C     C_R   0.999073 0.122522 0.214186 0.016491
C34   C     C_R   0.003354 0.879733 0.787721 0.037155
C35   C     C_R   0.004451 0.276041 0.126975 -0.074895
C36   C     C_R   0.000139 0.717713 0.870346 -0.072170
C37   C     C_R   0.974621 0.928950 0.200056 0.127363
C38   C     C_R   0.024763 0.075337 0.799608 0.047667
C39   C     C_R   0.981165 0.762901 0.112383 -0.101017
C40   C     C_R   0.014036 0.246446 0.883313 -0.105307
C41   C     C_R   0.991308 0.665914 0.073698 0.906612
C42   C     C_R   0.007716 0.337186 0.924984 0.933502
C43   C     C_R   0.000389 0.353685 0.081140 0.905201
C44   C     C_R   0.000572 0.642871 0.917368 0.901159
C45   C     C_R   0.104264 0.093334 0.335079 0.003455
C46   C     C_R   0.895999 0.905207 0.666041 -0.004239
C47   C     C_R   0.189499 0.087106 0.374703 -0.204254
C48   C     C_R   0.808693 0.910103 0.627220 -0.195215
C49   C     C_R   0.882468 0.923496 0.325585 -0.147536
C50   C     C_R   0.113478 0.074663 0.672375 -0.147235
C51   C     C_R   0.804591 0.918056 0.367873 -0.217184
C52   C     C_R   0.191151 0.079079 0.629891 -0.201566
C53   C     C_R   0.102012 0.171591 0.199063 -0.035084
C54   C     C_R   0.904132 0.817811 0.796654 -0.047982
C55   C     C_R   0.104169 0.245836 0.154451 -0.074074
C56   C     C_R   0.907135 0.731026 0.834333 -0.079572
C57   C     C_R   0.876067 0.869015 0.184340 0.000775
C58   C     C_R   0.113959 0.152271 0.806666 -0.051806
H1    H     H_    0.205657 0.155687 0.404382 0.195360
H2    H     H_    0.791051 0.840674 0.598406 0.200565
H3    H     H_    0.934890 0.854806 0.319819 0.199504
H4    H     H_    0.057016 0.141297 0.675857 0.103090
H5    H     H_    0.135436 0.968039 0.168873 0.193901
H6    H     H_    0.878313 0.018667 0.841275 0.196353
H7    H     H_    0.825586 0.120885 0.193287 0.153797
H8    H     H_    0.171154 0.900705 0.817691 0.157406
H9    H     H_    0.831220 0.181288 0.283431 0.129271
H10   H     H_    0.183679 0.829413 0.726431 0.125499
H11   H     H_    0.799724 0.846591 0.393555 0.162953
H12   H     H_    0.191775 0.147011 0.601559 0.151864
H13   H     H_    0.828166 0.252730 0.123305 0.174515
H14   H     H_    0.167766 0.769124 0.889026 0.188658
H15   H     H_    0.689667 0.166251 0.351420 0.151155
H16   H     H_    0.322799 0.842758 0.655966 0.147572
O1    O     O_R   0.621380 0.090460 0.561410 -0.609742
O2    O     O_R   0.378620 0.909540 0.438590 -0.619527
O3    O     O_R   0.617150 0.909540 0.438590 -0.629989
O4    O     O_R   0.382850 0.090460 0.561410 -0.631059
O5    O     O_R   0.619720 0.093230 0.440890 -0.627746
O6    O     O_R   0.380280 0.906770 0.559110 -0.627326
O7    O     O_R   0.618800 0.906770 0.559110 -0.630939
O8    O     O_R   0.381200 0.093230 0.440890 -0.630552
O9    O     O_R   0.087590 0.627480 0.058790 -0.589682
O10   O     O_R   0.912410 0.372520 0.941210 -0.584701
O11   O     O_R   0.905660 0.383870 0.059980 -0.604376
O12   O     O_R   0.094340 0.616130 0.940020 -0.601571
O13   O     O_R   0.092570 0.390420 0.063230 -0.633590
O14   O     O_R   0.907430 0.609580 0.936770 -0.627558
O15   O     O_R   0.900680 0.620930 0.055550 -0.630801
O16   O     O_R   0.099320 0.379070 0.944450 -0.633509
Zn1   Zn    Zn3+2 0.501730 0.123520 0.501540 0.963198
Zn2   Zn    Zn3+2 0.498270 0.876480 0.498460 0.958960
Zn3   Zn    Zn3+2 0.125690 0.504390 0.002180 0.989867
Zn4   Zn    Zn3+2 0.874310 0.495610 0.997820 0.998127
C59   C     C_2   0.209524 0.150201 0.228001 0.340694
H17   H     H_    0.233667 0.197844 0.266378 0.070785
O17   O     O_2   0.275232 0.086855 0.206651 -0.619889
C60   C     C_2   0.794555 0.840043 0.770373 0.354769
H18   H     H_    0.757934 0.781237 0.739679 0.077293
O18   O     O_2   0.741693 0.919548 0.785332 -0.593474
C61   C     C_R   0.763441 0.897926 0.204350 0.113990
C62   C     C_R   0.698241 0.968765 0.172465 -0.203424
C63   C     C_R   0.591078 0.992714 0.189305 -0.106795
C64   C     C_R   0.545975 0.941578 0.236241 -0.104785
C65   C     C_R   0.606050 0.862422 0.264255 -0.157710
C66   C     C_R   0.712406 0.837531 0.246750 -0.101169
H19   H     H_    0.730458 0.005303 0.134406 0.136851
H20   H     H_    0.542895 0.050382 0.165781 0.156494
H21   H     H_    0.463791 0.961621 0.249970 0.158799
H22   H     H_    0.571173 0.820595 0.299844 0.143103
H23   H     H_    0.756356 0.773155 0.267422 0.130388
C67   C     C_R   0.229321 0.130532 0.789351 0.143214
C68   C     C_R   0.278844 0.188069 0.745307 -0.106422
C69   C     C_R   0.387227 0.166562 0.729908 -0.157186
C70   C     C_R   0.449428 0.092862 0.760862 -0.095594
C71   C     C_R   0.404672 0.044596 0.808730 -0.123364
C72   C     C_R   0.296006 0.065581 0.823780 -0.206816
H24   H     H_    0.232261 0.246864 0.721678 0.124153
H25   H     H_    0.421979 0.206436 0.693604 0.135651
H26   H     H_    0.532845 0.074450 0.748685 0.162133
H27   H     H_    0.454339 0.991468 0.834382 0.148501
H28   H     H_    0.264272 0.032282 0.862786 0.137482
C73   C     C_2   0.131083 0.808204 0.261767 0.374741
H29   H     H_    0.186992 0.790472 0.226762 0.069920
O19   O     O_2   0.061957 0.740609 0.273392 -0.601350
C74   C     C_2   0.868621 0.189641 0.738825 0.367563
H30   H     H_    0.942990 0.237655 0.735220 0.041776
O20   O     O_2   0.798561 0.219625 0.772787 -0.594513
C75   C     C_R   0.213028 0.285863 0.135750 0.175397
C76   C     C_R   0.264188 0.374866 0.164830 -0.145469
C77   C     C_R   0.370045 0.406937 0.149739 -0.143707
C78   C     C_R   0.425049 0.350448 0.105618 -0.140667
C79   C     C_R   0.374037 0.262286 0.076267 -0.150849
C80   C     C_R   0.268418 0.229658 0.091371 -0.036498
H31   H     H_    0.222752 0.418008 0.199583 0.124443
H32   H     H_    0.409681 0.474955 0.172621 0.124694
H33   H     H_    0.507412 0.374464 0.094288 0.126358
H34   H     H_    0.416774 0.218586 0.042212 0.126174
H35   H     H_    0.230174 0.160073 0.069103 0.125416
C81   C     C_R   0.815178 0.651063 0.832766 0.116342
C82   C     C_R   0.718932 0.670945 0.863962 -0.061935
C83   C     C_R   0.630703 0.597586 0.859095 -0.175007
C84   C     C_R   0.637685 0.505260 0.822531 -0.120407
C85   C     C_R   0.732936 0.485951 0.791098 -0.084193
C86   C     C_R   0.821641 0.558275 0.796293 -0.195423
H36   H     H_    0.712405 0.743151 0.891646 0.129370
H37   H     H_    0.556644 0.612885 0.883196 0.118807
H38   H     H_    0.569212 0.449007 0.818028 0.134002
H39   H     H_    0.737537 0.415798 0.762083 0.186098
H40   H     H_    0.894348 0.543450 0.770977 0.122070
C87   C     C_R   0.777931 0.723105 0.127138 0.168346
C88   C     C_R   0.746794 0.632113 0.157817 -0.125393
C89   C     C_R   0.647433 0.578548 0.144283 -0.151185
C90   C     C_R   0.579196 0.615400 0.100089 -0.131992
C91   C     C_R   0.610428 0.705216 0.069065 -0.139982
C92   C     C_R   0.709496 0.759008 0.082447 -0.091269
H41   H     H_    0.798931 0.603589 0.192295 0.125921
H42   H     H_    0.623209 0.508783 0.168188 0.121014
H43   H     H_    0.501986 0.574715 0.089749 0.125257
H44   H     H_    0.557657 0.733391 0.034793 0.124387
H45   H     H_    0.732813 0.828959 0.058373 0.118114
C93   C     C_R   0.171692 0.341250 0.836231 0.137468
C94   C     C_R   0.274972 0.348412 0.864197 -0.058999
C95   C     C_R   0.338760 0.442625 0.861014 -0.159341
C96   C     C_R   0.300879 0.529359 0.829209 -0.108532
C97   C     C_R   0.198713 0.522184 0.800769 -0.128060
C98   C     C_R   0.134059 0.428552 0.804400 -0.193821
H46   H     H_    0.304414 0.282319 0.889595 0.123482
H47   H     H_    0.416943 0.448723 0.883813 0.114476
H48   H     H_    0.350390 0.602299 0.826860 0.120623
H49   H     H_    0.169160 0.589544 0.776378 0.132205
H50   H     H_    0.054474 0.424103 0.782840 0.120496
C99   C     C_2   0.163831 0.841631 0.079946 0.414474
H51   H     H_    0.243412 0.869074 0.096904 0.058611
O21   O     O_2   0.153272 0.821449 0.028201 -0.566577
C100  C     C_2   0.859154 0.144349 0.931833 0.421244
H52   H     H_    0.782707 0.100732 0.922416 0.069725
O22   O     O_2   0.879768 0.174390 0.981603 -0.578569
C101  C     C_R   0.279566 0.795471 0.353001 0.161849
C102  C     C_R   0.243613 0.733820 0.398994 -0.032458
C103  C     C_R   0.287573 0.631190 0.407682 -0.137658
C104  C     C_R   0.365924 0.588536 0.369916 -0.120349
C105  C     C_R   0.399783 0.648115 0.323166 -0.136951
C106  C     C_R   0.356238 0.750892 0.314523 -0.186528
H53   H     H_    0.182038 0.765650 0.428118 0.131107
H54   H     H_    0.260448 0.584484 0.443496 0.135634
H55   H     H_    0.399524 0.508890 0.376530 0.126911
H56   H     H_    0.458983 0.614302 0.293313 0.127952
H57   H     H_    0.379851 0.794665 0.277119 0.114660
C107  C     C_R   0.735037 0.205774 0.640405 0.141725
C108  C     C_R   0.650656 0.258283 0.670612 -0.096583
C109  C     C_R   0.615758 0.361008 0.655009 -0.185439
C110  C     C_R   0.665771 0.412439 0.609448 -0.118770
C111  C     C_R   0.750930 0.361277 0.579563 -0.119255
C112  C     C_R   0.785834 0.258449 0.595059 -0.131743
H58   H     H_    0.613907 0.220711 0.706886 0.145420
H59   H     H_    0.550756 0.401160 0.678648 0.133834
H60   H     H_    0.639006 0.492149 0.597531 0.131539
H61   H     H_    0.790002 0.401348 0.544453 0.146107
H62   H     H_    0.852041 0.219568 0.571709 0.136090
C113  C     C_2   0.040421 0.195905 0.339905 0.359963
H63   H     H_    0.014965 0.239563 0.302627 0.064190
O23   O     O_2   0.016831 0.234721 0.387286 -0.562415
C114  C     C_2   0.963815 0.804853 0.660306 0.361810
H64   H     H_    0.006166 0.770730 0.696364 0.065429
O24   O     O_2   0.972986 0.757361 0.613484 -0.571061

loop_
_geom_bond_atom_site_label_1
_geom_bond_atom_site_label_2
_ccdc_geom_bond_type
C16   C28   A    
C41   O15   A    
C65   H22   S    
O3    Zn2   S    
C61   C62   A    
C5    C37   A    
C53   C59   S    
C17   C29   A    
C113  H63   S    
C59   H17   S    
C72   H28   S    
C19   C31   A    
C69   C70   A    
C73   H29   S    
C39   C41   S    
C29   C49   A    
C103  C104  A    
C41   O9    A    
C96   C97   A    
C58   C67   S    
C7    C39   A    
C95   C96   A    
C84   C85   A    
C112  H62   S    
C15   C101  S    
C20   C32   A    
C64   H21   S    
C56   C81   S    
C60   H18   S    
C11   H13   S    
C73   O19   D    
C21   C33   S    
C1    O7    A    
C110  H60   S    
O9    Zn3   S    
O13   Zn3   S    
O15   Zn4   S    
C71   C72   A    
C5    H5    S    
C18   C20   A    
C109  H59   S    
C45   C47   A    
C6    H6    S    
C89   H42   S    
C104  C105  A    
C64   C65   A    
C108  H58   S    
O7    Zn2   S    
C82   C83   A    
C24   O6    A    
C32   C52   A    
C94   C95   A    
C78   C79   A    
C55   C75   S    
C1    C28   S    
C50   C52   A    
C87   C88   A    
C6    C38   A    
C2    C27   S    
C18   C30   A    
C52   H12   S    
C12   C36   A    
C35   C43   S    
O5    Zn1   S    
C69   H25   S    
O1    Zn1   S    
C51   H11   S    
C10   H8    S    
C111  C112  A    
C12   H14   S    
C3    C39   A    
C79   H34   S    
C38   C58   A    
C9    C33   A    
C113  O23   D    
C13   C25   A    
C95   H47   S    
C44   O12   A    
C67   C68   A    
C48   H2    S    
C91   C92   A    
O14   Zn4   S    
C66   H23   S    
C53   C55   A    
C33   C53   A    
C84   H38   S    
C22   C34   S    
C46   C48   A    
C17   H9    S    
C49   H3    S    
C71   H27   S    
C35   C55   A    
C108  C109  A    
C43   O11   A    
C4    C40   A    
C19   H15   S    
C42   O10   A    
C81   C82   A    
C77   H32   S    
C80   H35   S    
C5    C7    A    
C93   C98   A    
C6    C8    A    
C49   C51   A    
C78   H33   S    
C99   H51   S    
C21   C29   S    
C14   C26   A    
O8    Zn1   S    
C101  C102  A    
C42   O16   A    
C1    O1    A    
O6    Zn2   S    
C105  C106  A    
C24   C32   S    
C107  C108  A    
C85   H39   S    
C36   C56   A    
O12   Zn3   S    
C79   C80   A    
O11   Zn4   S    
C15   C27   A    
C111  H61   S    
C8    C100  S    
C20   H16   S    
C62   H19   S    
C10   C34   A    
O10   Zn4   S    
C87   C92   A    
C23   O3    A    
C9    C11   A    
C90   C91   A    
C63   H20   S    
C99   O21   D    
C10   C12   A    
C82   H36   S    
O2    Zn2   S    
C107  C112  A    
C24   O4    A    
C100  H52   S    
C76   H31   S    
C114  O24   D    
C92   H45   S    
C110  C111  A    
C60   O18   D    
C13   C15   A    
C97   C98   A    
C50   H4    S    
C4    C93   S    
C2    O8    A    
C77   C78   A    
C25   C45   A    
C61   C66   A    
C2    O2    A    
C102  C103  A    
O16   Zn3   S    
C68   C69   A    
C101  C106  A    
C27   C47   A    
C96   H48   S    
C21   C25   S    
C88   H41   S    
C28   C48   A    
C74   O20   D    
C22   C30   S    
C91   H44   S    
C83   C84   A    
C83   H37   S    
C86   H40   S    
C100  O22   D    
C31   C51   A    
C85   C86   A    
C81   C86   A    
C103  H54   S    
C59   O17   D    
C54   C56   A    
C34   C54   A    
C98   H50   S    
O4    Zn1   S    
C93   C94   A    
C57   C61   S    
C65   C66   A    
C3    C87   S    
C14   C74   S    
C43   O13   A    
C109  C110  A    
C11   C35   A    
C94   H46   S    
C75   C76   A    
C90   H43   S    
C105  H56   S    
C67   C72   A    
C74   H30   S    
C13   C73   S    
C7    C99   S    
C46   C114  S    
C17   C19   A    
C3    C57   A    
C76   C77   A    
C14   C16   A    
C104  H55   S    
C30   C50   A    
C62   C63   A    
C9    H7    S    
C75   C80   A    
C36   C44   S    
C102  H53   S    
C26   C46   A    
C47   H1    S    
C68   H24   S    
C97   H49   S    
C21   C37   S    
C114  H64   S    
C45   C113  S    
C70   H26   S    
C22   C26   S    
C4    C58   A    
C63   C64   A    
C40   C42   S    
C106  H57   S    
C54   C60   S    
C88   C89   A    
C8    C40   A    
C23   O5    A    
C89   C90   A    
C44   O14   A    
C18   H10   S    
C37   C57   A    
C70   C71   A    
C23   C31   S    
C16   C107  S    
C22   C38   S    
