data_mof_unit_37862.cif
_audit_creation_date              2012-12-11T20:00:29-0500
_audit_creation_method            fapswitch 2.2
_symmetry_space_group_name_H-M    P1
_symmetry_Int_Tables_number       1
_space_group_crystal_system       triclinic
_cell_length_a                    8.314321
_cell_length_b                    16.337015
_cell_length_c                    26.952889
_cell_angle_alpha                 73.120096
_cell_angle_beta                  96.352735
_cell_angle_gamma                 96.664564
_cell_volume                      3468.21249318

loop_
_atom_site_label
_atom_site_type_symbol
_atom_type_description
_atom_site_fract_x
_atom_site_fract_y
_atom_site_fract_z
_atom_type_partial_charge
Ba1   Ba    Ba6+2 0.337820 0.939830 0.518500 1.672588
Ba2   Ba    Ba6+2 0.851970 0.060110 0.481480 1.733224
C1    C     C_3   0.148635 0.522036 0.644677 -0.310081
C2    C     C_R   0.442086 0.385369 0.185930 0.581177
C3    C     C_2   0.274393 0.268099 0.275502 -0.066075
C4    C     C_3   0.614596 0.625917 0.619500 0.268201
C5    C     C_3   0.269556 0.246838 0.333370 -0.092323
C6    C     C_1   0.475695 0.144273 0.342086 -0.020869
C7    C     C_2   0.512656 0.184658 0.293044 -0.095520
C8    C     C_2   0.405145 0.249518 0.256246 0.206196
C9    C     C_R   0.506486 0.389444 0.098873 -0.068841
C10   C     C_R   0.513108 0.298832 0.115817 -0.084119
C11   C     C_R   0.552314 0.257772 0.079184 -0.031652
C12   C     C_3   0.113020 0.615586 0.624130 0.340244
C13   C     C_R   0.473646 0.432311 0.134585 -0.025428
C14   C     C_2   0.363432 0.172248 0.363540 -0.327435
C15   C     C_2   0.829038 0.836382 0.635698 -0.260750
C16   C     C_3   0.640210 0.539792 0.659694 -0.226035
C17   C     C_R   0.621735 0.447372 0.960260 0.026993
C18   C     C_R   0.531592 0.575647 0.976093 0.029988
C19   C     C_R   0.596315 0.536491 0.942887 0.050081
C20   C     C_R   0.687398 0.411825 0.925653 -0.094567
C21   C     C_R   0.720975 0.460858 0.875608 -0.049938
C22   C     C_R   0.694681 0.548354 0.857854 -0.021974
C23   C     C_3   0.068162 0.014033 0.644969 0.188317
C24   C     C_R   0.634023 0.586565 0.891597 -0.075876
C25   C     C_R   0.609682 0.674631 0.873830 -0.027823
C26   C     C_R   0.655461 0.724389 0.823847 0.621810
C27   C     C_R   0.727104 0.597843 0.806779 0.581912
C28   C     C_3   0.604693 0.887987 0.386553 0.308838
C29   C     C_2   0.890583 0.720687 0.717972 -0.094359
C30   C     C_3   0.906007 0.753507 0.660077 -0.077234
C31   C     C_1   0.709045 0.855829 0.657370 0.002753
C32   C     C_2   0.660674 0.807992 0.703630 -0.085569
C33   C     C_2   0.759712 0.737526 0.738164 0.221163
C34   C     C_3   0.086591 0.966820 0.703031 -0.248441
C35   C     C_R   0.581456 0.397090 0.011317 0.004955
C36   C     C_R   0.534784 0.438143 0.046364 0.045726
C37   C     C_R   0.519123 0.528270 0.029621 0.042860
C38   C     C_R   0.587334 0.306902 0.028701 -0.079064
C39   C     C_R   0.476996 0.522386 0.118816 -0.048269
C40   C     C_3   0.581140 0.817826 0.358992 -0.376160
C41   C     C_R   0.482099 0.660769 0.953821 -0.059677
C42   C     C_R   0.532532 0.710432 0.905299 -0.103120
C43   C     C_R   0.502950 0.569247 0.067936 -0.025886
C44   C     C_2   0.444183 0.244947 0.533076 -0.255750
C45   C     C_3   0.648362 0.356838 0.368464 0.347874
C46   C     C_R   0.792456 0.762177 0.486635 -0.300119
C47   C     C_2   0.225342 0.321335 0.546838 -0.137338
C48   C     C_2   0.278282 0.246005 0.548839 -0.009045
C49   C     C_2   0.522165 0.315919 0.503136 -0.030703
C50   C     C_3   0.453154 0.401986 0.491473 -0.051206
C51   C     C_3   0.333282 0.403275 0.530980 0.002655
C52   C     C_3   0.524227 0.056624 0.670285 0.214244
C53   C     C_2   0.586940 0.472218 0.490878 -0.058350
C54   C     C_2   0.554857 0.554378 0.477533 -0.091061
C55   C     C_R   0.825171 0.622267 0.450239 0.005988
C56   C     C_3   0.667009 0.428973 0.318524 -0.312767
C57   C     C_R   0.685894 0.623847 0.474857 -0.038296
C58   C     C_R   0.944470 0.691122 0.442478 -0.128055
C59   C     C_R   0.925778 0.762240 0.459531 0.059918
C60   C     C_R   0.669563 0.694754 0.493028 0.000556
C61   C     C_3   0.554038 0.017639 0.728551 -0.318556
C62   C     C_3   0.115801 0.990072 0.357687 0.295838
C63   C     C_3   0.112373 0.025215 0.298849 -0.371727
C64   C     C_2   0.000821 0.006513 0.735077 0.506015
C65   C     C_2   0.556916 0.163127 0.091099 0.547077
C66   C     C_2   0.356131 0.696427 0.974534 0.480182
C67   C     C_3   0.131191 0.380975 0.389618 0.345007
C68   C     C_2   0.357284 0.152925 0.419544 0.677723
C69   C     C_2   0.528029 0.166907 0.550274 0.466786
C70   C     C_2   0.646147 0.469870 0.634266 0.485649
C71   C     C_3   0.113838 0.475832 0.381258 -0.357320
C72   C     C_R   0.483473 0.253621 0.168828 0.588660
H1    H     H_    0.147982 0.641288 0.583520 0.079773
H2    H     H_    0.045287 0.030671 0.372315 0.091416
H3    H     H_    0.280254 0.516063 0.646217 0.123310
H4    H     H_    0.187783 0.988139 0.283183 0.140643
H5    H     H_    0.160957 0.093512 0.288000 0.070816
H6    H     H_    0.985527 0.020571 0.281295 0.139050
H7    H     H_    0.980461 0.616804 0.624300 -0.054304
H8    H     H_    0.084103 0.485205 0.618531 0.112243
H9    H     H_    0.938159 0.014875 0.631146 0.038296
H10   H     H_    0.127671 0.976825 0.624699 0.079244
H11   H     H_    0.037769 0.898721 0.709104 0.090129
H12   H     H_    0.626174 0.757665 0.384757 0.055504
H13   H     H_    0.216859 0.966791 0.717016 0.070794
H14   H     H_    0.107047 0.494240 0.684421 0.138937
H15   H     H_    0.755881 0.546593 0.683578 0.133898
H16   H     H_    0.706025 0.300936 0.364895 0.086272
H17   H     H_    0.794225 0.458274 0.316665 0.142941
H18   H     H_    0.636348 0.402567 0.284865 0.124325
H19   H     H_    0.585252 0.479332 0.316300 0.118956
H20   H     H_    0.259098 0.374892 0.383809 -0.054713
H21   H     H_    0.105544 0.345816 0.430325 0.062998
H22   H     H_    0.204795 0.501278 0.407712 0.066517
H23   H     H_    0.450081 0.805297 0.347643 0.124040
H24   H     H_    0.990848 0.485223 0.389723 0.151664
H25   H     H_    0.594449 0.673154 0.640148 0.061417
H26   H     H_    0.134544 0.512311 0.340426 0.122681
H27   H     H_    0.972339 0.674360 0.741198 0.121310
H28   H     H_    0.770298 0.429727 0.850887 0.125768
H29   H     H_    0.612734 0.271588 0.002701 0.101931
H30   H     H_    0.190054 0.311553 0.250734 0.115635
H31   H     H_    0.460680 0.557617 0.146082 0.124934
H32   H     H_    0.727521 0.647678 0.599181 -0.069470
H33   H     H_    0.499522 0.776058 0.890215 0.115766
H34   H     H_    0.403049 0.034848 0.655785 0.078065
H35   H     H_    0.543505 0.815470 0.715023 0.119157
H36   H     H_    0.514447 0.638461 0.059551 0.072285
H37   H     H_    0.108236 0.323617 0.560217 0.118961
H38   H     H_    0.047263 0.690423 0.421288 0.087454
H39   H     H_    0.779621 0.817298 0.499986 0.062660
H40   H     H_    0.711703 0.456362 0.502133 0.105927
H41   H     H_    0.541047 0.521826 0.686176 0.086263
H42   H     H_    0.429848 0.570462 0.468769 0.098906
H43   H     H_    0.735498 0.899288 0.397842 0.003822
H44   H     H_    0.534758 0.866916 0.421583 0.046135
H45   H     H_    0.522714 0.126873 0.663311 0.019928
H46   H     H_    0.649216 0.837956 0.323589 0.136879
H47   H     H_    0.017858 0.075278 0.730003 0.030739
H48   H     H_    0.517005 0.339348 0.373196 -0.073490
H49   H     H_    0.623759 0.172736 0.279683 0.136580
H50   H     H_    0.462141 0.119203 0.111728 0.058895
H51   H     H_    0.717463 0.346184 0.936258 0.079291
H52   H     H_    0.355444 0.765566 0.966812 0.006341
H53   H     H_    0.388515 0.203222 0.438350 -0.113952
H54   H     H_    0.853972 0.870652 0.595934 0.065390
H55   H     H_    0.648627 0.168955 0.569848 0.044608
H56   H     H_    0.557395 0.947132 0.737931 0.159118
H57   H     H_    0.541726 0.452818 0.610275 0.028639
H58   H     H_    0.455403 0.031585 0.748780 0.071909
H59   H     H_    0.670352 0.047174 0.742725 0.162700
H60   H     H_    0.243347 0.992854 0.374232 0.039186
N1    N     N_R   0.444968 0.296586 0.202850 -0.416828
N2    N     N_R   0.714003 0.686229 0.790345 -0.423546
O1    O     O_2   0.431310 0.922990 0.623550 -0.459145
O2    O     O_2   0.856746 0.307863 0.501248 -0.492965
O3    O     O_3   0.724273 0.384850 0.410449 -0.603632
O4    O     O_3   0.663280 0.983100 0.563360 -0.424329
O5    O     O_3   0.016420 0.932050 0.462720 -0.469629
O6    O     O_2   0.959730 0.164640 0.549160 -0.449933
O7    O     O_3   0.141026 0.098674 0.635773 -0.670235
O8    O     O_2   0.924908 0.208621 0.327591 -0.495181
O9    O     O_3   0.021372 0.349581 0.354308 -0.594302
O10   O     O_2   0.491091 0.176140 0.184663 -0.613588
O11   O     O_2   0.764641 0.561344 0.776695 -0.622845
O12   O     O_3   0.047302 0.904910 0.370134 -0.641518
O13   O     O_2   0.412393 0.424282 0.215831 -0.619061
O14   O     O_2   0.644419 0.801854 0.810626 -0.572332
O15   O     O_3   0.126250 0.812630 0.574830 -0.476079
O16   O     O_2   0.231263 0.815091 0.671938 -0.492807
O17   O     O_3   0.651481 0.043383 0.643815 -0.640450
O18   O     O_3   0.200685 0.663306 0.655759 -0.578867
O19   O     O_2   0.229950 0.835370 0.450810 -0.453408
O20   O     O_3   0.517580 0.797570 0.545130 -0.476573
O21   O     O_2   0.331110 0.694825 0.496242 -0.492730
O22   O     O_2   0.913978 0.961143 0.768038 -0.556472
O23   O     O_3   0.477994 0.617658 0.585025 -0.609711
O24   O     O_2   0.666992 0.133353 0.077096 -0.565385
O25   O     O_2   0.246132 0.649488 0.997461 -0.561673
O26   O     O_2   0.283494 0.086767 0.442592 -0.506272
O27   O     O_2   0.473608 0.104204 0.536718 -0.503520
O28   O     O_2   0.767108 0.431058 0.640874 -0.598965
O29   O     O_2   0.758370 0.077020 0.376420 -0.468167
O30   O     O_3   0.526390 0.016840 0.436620 -0.452405
O31   O     O_3   0.063420 0.187310 0.425160 -0.456250
O32   O     O_3   0.548758 0.962523 0.351896 -0.626891
O33   O     O_3   0.173250 0.067890 0.537260 -0.386740
O34   O     O_3   0.672100 0.202370 0.454860 -0.490678
P1    P     P_3+3 0.610630 0.953360 0.619150 1.042492
P2    P     P_3+3 0.057260 0.861390 0.437850 1.007189
P3    P     P_3+3 0.496130 0.701635 0.527967 0.959894
P4    P     P_3+3 0.579040 0.046590 0.380840 1.005500
P5    P     P_3+3 0.694605 0.302816 0.467864 0.947549
P6    P     P_3+3 0.117328 0.761919 0.641374 0.962109
P7    P     P_3+3 0.142038 0.145433 0.568426 0.986872
P8    P     P_3+3 0.067100 0.245677 0.358986 0.952568

loop_
_geom_bond_atom_site_label_1
_geom_bond_atom_site_label_2
_ccdc_geom_bond_type
C68   H53   S    
C71   H26   S    
C53   C54   D    
C26   O14   D    
C63   H5    S    
C10   C72   A    
C9    C36   A    
C67   O9    S    
O3    P5    S    
C52   H34   S    
C19   C24   A    
C65   H50   S    
C52   O17   S    
C4    O23   S    
C66   O25   D    
O32   P4    S    
C2    O13   D    
C30   P6    S    
C24   C25   A    
C69   O27   D    
C61   H59   S    
C17   C19   A    
C56   H19   S    
C22   C24   A    
C32   C33   S    
C35   C38   A    
C36   C37   A    
C6    P4    S    
C55   C57   A    
O6    P7    D    
C45   C56   S    
C52   C61   S    
C54   H42   S    
Ba1   Ba2   S    
C61   H56   S    
Ba1   O19   S    
C22   C27   A    
C11   C38   A    
C17   C35   A    
C7    H49   S    
C9    C13   A    
O19   P2    D    
C32   H35   S    
C6    C7    D    
O9    P8    S    
C23   H10   S    
C21   C22   A    
C67   C71   S    
C65   O24   D    
C40   H12   S    
C7    C8    S    
Ba2   O30   S    
C50   C53   S    
C37   C43   A    
C3    H30   S    
C6    C14   D    
C63   H6    S    
C52   H45   S    
C62   O12   S    
C56   H17   S    
C23   O7    S    
C15   C31   D    
C68   O26   D    
O33   P7    S    
C27   N2    Am   
O34   P5    S    
C34   H13   S    
C16   C70   S    
C71   H24   S    
C4    C16   S    
C62   H60   S    
O20   P3    S    
O30   P4    S    
C49   C50   S    
C17   C20   A    
C14   C68   S    
C8    N1    S    
C13   C39   A    
C67   H20   S    
C40   H23   S    
C3    C5    S    
C18   C37   A    
C43   H36   S    
C41   C66   S    
C20   H51   S    
C28   H44   S    
C67   H21   S    
O29   P4    D    
C60   P3    S    
C44   C49   D    
Ba1   P1    S    
O5    P2    S    
O15   P6    S    
C5    P8    S    
C58   C59   A    
O16   P6    D    
C33   N2    S    
Ba1   O20   S    
C41   C42   A    
C35   C36   A    
C58   H38   S    
C69   H55   S    
C46   C60   A    
C29   C30   S    
C72   N1    Am   
O17   P1    S    
C1    H8    S    
C31   C32   D    
C62   H2    S    
C64   H47   S    
C59   P2    S    
C61   H58   S    
C18   C19   A    
C49   P5    S    
C4    H32   S    
Ba2   O29   S    
C44   C69   S    
C1    C12   S    
C39   H31   S    
Ba2   O34   S    
C2    N1    Am   
C5    C14   S    
C28   H43   S    
O8    P8    D    
O4    P1    S    
C70   O28   D    
Ba2   O6    S    
C45   H16   S    
C29   C33   D    
C1    H3    S    
C66   H52   S    
C64   O22   D    
C18   C41   A    
Ba1   O1    S    
C50   C51   S    
C70   H57   S    
C11   C65   S    
C42   H33   S    
Ba2   O5    S    
C57   C60   A    
C63   H4    S    
C1    H14   S    
C26   N2    Am   
C16   H15   S    
C72   O10   D    
C48   P7    S    
C45   H48   S    
C16   H41   S    
C27   O11   D    
C9    C10   A    
C15   H54   S    
C53   H40   S    
O18   P6    S    
C34   H11   S    
C44   C48   S    
Ba1   P2    S    
C71   H22   S    
C54   C57   S    
C47   H37   S    
Ba2   O4    S    
C4    H25   S    
C2    C13   A    
C28   O32   S    
C3    C8    D    
C23   C34   S    
Ba2   P4    S    
C38   H29   S    
C40   H46   S    
C46   C59   A    
Ba1   O30   S    
C29   H27   S    
C47   C51   S    
C62   C63   S    
Ba1   O33   S    
O12   P2    S    
Ba1   O15   S    
C34   C64   S    
O7    P7    S    
O1    P1    D    
Ba1   O5    S    
Ba2   O33   S    
C21   H28   S    
C55   C58   A    
O31   P8    S    
C10   C11   A    
C47   C48   D    
O23   P3    S    
C45   O3    S    
O2    P5    D    
C23   H9    S    
C15   C30   S    
C39   C43   A    
C20   C21   A    
C28   C40   S    
Ba1   O4    S    
C12   H7    S    
C25   C42   A    
C56   H18   S    
Ba2   O31   S    
C12   O18   S    
C12   H1    S    
O21   P3    D    
C46   H39   S    
C25   C26   A    
C31   P1    S    
