data_mof_unit_21005.cif
_audit_creation_date              2012-12-10T19:08:36-0500
_audit_creation_method            fapswitch 2.2
_symmetry_space_group_name_H-M    P1
_symmetry_Int_Tables_number       1
_space_group_crystal_system       triclinic
_cell_length_a                    15.958844
_cell_length_b                    10.834743
_cell_length_c                    9.586586
_cell_angle_alpha                 89.343223
_cell_angle_beta                  89.047327
_cell_angle_gamma                 90.96325
_cell_volume                      1657.03867014

loop_
_atom_site_label
_atom_site_type_symbol
_atom_type_description
_atom_site_fract_x
_atom_site_fract_y
_atom_site_fract_z
_atom_type_partial_charge
C1    C     C_R   0.500917 0.262339 0.500540 0.803422
C2    C     C_R   0.042109 0.401283 0.557471 -0.242770
C3    C     C_1   0.822977 0.499793 0.498736 -0.037574
C4    C     C_1   0.176990 0.502805 0.505484 -0.016323
C5    C     C_1   0.252147 0.501405 0.503569 -0.143264
C6    C     C_1   0.747827 0.499304 0.497593 -0.163402
C7    C     C_R   0.502060 0.061371 0.625443 0.094228
C8    C     C_R   0.508297 0.129131 0.500933 -0.063942
C9    C     C_R   0.526199 0.066422 0.376383 -0.205376
C10   C     C_R   0.526756 0.937632 0.375557 -0.186456
C11   C     C_R   0.509552 0.870568 0.499242 -0.062400
C12   C     C_R   0.341369 0.500197 0.501013 0.854022
C13   C     C_R   0.502595 0.934334 0.624502 0.019773
C14   C     C_3   0.439369 0.923183 0.741538 -0.221424
C15   C     C_3   0.437329 0.063543 0.740043 -0.442772
C16   C     C_R   0.569644 0.536878 0.070887 0.200254
C17   C     C_R   0.434163 0.453685 0.078614 -0.096953
C18   C     C_R   0.433502 0.452924 0.931010 0.055106
C19   C     C_R   0.569888 0.536436 0.923828 0.233989
C20   C     C_3   0.613141 0.659492 0.914876 0.248474
C21   C     C_3   0.612291 0.660179 0.073847 -0.564279
C22   C     C_R   0.501852 0.737427 0.499342 0.782446
C23   C     C_R   0.658615 0.499731 0.499104 0.806697
C24   C     C_R   0.954769 0.399807 0.555294 -0.163968
C25   C     C_R   0.912505 0.501501 0.501792 0.088268
C26   C     C_R   0.957315 0.605298 0.451774 -0.253292
C27   C     C_R   0.044856 0.608798 0.456717 0.476789
C28   C     C_R   0.087284 0.504839 0.507208 0.042068
Cu1   Cu    Cu3+1 0.500000 0.499980 0.640670 1.002989
Cu2   Cu    Cu3+1 0.500000 0.500020 0.359330 0.962577
H1    H     H_    0.074436 0.321382 0.597221 0.162130
H2    H     H_    0.462222 0.104942 0.836836 0.197834
H3    H     H_    0.380957 0.416523 0.137674 0.167807
H4    H     H_    0.573846 0.730876 0.864708 0.096001
H5    H     H_    0.675543 0.655374 0.120319 0.213602
H6    H     H_    0.571448 0.732467 0.117811 0.172956
H7    H     H_    0.920274 0.319209 0.594209 0.149237
H8    H     H_    0.924443 0.683587 0.409253 0.148444
H9    H     H_    0.536267 0.116163 0.278739 0.161885
H10   H     H_    0.536888 0.891297 0.277572 0.149372
H11   H     H_    0.466843 0.884840 0.838262 0.136030
H12   H     H_    0.377137 0.101676 0.703954 0.250381
N1    N     N_R   0.500520 0.500930 0.147930 -0.192623
N2    N     N_R   0.500520 0.500890 0.852020 -0.254597
O1    O     O_R   0.500000 0.319640 0.618810 -0.549008
O2    O     O_R   0.500010 0.319680 0.381230 -0.592997
O3    O     O_R   0.380300 0.499950 0.618760 -0.547171
O4    O     O_R   0.380310 0.499990 0.381180 -0.575320
O5    O     O_R   0.499990 0.680320 0.618770 -0.594511
O6    O     O_R   0.500000 0.680360 0.381190 -0.573962
O7    O     O_R   0.619690 0.500010 0.618820 -0.550307
O8    O     O_R   0.619700 0.500050 0.381240 -0.579937
C29   C     C_2   0.357320 0.400633 0.869647 0.885941
O9    O     O_2   0.361580 0.311812 0.793246 -0.621937
O10   O     O_R   0.279376 0.449428 0.905092 -0.758201
H13   H     H_    0.231376 0.405510 0.857226 0.326541
O11   O     O_3   0.694967 0.648643 0.858028 -0.576635
C30   C     C_3   0.731886 0.767041 0.835207 0.076284
H14   H     H_    0.799630 0.761027 0.858747 0.164799
H15   H     H_    0.705990 0.839138 0.905482 0.123019
C31   C     C_3   0.723353 0.805733 0.682106 -0.344901
H16   H     H_    0.758832 0.741311 0.615063 0.219485
H17   H     H_    0.656539 0.800687 0.652760 0.215129
C32   C     C_3   0.756619 0.936843 0.655520 -0.931400
H18   H     H_    0.720433 0.003486 0.718716 0.259796
H19   H     H_    0.749884 0.961226 0.543483 0.259752
H20   H     H_    0.823976 0.943881 0.682360 0.256335
O12   O     O_3   0.088314 0.709814 0.400889 -0.607331
C33   C     C_3   0.112914 0.789843 0.509082 0.081011
H21   H     H_    0.171782 0.837537 0.473845 0.219587
H22   H     H_    0.127624 0.740663 0.608494 0.123044
C34   C     C_3   0.046112 0.887324 0.535254 -0.384288
H23   H     H_    0.030907 0.933783 0.435065 0.237182
H24   H     H_    0.988090 0.842184 0.578289 0.208514
C35   C     C_3   0.076392 0.984169 0.638134 -0.869058
H25   H     H_    0.091066 0.939903 0.739730 0.264477
H26   H     H_    0.026537 0.052894 0.655470 0.244633
H27   H     H_    0.133289 0.033102 0.596141 0.272232
C36   C     C_2   0.357654 0.860992 0.703046 0.893653
O13   O     O_2   0.319752 0.894515 0.599761 -0.631037
O14   O     O_R   0.326154 0.763418 0.785987 -0.736656
H28   H     H_    0.271822 0.727467 0.749460 0.327878

loop_
_geom_bond_atom_site_label_1
_geom_bond_atom_site_label_2
_ccdc_geom_bond_type
O10   H13   S    
C16   C21   S    
C31   C32   S    
C1    C8    S    
C19   C20   S    
C12   O4    A    
C3    C6    T    
O14   H28   S    
C23   O8    A    
C15   H2    S    
C21   H6    S    
Cu1   O5    S    
C29   O9    D    
C26   C27   A    
Cu1   O3    S    
Cu2   O4    S    
C34   C35   S    
C1    O2    A    
C30   H15   S    
C9    H9    S    
C10   H10   S    
C33   H22   S    
C27   O12   S    
C18   C29   S    
O12   C33   S    
C8    C9    A    
C9    C10   A    
C22   O6    A    
C20   H4    S    
C30   C31   S    
C7    C15   S    
Cu2   O6    S    
C13   C14   S    
C33   H21   S    
C17   H3    S    
C12   O3    A    
C4    C28   S    
C24   H7    S    
C29   O10   S    
C32   H20   S    
C3    C25   S    
C24   C25   A    
C5    C12   S    
C34   H24   S    
C36   O14   S    
C34   H23   S    
C25   C26   A    
Cu1   O1    S    
C2    H1    S    
C32   H19   S    
C33   C34   S    
C35   H25   S    
C17   N1    A    
Cu1   Cu2   S    
C18   N2    A    
C23   O7    A    
C31   H17   S    
C17   C18   A    
C14   C36   S    
C35   H26   S    
C16   N1    A    
C14   H11   S    
C22   O5    A    
Cu1   N2    S    
C2    C24   A    
Cu2   N1    S    
C19   N2    A    
Cu1   O7    S    
Cu2   O8    S    
Cu2   O2    S    
C26   H8    S    
C15   H12   S    
C4    C5    T    
C21   H5    S    
C11   C22   S    
C32   H18   S    
C30   H14   S    
C11   C13   A    
C1    O1    A    
O11   C30   S    
C16   C19   A    
C6    C23   S    
C31   H16   S    
C35   H27   S    
C7    C8    A    
C10   C11   A    
C36   O13   D    
C7    C13   A    
C20   C21   S    
C27   C28   A    
C14   C15   S    
C2    C28   A    
C20   O11   S    
