data_mof_unit_10048.cif
_audit_creation_date              2012-12-10T17:12:00-0500
_audit_creation_method            fapswitch 2.2
_symmetry_space_group_name_H-M    P1
_symmetry_Int_Tables_number       1
_space_group_crystal_system       triclinic
_cell_length_a                    11.703583
_cell_length_b                    12.988535
_cell_length_c                    15.871065
_cell_angle_alpha                 92.909123
_cell_angle_beta                  74.396026
_cell_angle_gamma                 100.609482
_cell_volume                      2283.95422005

loop_
_atom_site_label
_atom_site_type_symbol
_atom_type_description
_atom_site_fract_x
_atom_site_fract_y
_atom_site_fract_z
_atom_type_partial_charge
C1    C     C_R   0.522832 0.701020 0.498801 0.856696
C2    C     C_R   0.477173 0.298975 0.501184 0.857746
C3    C     C_R   0.359060 0.525006 0.086678 -0.188243
C4    C     C_R   0.649261 0.540039 0.914103 -0.191307
C5    C     C_R   0.277082 0.521573 0.037219 -0.205909
C6    C     C_R   0.731599 0.545744 0.963546 -0.208830
C7    C     C_R   0.461693 0.184995 0.505240 -0.129076
C8    C     C_R   0.538318 0.814989 0.494709 -0.128197
C9    C     C_R   0.660468 0.986713 0.456401 -0.197551
C10   C     C_R   0.339544 0.013257 0.543501 -0.198023
C11   C     C_R   0.652245 0.878737 0.461382 0.394412
C12   C     C_R   0.347754 0.121226 0.538496 0.394285
C13   C     C_R   0.434866 0.860638 0.522102 -0.276301
C14   C     C_R   0.565153 0.139350 0.477869 -0.275706
C15   C     C_R   0.443228 0.968271 0.516467 0.097809
C16   C     C_R   0.556791 0.031710 0.483477 0.097756
C17   C     C_R   0.944511 0.597888 0.580775 -0.319158
C18   C     C_R   0.055465 0.402091 0.419265 -0.317745
C19   C     C_R   0.826000 0.588922 0.573632 0.603938
C20   C     C_R   0.173955 0.411017 0.426433 0.603944
C21   C     C_R   0.857989 0.457299 0.465178 -0.011213
C22   C     C_R   0.142031 0.542737 0.534802 -0.011149
C23   C     C_R   0.427402 0.496011 0.667993 0.818021
C24   C     C_R   0.572781 0.505505 0.332017 0.818394
C25   C     C_R   0.978161 0.464429 0.470730 0.002696
C26   C     C_R   0.021848 0.535603 0.529264 0.004337
C27   C     C_R   0.385637 0.499481 0.763860 -0.048755
C28   C     C_R   0.615972 0.513887 0.236306 -0.051832
C29   C     C_R   0.229292 0.508835 0.897812 -0.179731
C30   C     C_R   0.776864 0.538844 0.102665 -0.178823
C31   C     C_R   0.264900 0.501851 0.806922 -0.174228
C32   C     C_R   0.739020 0.528554 0.193346 -0.168923
C33   C     C_R   0.470030 0.504348 0.812499 -0.201261
C34   C     C_R   0.531597 0.510069 0.187776 -0.213418
C35   C     C_R   0.437599 0.516008 0.903839 0.083728
C36   C     C_R   0.567453 0.524134 0.096685 0.082412
C37   C     C_R   0.314366 0.515469 0.946486 0.158336
C38   C     C_R   0.692262 0.536255 0.054104 0.160233
C39   C     C_R   0.523637 0.526008 0.953852 0.065572
C40   C     C_R   0.482740 0.524286 0.046796 0.067425
Cu1   Cu    Cu3+1 0.386820 0.492450 0.493500 1.023985
Cu2   Cu    Cu3+1 0.613180 0.507550 0.506500 1.023882
H1    H     H_    0.183342 0.522696 0.070466 0.145680
H2    H     H_    0.826963 0.556724 0.930407 0.146488
H3    H     H_    0.975783 0.653580 0.626456 0.170907
H4    H     H_    0.024161 0.346349 0.373628 0.172850
H5    H     H_    0.437801 0.493851 0.222574 0.180888
H6    H     H_    0.560517 0.496699 0.777556 0.170799
H7    H     H_    0.805832 0.531850 0.229659 0.164722
H8    H     H_    0.198164 0.498331 0.770512 0.161747
H9    H     H_    0.135186 0.509470 0.930122 0.133168
H10   H     H_    0.872442 0.549027 0.070417 0.133130
H11   H     H_    0.322597 0.531486 0.156270 0.153101
H12   H     H_    0.687809 0.550234 0.844699 0.168286
H13   H     H_    0.652744 0.187803 0.452035 0.165880
H14   H     H_    0.347279 0.812190 0.547965 0.165540
H15   H     H_    0.747799 0.035346 0.430398 0.177892
H16   H     H_    0.252209 0.964615 0.569470 0.177577
H17   H     H_    0.175800 0.597375 0.580014 0.131396
H18   H     H_    0.824230 0.402667 0.419960 0.132650
N1    N     N_R   0.216750 0.481110 0.483710 -0.210942
N2    N     N_R   0.783250 0.518890 0.516290 -0.210392
O1    O     O_R   0.419950 0.645670 0.495380 -0.613458
O2    O     O_R   0.580050 0.354330 0.504620 -0.612717
O3    O     O_R   0.611110 0.658410 0.506370 -0.486212
O4    O     O_R   0.388890 0.341590 0.493630 -0.485979
O5    O     O_R   0.350820 0.490050 0.621260 -0.588957
O6    O     O_R   0.649180 0.509950 0.378740 -0.589905
O7    O     O_R   0.541970 0.502800 0.632250 -0.556844
O8    O     O_R   0.458030 0.497200 0.367750 -0.557442
Cl1   Cl    Cl    0.263328 0.328288 0.359215 -0.580586
Cl2   Cl    Cl    0.736511 0.671451 0.641034 -0.586827
Cl3   Cl    Cl    0.213597 0.172014 0.579349 -0.555131
Cl4   Cl    Cl    0.786345 0.827898 0.420380 -0.557536

loop_
_geom_bond_atom_site_label_1
_geom_bond_atom_site_label_2
_ccdc_geom_bond_type
C8    C13   A    
C5    C37   A    
C1    C8    S    
Cu1   Cu2   S    
C23   O7    A    
C2    C7    S    
Cu1   N1    S    
C24   O8    A    
Cu1   O5    S    
C27   C33   A    
C17   C26   A    
C35   C37   A    
C9    C16   A    
C17   H3    S    
C10   C15   A    
C19   N2    A    
C15   C16   A    
C18   H4    S    
C30   C38   A    
C23   O5    A    
C20   N1    A    
C9    H15   S    
C21   C25   A    
C17   C19   A    
C7    C14   A    
C10   H16   S    
Cu2   O3    S    
C1    O3    A    
C6    C38   A    
C20   Cl1   S    
C23   C27   S    
Cu2   N2    S    
C18   C20   A    
C13   H14   S    
C14   H13   S    
C5    H1    S    
C28   C34   A    
C6    H2    S    
C12   Cl3   S    
Cu2   O6    S    
C19   Cl2   S    
C18   C25   A    
C1    O1    A    
C2    O2    A    
C7    C12   A    
C27   C31   A    
C28   C32   A    
C21   H18   S    
C4    C6    A    
C22   H17   S    
C3    C5    A    
C25   C26   A    
Cu2   O7    S    
C35   C39   A    
C4    C39   A    
C36   C40   A    
C9    C11   A    
C21   N2    A    
C10   C12   A    
C3    C40   A    
C13   C15   A    
C14   C16   A    
Cu1   O1    S    
C31   H8    S    
Cu2   O2    S    
C39   C40   A    
C29   H9    S    
C30   H10   S    
C4    H12   S    
C24   C28   S    
C2    O4    A    
C11   Cl4   S    
Cu1   O4    S    
C36   C38   A    
C29   C31   A    
C22   N1    A    
C30   C32   A    
C3    H11   S    
C8    C11   A    
C33   C35   A    
C34   C36   A    
C32   H7    S    
C24   O6    A    
C22   C26   A    
C29   C37   A    
C33   H6    S    
C34   H5    S    
Cu1   O8    S    
