data_mof_unit_32796.cif
_audit_creation_date              2012-12-10T17:39:22-0500
_audit_creation_method            fapswitch 2.2
_symmetry_space_group_name_H-M    P1
_symmetry_Int_Tables_number       1
_space_group_crystal_system       triclinic
_cell_length_a                    12.339261
_cell_length_b                    13.167733
_cell_length_c                    27.75745
_cell_angle_alpha                 78.025959
_cell_angle_beta                  102.070605
_cell_angle_gamma                 116.247903
_cell_volume                      3921.42485184

loop_
_atom_site_label
_atom_site_type_symbol
_atom_type_description
_atom_site_fract_x
_atom_site_fract_y
_atom_site_fract_z
_atom_type_partial_charge
C1    C     C_R   0.854485 0.286808 0.501770 0.863098
C2    C     C_R   0.016034 0.421634 0.730438 -0.259101
C3    C     C_R   0.023256 0.518898 0.746349 0.143657
C4    C     C_R   0.047636 0.524211 0.900215 -0.124146
C5    C     C_R   0.957451 0.430767 0.877296 -0.172600
C6    C     C_R   0.889152 0.331007 0.907138 0.398892
C7    C     C_R   0.137535 0.609447 0.872738 -0.051847
C8    C     C_R   0.003344 0.507358 0.644716 -0.268357
C9    C     C_R   0.014202 0.520480 0.353824 -0.308229
C10   C     C_R   0.952935 0.452669 0.026417 -0.052172
C11   C     C_R   0.138614 0.632421 0.024008 0.098683
C12   C     C_R   0.001248 0.502267 0.592189 0.910210
C13   C     C_R   0.047038 0.543063 0.050548 0.018448
C14   C     C_R   0.847900 0.384670 0.050197 0.370462
C15   C     C_R   0.854828 0.376575 0.101761 0.380944
C16   C     C_R   0.957820 0.455855 0.128122 -0.184835
C17   C     C_R   0.045799 0.546597 0.101212 -0.110072
C18   C     C_R   0.130836 0.641546 0.124724 0.009940
C19   C     C_R   0.126727 0.644113 0.174700 0.592727
C20   C     C_R   0.970556 0.454690 0.179763 0.696991
C21   C     C_R   0.925707 0.525819 0.266742 0.328639
C22   C     C_R   0.910894 0.496749 0.317261 0.319904
C23   C     C_R   0.144592 0.713377 0.495094 0.821225
C24   C     C_R   0.131059 0.565720 0.338513 0.409995
C25   C     C_R   0.141698 0.574517 0.288380 -0.236540
C26   C     C_R   0.039191 0.553852 0.252162 0.115675
C27   C     C_R   0.961036 0.439699 0.978001 -0.020682
C28   C     C_R   0.050620 0.529815 0.950836 -0.048853
C29   C     C_R   0.144304 0.623827 0.974122 -0.009804
C30   C     C_R   0.890363 0.334342 0.958034 0.419058
C31   C     C_R   0.236119 0.694398 0.896803 -0.226054
C32   C     C_R   0.214758 0.730928 0.047475 -0.132766
C33   C     C_R   0.212578 0.734438 0.097003 -0.141791
C34   C     C_R   0.002287 0.503522 0.407293 0.875069
C35   C     C_R   0.242702 0.702076 0.947198 0.473498
C36   C     C_R   0.263803 0.034396 0.486188 -0.176651
C37   C     C_R   0.225453 0.835113 0.494681 -0.183763
C38   C     C_R   0.816004 0.079742 0.513351 0.317068
C39   C     C_R   0.739437 0.967940 0.528778 -0.230342
C40   C     C_R   0.616746 0.936680 0.530091 0.407137
C41   C     C_R   0.562854 0.013659 0.506852 -0.052554
C42   C     C_R   0.640078 0.128807 0.490462 -0.101077
C43   C     C_R   0.434648 0.980547 0.499818 0.102532
C44   C     C_R   0.388305 0.064639 0.488177 0.039122
C45   C     C_R   0.945570 0.435770 0.825396 0.618739
C46   C     C_R   0.463791 0.176000 0.472194 -0.205071
C47   C     C_R   0.582740 0.203064 0.466468 0.399007
C48   C     C_R   0.350889 0.866717 0.499436 -0.281801
C49   C     C_R   0.181046 0.919488 0.489399 0.532457
C50   C     C_R   0.769853 0.164426 0.499567 -0.199038
C51   C     C_R   0.331693 0.304866 0.566501 0.246699
C52   C     C_R   0.757521 0.645476 0.433663 0.172117
C53   C     C_R   0.660483 0.677342 0.419690 -0.255542
C54   C     C_R   0.557722 0.621767 0.444392 -0.124042
C55   C     C_R   0.550003 0.532529 0.483513 0.041587
C56   C     C_R   0.131199 0.603241 0.822195 0.620232
C57   C     C_R   0.652492 0.503817 0.496682 0.265699
C58   C     C_R   0.444554 0.470043 0.509613 -0.126486
C59   C     C_R   0.439996 0.373738 0.545198 -0.105867
C60   C     C_R   0.545040 0.352034 0.559571 0.372688
C61   C     C_R   0.647503 0.416666 0.535953 -0.218417
C62   C     C_R   0.342258 0.498075 0.501610 -0.016724
C63   C     C_R   0.243442 0.346849 0.562666 0.615399
C64   C     C_R   0.017170 0.611015 0.711068 0.468472
C65   C     C_R   0.006228 0.604667 0.659871 0.187675
C66   C     C_R   0.000113 0.413167 0.680098 0.377729
Cu1   Cu    Cu3+1 0.098270 0.475420 0.511360 1.034365
Cu2   Cu    Cu3+1 0.901730 0.524580 0.488640 1.033076
H1    H     H_    0.311405 0.752619 0.876759 0.191934
H2    H     H_    0.272558 0.809698 0.027941 0.193689
H3    H     H_    0.274178 0.811467 0.113231 0.198977
H4    H     H_    0.230324 0.598834 0.277707 0.210683
H5    H     H_    0.425218 0.237580 0.456928 0.172521
H6    H     H_    0.230543 0.100218 0.480430 0.182871
H7    H     H_    0.018839 0.350171 0.757441 0.188846
H8    H     H_    0.381832 0.802172 0.499041 0.224509
H9    H     H_    0.777023 0.905393 0.542860 0.226442
H10   H     H_    0.338151 0.568392 0.474652 0.177748
H11   H     H_    0.836134 0.688392 0.413951 0.114891
H12   H     H_    0.484942 0.648794 0.431564 0.155720
H13   H     H_    0.664662 0.745065 0.389381 0.153972
H14   H     H_    0.722408 0.395174 0.550167 0.211037
N1    N     N_R   0.032226 0.521155 0.798796 -0.428726
N2    N     N_R   0.047312 0.551031 0.201340 -0.432461
N3    N     N_R   0.246290 0.438210 0.528570 -0.248897
N4    N     N_R   0.754320 0.561170 0.471730 -0.174696
O1    O     O_R   0.972510 0.318140 0.514280 -0.491806
O2    O     O_2   0.907686 0.358224 0.208514 -0.479197
O3    O     O_2   0.224039 0.677333 0.796957 -0.568183
O4    O     O_2   0.200569 0.738864 0.196227 -0.526468
O5    O     O_R   0.806530 0.359640 0.495100 -0.583587
O6    O     O_R   0.082990 0.479270 0.579320 -0.550890
O7    O     O_R   0.917010 0.520770 0.560140 -0.573668
O8    O     O_R   0.193470 0.640360 0.504900 -0.606220
O9    O     O_R   0.027490 0.681860 0.485720 -0.545916
O10   O     O_R   0.082990 0.479230 0.439860 -0.550577
O11   O     O_R   0.917010 0.520730 0.420680 -0.536638
O12   O     O_2   0.847519 0.356572 0.801640 -0.470295
O13   O     O_3   0.982752 0.312005 0.665972 -0.601279
C67   C     C_3   0.856801 0.246801 0.653929 -0.183487
H15   H     H_    0.818836 0.288233 0.619963 0.162759
H16   H     H_    0.805991 0.231031 0.685452 0.203094
H17   H     H_    0.843039 0.162591 0.645786 0.183658
O14   O     O_3   0.008165 0.699607 0.727198 -0.562657
C68   C     C_3   0.110411 0.804109 0.717981 -0.083968
H18   H     H_    0.081590 0.862185 0.688783 0.215844
H19   H     H_    0.187805 0.795796 0.706957 0.164285
H20   H     H_    0.145124 0.845730 0.752324 0.170540
O15   O     O_3   0.235609 0.598922 0.372509 -0.558158
C69   C     C_3   0.274045 0.715526 0.376157 -0.292554
H21   H     H_    0.202068 0.731332 0.387566 0.132922
H22   H     H_    0.302330 0.769652 0.340546 0.190129
H23   H     H_    0.354187 0.742298 0.405179 0.161961
O16   O     O_3   0.353266 0.770498 0.972246 -0.570659
C70   C     C_3   0.397857 0.884437 0.948398 -0.336280
H24   H     H_    0.323881 0.913323 0.932352 0.156914
H25   H     H_    0.453493 0.895296 0.919470 0.187158
H26   H     H_    0.458990 0.941273 0.976409 0.195087
O17   O     O_3   0.058421 0.889501 0.489484 -0.498297
C71   C     C_3   0.007580 0.922794 0.441820 -0.227255
H27   H     H_    0.907831 0.890588 0.441426 0.190995
H28   H     H_    0.022417 0.885329 0.412642 0.113836
H29   H     H_    0.043815 0.017216 0.432833 0.175657
Cl1   Cl    Cl    0.969616 0.107139 0.513571 -0.528216
O18   O     O_3   0.552454 0.830639 0.555106 -0.594208
C72   C     C_3   0.549132 0.844692 0.603693 -0.233936
H30   H     H_    0.500609 0.898804 0.603405 0.186407
H31   H     H_    0.642630 0.881282 0.624425 0.169243
H32   H     H_    0.498135 0.759553 0.623913 0.193343
Cl2   Cl    Cl    0.635878 0.311608 0.416964 -0.601942
O19   O     O_3   0.147952 0.290152 0.590521 -0.498360
C73   C     C_3   0.194153 0.300832 0.641314 -0.131137
H33   H     H_    0.207862 0.384964 0.649625 0.165950
H34   H     H_    0.281320 0.291311 0.653667 0.142332
H35   H     H_    0.127456 0.231697 0.664255 0.225965
Cl3   Cl    Cl    0.563986 0.256036 0.611963 -0.596966
Cl4   Cl    Cl    0.290779 0.159178 0.591047 -0.484146
O20   O     O_3   0.828669 0.228658 0.887468 -0.553432
C74   C     C_3   0.912634 0.181216 0.889861 -0.252688
H36   H     H_    0.862926 0.096908 0.876101 0.194438
H37   H     H_    0.954969 0.166947 0.928744 0.168834
H38   H     H_    0.984624 0.235615 0.865733 0.157421
O21   O     O_3   0.794719 0.439833 0.330424 -0.496953
C75   C     C_3   0.751088 0.323741 0.323786 -0.066716
H39   H     H_    0.792834 0.278671 0.354957 0.133534
H40   H     H_    0.767207 0.311738 0.287772 0.181473
H41   H     H_    0.650859 0.282286 0.323530 0.220356
Cl5   Cl    Cl    0.799121 0.522129 0.222096 -0.478925
Cl6   Cl    Cl    0.724236 0.279428 0.130102 -0.412769
Cl7   Cl    Cl    0.701307 0.341601 0.014851 -0.551656
O22   O     O_3   0.846402 0.234563 0.991502 -0.579157
C76   C     C_3   0.730370 0.152777 0.974170 -0.100245
H42   H     H_    0.740288 0.086100 0.959081 0.172470
H43   H     H_    0.674362 0.190626 0.946439 0.186775
H44   H     H_    0.679067 0.108922 0.006339 0.194006
Cl8   Cl    Cl    0.992508 0.716753 0.614922 -0.530650

loop_
_geom_bond_atom_site_label_1
_geom_bond_atom_site_label_2
_ccdc_geom_bond_type
C10   C27   A    
C1    O1    A    
C21   C26   A    
C8    C66   A    
C72   H30   S    
Cu2   N4    S    
C41   C42   A    
C48   H8    S    
C34   O11   A    
O16   C70   S    
C53   C54   A    
C52   C53   A    
C68   H19   S    
C39   H9    S    
C28   C29   A    
C34   O10   A    
C65   Cl8   S    
C45   O12   S    
C4    C7    A    
C5    C6    A    
C74   H38   S    
C9    C22   A    
C15   C16   A    
Cu2   O5    S    
C57   N4    A    
C35   O16   S    
C53   H13   S    
C18   C19   A    
C69   H21   S    
C67   H15   S    
Cu2   O11   S    
C44   C46   A    
C16   C17   A    
C70   H25   S    
C22   O21   S    
Cu1   O8    S    
C72   H31   S    
O22   C76   S    
C63   O19   S    
C52   H11   S    
C43   C48   A    
C60   Cl3   S    
C71   H29   S    
C8    C12   S    
C59   C60   A    
C1    O5    A    
C21   C22   A    
C63   N3    A    
C27   C30   A    
C41   C43   A    
C45   N1    A    
C7    C56   A    
C75   H41   S    
O14   C68   S    
C4    C28   A    
C71   H28   S    
C54   H12   S    
C38   C39   A    
C62   N3    A    
Cu1   N3    S    
Cu2   O9    S    
C7    C31   A    
C47   Cl2   S    
Cu1   Cu2   S    
C21   Cl5   S    
C51   C63   A    
C24   C25   A    
C75   H40   S    
C10   C14   A    
C39   C40   A    
C75   H39   S    
C32   H2    S    
C72   H32   S    
C58   C59   A    
C23   C37   S    
C5    C45   A    
C67   H17   S    
C60   C61   A    
C66   O13   S    
C6    O20   S    
C43   C44   A    
C37   C49   A    
O13   C67   S    
C76   H44   S    
C31   H1    S    
C16   C20   A    
C70   H26   S    
C14   Cl7   S    
C67   H16   S    
C17   C18   A    
C25   H4    S    
C68   H20   S    
C74   H37   S    
C37   C48   A    
C69   H23   S    
Cu1   O10   S    
C36   H6    S    
C58   C62   A    
C42   C50   A    
C51   Cl4   S    
C56   O3    S    
C6    C30   A    
C76   H43   S    
C11   C32   A    
C55   C57   A    
C3    N1    S    
O18   C72   S    
C31   C35   A    
C12   O7    A    
C36   C44   A    
C51   C59   A    
C19   N2    A    
C15   Cl6   S    
C71   H27   S    
C56   N1    A    
C1    C50   S    
C54   C55   A    
C64   O14   S    
C46   C47   A    
C40   C41   A    
C26   N2    S    
C62   H10   S    
C24   O15   S    
C4    C5    A    
C2    C66   A    
C10   C13   A    
C74   H36   S    
C9    C24   A    
C57   C61   A    
C38   C50   A    
C68   H18   S    
C29   C35   A    
Cu1   O1    S    
Cu2   O7    S    
C23   O8    A    
C13   C17   A    
C61   H14   S    
C64   C65   A    
C2    H7    S    
C20   N2    A    
C2    C3    A    
C25   C26   A    
C19   O4    S    
O15   C69   S    
C32   C33   A    
C11   C13   A    
C30   O22   S    
C49   O17   S    
C73   H35   S    
C40   O18   S    
C20   O2    S    
C52   N4    A    
Cu1   O6    S    
C23   O9    A    
C9    C34   S    
C73   H33   S    
C42   C47   A    
C3    C64   A    
O19   C73   S    
C18   C33   A    
C69   H22   S    
O20   C74   S    
C33   H3    S    
C8    C65   A    
C12   O6    A    
C76   H42   S    
C11   C29   A    
C73   H34   S    
O17   C71   S    
C55   C58   A    
C27   C28   A    
C14   C15   A    
C70   H24   S    
C46   H5    S    
C38   Cl1   S    
C36   C49   A    
O21   C75   S    
