data_mof_unit_42074.cif
_audit_creation_date              2012-12-10T17:47:02-0500
_audit_creation_method            fapswitch 2.2
_symmetry_space_group_name_H-M    P1
_symmetry_Int_Tables_number       1
_space_group_crystal_system       triclinic
_cell_length_a                    17.874129
_cell_length_b                    17.769892
_cell_length_c                    19.410673
_cell_angle_alpha                 100.161178
_cell_angle_beta                  75.945505
_cell_angle_gamma                 115.835793
_cell_volume                      5365.27833078

loop_
_atom_site_label
_atom_site_type_symbol
_atom_type_description
_atom_site_fract_x
_atom_site_fract_y
_atom_site_fract_z
_atom_type_partial_charge
C1    C     C_R   0.455883 0.280088 0.468019 0.842177
C2    C     C_2   0.447946 0.483851 0.992268 0.592089
C3    C     C_2   0.520599 0.515957 0.016783 -0.191238
C4    C     C_R   0.543698 0.720098 0.532157 0.832365
C5    C     C_R   0.514300 0.510285 0.236015 -0.087789
C6    C     C_R   0.556317 0.808848 0.552381 -0.343906
C7    C     C_R   0.432946 0.189867 0.454016 -0.200151
C8    C     C_R   0.565249 0.921802 0.645838 0.457900
C9    C     C_R   0.577365 0.848846 0.619104 0.295828
C10   C     C_R   0.535443 0.850052 0.508799 0.364666
C11   C     C_R   0.513985 0.918734 0.538614 0.003669
C12   C     C_R   0.454139 0.483213 0.914638 -0.319822
C13   C     C_R   0.533908 0.956825 0.605905 -0.177741
C14   C     C_R   0.474908 0.951767 0.503056 0.027333
C15   C     C_R   0.471293 0.030714 0.527811 -0.011692
C16   C     C_R   0.723190 0.547657 0.467942 0.850312
C17   C     C_R   0.492253 0.067942 0.595913 0.464575
C18   C     C_R   0.521560 0.029240 0.633605 -0.256132
C19   C     C_R   0.433484 0.904639 0.446701 -0.236545
C20   C     C_R   0.400962 0.937680 0.407001 0.458854
C21   C     C_R   0.406162 0.020154 0.425177 -0.095021
C22   C     C_R   0.444174 0.067844 0.484349 -0.023078
C23   C     C_R   0.428847 0.406928 0.871098 0.371957
C24   C     C_R   0.374594 0.056143 0.385109 0.454011
C25   C     C_R   0.385367 0.140566 0.401329 0.362969
C26   C     C_R   0.460954 0.153550 0.494351 -0.237306
C27   C     C_R   0.186462 0.437933 0.551810 -0.027620
C28   C     C_R   0.276531 0.453087 0.532537 0.781599
C29   C     C_R   0.812788 0.566557 0.457113 -0.071912
C30   C     C_R   0.048473 0.378529 0.627177 -0.153241
C31   C     C_R   0.131654 0.386384 0.605884 -0.227426
C32   C     C_R   0.156595 0.480065 0.518444 -0.220477
C33   C     C_R   0.074087 0.476376 0.541178 0.045150
C34   C     C_R   0.440698 0.408741 0.797566 0.361215
C35   C     C_R   0.018894 0.423266 0.595586 0.078414
C36   C     C_R   0.045059 0.523219 0.510353 -0.013839
C37   C     C_R   0.957824 0.506747 0.526025 0.017736
C38   C     C_R   0.906146 0.457987 0.583629 -0.293317
C39   C     C_R   0.936143 0.417719 0.619296 0.413644
C40   C     C_R   0.511286 0.510289 0.311733 0.871598
C41   C     C_R   0.101421 0.588614 0.466925 -0.297559
C42   C     C_R   0.072939 0.631744 0.433929 0.494865
C43   C     C_R   0.985888 0.610647 0.443788 -0.013201
C44   C     C_R   0.926701 0.544434 0.486820 -0.055618
C45   C     C_R   0.497607 0.436026 0.119011 0.420095
C46   C     C_R   0.957379 0.655803 0.411769 -0.181536
C47   C     C_R   0.871605 0.635185 0.420011 -0.304073
C48   C     C_R   0.838944 0.518351 0.487512 0.405826
C49   C     C_R   0.488357 0.488694 0.689167 0.900492
C50   C     C_R   0.479422 0.486382 0.766365 -0.324952
C51   C     C_R   0.505790 0.562370 0.809686 0.313014
C52   C     C_R   0.489396 0.560525 0.884529 0.269801
C53   C     C_3   0.303672 0.213209 0.394811 0.099437
C54   C     C_3   0.236591 0.167274 0.458095 -0.457657
C55   C     C_3   0.170012 0.203067 0.483312 -0.883344
C56   C     C_R   0.493322 0.434447 0.192418 0.327945
C57   C     C_3   0.520532 0.928594 0.766180 0.104535
C58   C     C_3   0.540655 0.984418 0.834643 -0.335061
C59   C     C_3   0.468291 0.952509 0.897661 -0.949086
C60   C     C_3   0.533972 0.198504 0.661235 0.025579
C61   C     C_3   0.509938 0.205663 0.742797 -0.268023
C62   C     C_3   0.575173 0.284148 0.775269 -0.941306
C63   C     C_3   0.255589 0.987418 0.331580 0.147122
C64   C     C_3   0.201555 0.930361 0.392585 -0.394352
C65   C     C_3   0.107300 0.902204 0.394854 -0.945671
C66   C     C_3   0.848235 0.413318 0.729194 0.062095
C67   C     C_R   0.538489 0.586257 0.207457 -0.307661
C68   C     C_3   0.826570 0.374214 0.799427 -0.304957
C69   C     C_3   0.787542 0.420632 0.860613 -0.994459
C70   C     C_3   0.771084 0.376579 0.468222 0.077775
C71   C     C_3   0.704574 0.297624 0.503167 -0.341452
C72   C     C_3   0.691789 0.219231 0.451902 -0.928644
C73   C     C_3   0.146478 0.672070 0.322526 0.055285
C74   C     C_3   0.217507 0.641364 0.304701 -0.346112
C75   C     C_3   0.245065 0.628211 0.224356 -0.929564
C76   C     C_3   0.543128 0.345288 0.042341 0.016624
C77   C     C_3   0.512884 0.257674 0.003357 -0.288190
C78   C     C_R   0.542902 0.587724 0.135247 -0.212787
C79   C     C_3   0.586822 0.235378 0.965320 -0.973532
C80   C     C_3   0.305864 0.458015 0.020881 0.092998
C81   C     C_3   0.229044 0.430745 0.081266 -0.312088
C82   C     C_3   0.156757 0.446058 0.066949 -0.978213
C83   C     C_R   0.521198 0.513059 0.091383 0.035999
H1    H     H_    0.561204 0.646882 0.113791 0.188464
H2    H     H_    0.169135 0.611072 0.460377 0.164184
H3    H     H_    0.554624 0.644520 0.241099 0.181445
H4    H     H_    0.001349 0.708011 0.380805 0.181387
H5    H     H_    0.580883 0.546642 0.981819 0.124341
H6    H     H_    0.585646 0.679326 0.807523 0.349910
H7    H     H_    0.269283 0.215393 0.355124 0.176743
H8    H     H_    0.340320 0.279835 0.411595 0.144405
H9    H     H_    0.203900 0.099615 0.442701 0.220235
H10   H     H_    0.267066 0.173908 0.503593 0.243921
H11   H     H_    0.200480 0.271209 0.498507 0.269386
H12   H     H_    0.533537 0.055621 0.686277 0.185688
H13   H     H_    0.124746 0.171420 0.530435 0.269855
H14   H     H_    0.134372 0.192723 0.440435 0.255427
H15   H     H_    0.370661 0.835759 0.341983 0.326885
H16   H     H_    0.510765 0.864005 0.773585 0.193529
H17   H     H_    0.460878 0.926615 0.755896 0.119207
H18   H     H_    0.599123 0.986006 0.846553 0.244656
H19   H     H_    0.552020 0.049397 0.827107 0.217560
H20   H     H_    0.409595 0.952177 0.887513 0.267258
H21   H     H_    0.485105 0.994380 0.946382 0.272661
H22   H     H_    0.456580 0.888026 0.906891 0.271292
H23   H     H_    0.501814 0.195532 0.529881 0.187773
H24   H     H_    0.656852 0.807720 0.628730 0.361510
H25   H     H_    0.580479 0.798571 0.420953 0.334327
H26   H     H_    0.541984 0.257176 0.641736 0.146232
H27   H     H_    0.596935 0.195342 0.644343 0.130364
H28   H     H_    0.446897 0.207725 0.758860 0.293148
H29   H     H_    0.505098 0.150100 0.765118 0.194497
H30   H     H_    0.637187 0.279829 0.763947 0.259006
H31   H     H_    0.553830 0.289985 0.833834 0.283761
H32   H     H_    0.582975 0.341275 0.753260 0.255842
H33   H     H_    0.451885 0.312283 0.187176 0.370280
H34   H     H_    0.421452 0.839212 0.434825 0.203429
H35   H     H_    0.237242 0.951256 0.281015 0.167373
H36   H     H_    0.240425 0.042256 0.335709 0.154040
H37   H     H_    0.214887 0.873749 0.384818 0.298424
H38   H     H_    0.216589 0.964087 0.444734 0.201381
H39   H     H_    0.091401 0.957398 0.403157 0.261950
H40   H     H_    0.070086 0.861870 0.439572 0.286080
H41   H     H_    0.089478 0.865533 0.344308 0.256622
H42   H     H_    0.788943 0.409514 0.717020 0.151432
H43   H     H_    0.892947 0.480571 0.736188 0.139940
H44   H     H_    0.781232 0.307387 0.794214 0.229118
H45   H     H_    0.850924 0.672218 0.396642 0.152311
H46   H     H_    0.885152 0.376654 0.811852 0.225932
H47   H     H_    0.831756 0.487709 0.866681 0.272020
H48   H     H_    0.774638 0.392169 0.911088 0.268635
H49   H     H_    0.727080 0.416255 0.850649 0.267302
H50   H     H_    0.832641 0.370592 0.452370 0.146605
H51   H     H_    0.751295 0.382105 0.419812 0.162948
H52   H     H_    0.724769 0.290748 0.550695 0.228615
H53   H     H_    0.643565 0.304071 0.521014 0.206755
H54   H     H_    0.667320 0.222949 0.405762 0.274877
H55   H     H_    0.645185 0.163046 0.479855 0.263233
H56   H     H_    0.007855 0.338264 0.669308 0.186032
H57   H     H_    0.752402 0.212239 0.432514 0.267741
H58   H     H_    0.166427 0.727289 0.292144 0.181465
H59   H     H_    0.088384 0.622937 0.304191 0.120648
H60   H     H_    0.272829 0.688018 0.327683 0.235726
H61   H     H_    0.195216 0.580916 0.328256 0.208362
H62   H     H_    0.190741 0.581081 0.200395 0.263056
H63   H     H_    0.295792 0.605194 0.213284 0.272305
H64   H     H_    0.270103 0.688223 0.199369 0.273418
H65   H     H_    0.395470 0.334539 0.948619 0.364417
H66   H     H_    0.579723 0.346985 0.082132 0.149870
H67   H     H_    0.153330 0.352977 0.632415 0.176862
H68   H     H_    0.585172 0.392009 0.002919 0.146302
H69   H     H_    0.470680 0.210702 0.042365 0.234224
H70   H     H_    0.476094 0.254646 0.963540 0.242162
H71   H     H_    0.628471 0.279986 0.924532 0.270361
H72   H     H_    0.562312 0.171186 0.938304 0.271415
H73   H     H_    0.624229 0.237126 0.004125 0.273102
H74   H     H_    0.455262 0.338108 0.711768 0.324433
H75   H     H_    0.287365 0.419292 0.971114 0.163051
H76   H     H_    0.325641 0.525532 0.014113 0.161353
H77   H     H_    0.206986 0.362864 0.087161 0.238283
H78   H     H_    0.198740 0.514483 0.473787 0.156163
H79   H     H_    0.247385 0.466355 0.132023 0.232322
H80   H     H_    0.177000 0.513876 0.062261 0.267077
H81   H     H_    0.102088 0.425588 0.111767 0.267975
H82   H     H_    0.136398 0.409818 0.017000 0.274496
H83   H     H_    0.500099 0.675410 0.907085 0.348381
H84   H     H_    0.843194 0.453717 0.604675 0.210422
O1    O     O_3   0.500000 0.500000 0.500000 -0.501124
O2    O     O_R   0.548260 0.471800 0.330740 -0.606442
O3    O     O_R   0.433390 0.433420 0.655640 -0.640483
O4    O     O_R   0.470210 0.546620 0.357990 -0.651535
O5    O     O_R   0.548140 0.548160 0.655640 -0.569614
O6    O     O_3   0.545857 0.637235 0.777818 -0.715210
O7    O     O_3   0.358937 0.174720 0.357658 -0.622931
O8    O     O_3   0.365958 0.890259 0.349077 -0.725626
O9    O     O_3   0.589254 0.961951 0.709881 -0.613571
O10   O     O_3   0.609002 0.818073 0.660141 -0.701697
O11   O     O_3   0.543353 0.829044 0.436081 -0.764908
O12   O     O_R   0.690590 0.583040 0.521630 -0.637734
O13   O     O_3   0.467595 0.130964 0.631714 -0.633271
O14   O     O_3   0.466814 0.360434 0.223471 -0.749883
O15   O     O_3   0.343850 0.011743 0.324111 -0.555648
O16   O     O_3   0.883546 0.367707 0.674349 -0.651583
O17   O     O_3   0.777174 0.446556 0.517704 -0.682853
O18   O     O_3   0.132055 0.698830 0.395810 -0.655059
O19   O     O_3   0.394414 0.328838 0.897323 -0.718393
O20   O     O_3   0.471811 0.361970 0.075837 -0.637370
O21   O     O_3   0.414971 0.332615 0.757651 -0.691368
O22   O     O_3   0.371551 0.445595 0.038548 -0.629292
O23   O     O_R   0.304570 0.412130 0.559980 -0.648489
O24   O     O_3   0.505417 0.632818 0.929946 -0.779774
O25   O     O_R   0.515630 0.331630 0.426410 -0.611168
O26   O     O_R   0.489210 0.673200 0.491990 -0.619765
O27   O     O_R   0.414390 0.306840 0.521640 -0.650196
O28   O     O_R   0.580770 0.688330 0.559970 -0.624554
O29   O     O_R   0.677090 0.493090 0.426400 -0.654997
O30   O     O_R   0.327750 0.511740 0.491990 -0.637566
Zn1   Zn    Zn3+2 0.578510 0.578520 0.558300 1.014385
Zn2   Zn    Zn3+2 0.559220 0.450000 0.422240 0.991169
Zn3   Zn    Zn3+2 0.447700 0.556900 0.461160 0.969746
Zn4   Zn    Zn3+2 0.414570 0.414580 0.558300 0.980982

loop_
_geom_bond_atom_site_label_1
_geom_bond_atom_site_label_2
_ccdc_geom_bond_type
C4    O28   A    
C66   C68   S    
C66   O16   S    
C8    C13   A    
O1    Zn2   S    
C11   C13   A    
C41   C42   A    
C5    C56   A    
C19   C20   A    
C2    O22   S    
H6    O6    S    
C5    C67   A    
C2    C12   S    
C26   H23   S    
C6    C9    A    
C81   C82   S    
C47   H45   S    
C73   H58   S    
C53   C54   S    
C75   H62   S    
C12   C23   A    
C59   H22   S    
C7    C26   A    
O1    Zn1   S    
C13   C18   A    
C29   C47   A    
C59   H21   S    
C36   C37   A    
C62   H31   S    
C55   H11   S    
C71   H52   S    
C49   O3    A    
C11   C14   A    
O25   Zn2   S    
C20   O8    S    
C82   H80   S    
H65   O19   S    
C64   H38   S    
C57   H16   S    
C33   C36   A    
O1    Zn4   S    
C15   C17   A    
H83   O24   S    
C80   O22   S    
C65   H41   S    
C51   O6    S    
C54   H10   S    
C22   C26   A    
C60   H26   S    
C77   H70   S    
C79   H73   S    
C54   C55   S    
C25   O7    S    
C15   C22   A    
C45   C56   A    
C8    C9    A    
O3    Zn4   S    
C53   H8    S    
C70   H50   S    
C81   H79   S    
H74   O21   S    
O5    Zn1   S    
C70   C71   S    
C58   H19   S    
C16   O12   A    
O2    Zn2   S    
O28   Zn1   S    
C72   H55   S    
C3    H5    S    
C81   H77   S    
C21   C22   A    
H24   O10   S    
C18   H12   S    
C36   C41   A    
C38   H84   S    
C67   C78   A    
O29   Zn2   S    
C78   C83   A    
C77   H69   S    
C40   O2    A    
C12   C52   A    
C53   O7    S    
C50   C51   A    
C73   H59   S    
C77   C79   S    
C75   H63   S    
C4    O26   A    
C34   C50   A    
C74   C75   S    
C29   C48   A    
C27   C31   A    
C51   C52   A    
C10   O11   S    
C45   C83   A    
C76   C77   S    
C62   H30   S    
C4    C6    S    
C71   H53   S    
C48   O17   S    
C63   H35   S    
C68   C69   S    
C80   H76   S    
C76   H68   S    
C75   H64   S    
C16   C29   S    
O27   Zn4   S    
C24   O15   S    
C66   H43   S    
C60   C61   S    
C52   O24   S    
O30   Zn3   S    
C35   C39   A    
C43   C44   A    
C54   H9    S    
C37   C38   A    
C16   O29   A    
C23   O19   S    
C57   O9    S    
C63   H36   S    
C80   H75   S    
C72   H57   S    
C30   C31   A    
C69   H48   S    
C23   C34   A    
H33   O14   S    
C55   H14   S    
C17   C18   A    
H25   O11   S    
O23   Zn4   S    
C58   H18   S    
C65   H39   S    
C24   C25   A    
C34   O21   S    
C68   H44   S    
C76   O20   S    
C30   C35   A    
C42   O18   S    
C70   O17   S    
C72   H54   S    
C7    C25   A    
C3    C83   S    
C21   C24   A    
C74   H60   S    
C42   C43   A    
C61   H28   S    
C73   C74   S    
C53   H7    S    
C9    O10   S    
C17   O13   S    
C70   H51   S    
C46   H4    S    
C69   H47   S    
C31   H67   S    
C74   H61   S    
C46   C47   A    
C55   H13   S    
C67   H3    S    
C30   H56   S    
O1    Zn3   S    
C27   C32   A    
C1    C7    S    
C14   C19   A    
C45   O20   S    
O4    Zn3   S    
C80   C81   S    
C28   O23   A    
C6    C10   A    
C49   O5    A    
C73   O18   S    
C8    O9    S    
C32   H78   S    
O12   Zn1   S    
C60   O13   S    
O26   Zn3   S    
C41   H2    S    
C28   O30   A    
C64   H37   S    
C66   H42   S    
C59   H20   S    
C64   C65   S    
C37   C44   A    
C2    C3    D    
C58   C59   S    
C62   H32   S    
C32   C33   A    
C79   H71   S    
H15   O8    S    
C57   H17   S    
C57   C58   S    
C38   C39   A    
C82   H81   S    
C76   H66   S    
C69   H49   S    
C33   C35   A    
C1    O27   A    
C65   H40   S    
C61   C62   S    
C43   C46   A    
C60   H27   S    
C10   C11   A    
C79   H72   S    
C63   C64   S    
C1    O25   A    
C78   H1    S    
C71   C72   S    
C68   H46   S    
C19   H34   S    
C20   C21   A    
C49   C50   S    
C56   O14   S    
C5    C40   S    
C27   C28   S    
C63   O15   S    
C14   C15   A    
C61   H29   S    
C40   O4    A    
C39   O16   S    
C44   C48   A    
C82   H82   S    
