data_mof_unit_59514.cif
_audit_creation_date              2012-12-11T19:09:21-0500
_audit_creation_method            fapswitch 2.2
_symmetry_space_group_name_H-M    P1
_symmetry_Int_Tables_number       1
_space_group_crystal_system       triclinic
_cell_length_a                    8.211199
_cell_length_b                    15.047844
_cell_length_c                    26.958121
_cell_angle_alpha                 98.704488
_cell_angle_beta                  92.819046
_cell_angle_gamma                 81.015628
_cell_volume                      3251.09153843

loop_
_atom_site_label
_atom_site_type_symbol
_atom_type_description
_atom_site_fract_x
_atom_site_fract_y
_atom_site_fract_z
_atom_type_partial_charge
Ba1   Ba    Ba6+2 0.860050 0.456430 0.522540 1.725683
Ba2   Ba    Ba6+2 0.329780 0.543490 0.477450 1.717903
C1    C     C_3   0.651532 0.141860 0.652548 0.231734
C2    C     C_3   0.665065 0.230882 0.633499 0.480923
C3    C     C_3   0.407162 0.737033 0.632332 0.281295
C4    C     C_3   0.433145 0.754385 0.689100 0.196150
C5    C     C_3   0.944215 0.802541 0.350510 0.265936
C6    C     C_3   0.976047 0.823586 0.298791 -0.228249
C7    C     C_3   0.477982 0.785408 0.361412 0.415466
C8    C     C_3   0.427212 0.871826 0.337916 0.252675
C9    C     C_R   0.044952 0.439382 0.178024 0.632022
C10   C     C_R   0.943348 0.598437 0.182911 0.695423
C11   C     C_2   0.765102 0.565172 0.271712 0.369686
C12   C     C_3   0.176210 0.261312 0.656180 0.283720
C13   C     C_3   0.734537 0.593233 0.327782 -0.131276
C14   C     C_1   0.989587 0.489931 0.343478 0.050130
C15   C     C_2   0.035182 0.484944 0.296156 -0.092079
C16   C     C_2   0.917969 0.522970 0.257064 0.211931
C17   C     C_R   0.054411 0.515252 0.104090 -0.089777
C18   C     C_R   0.091269 0.436681 0.127594 -0.035239
C19   C     C_R   0.170826 0.356690 0.099829 -0.015957
C20   C     C_R   0.975148 0.595688 0.131655 -0.083523
C21   C     C_2   0.854074 0.541701 0.361451 -0.291966
C22   C     C_2   0.356389 0.483237 0.641345 -0.282812
C23   C     C_3   0.126474 0.250666 0.708204 -0.243694
C24   C     C_R   0.203804 0.428831 0.972733 0.038351
C25   C     C_R   0.114301 0.594410 0.980913 -0.016680
C26   C     C_R   0.175039 0.510687 0.951120 -0.001102
C27   C     C_R   0.265222 0.347465 0.941334 -0.083529
C28   C     C_R   0.300664 0.347021 0.891165 -0.040341
C29   C     C_R   0.274848 0.427409 0.869639 -0.013564
C30   C     C_R   0.211396 0.509348 0.899565 -0.081906
C31   C     C_R   0.187995 0.590451 0.878285 -0.116147
C32   C     C_R   0.216371 0.587715 0.826627 0.641972
C33   C     C_R   0.313196 0.427771 0.818969 0.578125
C34   C     C_3   0.213245 0.260043 0.408238 0.380367
C35   C     C_2   0.470297 0.489767 0.729091 -0.060371
C36   C     C_3   0.507931 0.492843 0.674753 -0.024409
C37   C     C_1   0.211111 0.522244 0.658415 0.047236
C38   C     C_2   0.175813 0.524845 0.706433 -0.067210
C39   C     C_2   0.312407 0.505923 0.744632 0.220231
C40   C     C_R   0.171766 0.431245 0.024761 0.035960
C41   C     C_R   0.095538 0.513477 0.052908 -0.001741
C42   C     C_R   0.056060 0.593547 0.029975 0.029478
C43   C     C_R   0.210680 0.353956 0.049754 -0.079034
C44   C     C_R   0.919811 0.670551 0.106795 -0.084130
C45   C     C_3   0.227718 0.157838 0.389787 0.551153
C46   C     C_R   0.123095 0.675831 0.960940 0.441929
C47   C     C_R   0.148273 0.673243 0.909842 -0.053085
C48   C     C_R   0.948433 0.667494 0.055547 0.443730
C49   C     C_R   0.352891 0.176856 0.535597 0.038975
C50   C     C_R   0.578295 0.210644 0.490492 0.072606
C51   C     C_R   0.754808 0.770566 0.482545 -0.276741
C52   C     C_R   0.846080 0.829757 0.465579 -0.021074
C53   C     C_R   0.790010 0.923318 0.472724 -0.152033
C54   C     C_R   0.641147 0.959350 0.498125 0.015196
C55   C     C_R   0.556521 0.897968 0.518614 -0.018561
C56   C     C_3   0.972716 0.734047 0.585253 0.277938
C57   C     C_R   0.575113 0.054097 0.504901 0.028619
C58   C     C_R   0.425198 0.084650 0.531244 0.009258
C59   C     C_R   0.349038 0.022518 0.551935 -0.097225
C60   C     C_R   0.414249 0.931656 0.546298 -0.045233
C61   C     C_R   0.648501 0.119074 0.484468 -0.098768
C62   C     C_R   0.432880 0.239223 0.516430 -0.223126
C63   C     C_R   0.616665 0.803880 0.511292 0.023630
C64   C     C_3   0.923708 0.835837 0.601724 -0.311696
C65   C     C_3   0.718725 0.320975 0.366847 0.666305
C66   C     C_3   0.721910 0.282386 0.310774 0.637738
H1    H     H_    0.773900 0.220204 0.609132 0.082550
H2    H     H_    0.302477 0.141139 0.355324 0.104389
H3    H     H_    0.864623 0.704203 0.568661 0.012049
H4    H     H_    0.069033 0.723489 0.556806 0.055866
H5    H     H_    0.813744 0.848368 0.625606 0.161049
H6    H     H_    0.895046 0.871722 0.568755 0.050591
H7    H     H_    0.026256 0.864744 0.623504 0.164204
H8    H     H_    0.847089 0.325942 0.380314 -0.074207
H9    H     H_    0.797752 0.213997 0.305943 0.113310
H10   H     H_    0.551535 0.249476 0.611135 -0.261232
H11   H     H_    0.616058 0.091795 0.620923 -0.009866
H12   H     H_    0.302614 0.787231 0.621581 0.043243
H13   H     H_    0.379732 0.666656 0.621169 0.000384
H14   H     H_    0.481886 0.819593 0.700147 0.108076
H15   H     H_    0.523069 0.698456 0.701572 0.048114
H16   H     H_    0.555890 0.153231 0.681489 0.085473
H17   H     H_    0.164763 0.305903 0.735956 0.102295
H18   H     H_    0.907930 0.733749 0.346259 0.003681
H19   H     H_    0.842655 0.854844 0.366892 0.018473
H20   H     H_    0.077157 0.772790 0.280979 0.164339
H21   H     H_    0.862427 0.821546 0.274885 0.174623
H22   H     H_    0.010995 0.892625 0.301887 0.150172
H23   H     H_    0.614771 0.771048 0.361663 -0.151619
H24   H     H_    0.436942 0.798090 0.400882 0.010431
H25   H     H_    0.490689 0.926832 0.358526 -0.011589
H26   H     H_    0.292193 0.893707 0.340287 0.094692
H27   H     H_    0.127198 0.331850 0.650040 0.064398
H28   H     H_    0.159325 0.454170 0.285519 0.165458
H29   H     H_    0.202627 0.295198 0.116777 0.150999
H30   H     H_    0.571519 0.479019 0.756049 0.095338
H31   H     H_    0.348037 0.282691 0.869060 0.137106
H32   H     H_    0.285856 0.282208 0.954228 0.088129
H33   H     H_    0.273657 0.289906 0.031745 0.088636
H34   H     H_    0.844813 0.729879 0.126466 0.144208
H35   H     H_    0.312532 0.250908 0.654858 -0.028555
H36   H     H_    0.148022 0.736834 0.895562 0.176797
H37   H     H_    0.049017 0.541200 0.718340 0.111913
H38   H     H_    0.843600 0.563445 0.401568 0.074356
H39   H     H_    0.366443 0.443570 0.604136 0.066588
H40   H     H_    0.377037 0.309752 0.519192 0.047524
H41   H     H_    0.237256 0.042889 0.572854 0.119169
H42   H     H_    0.757281 0.100539 0.462244 0.119577
H43   H     H_    0.799959 0.698368 0.477305 0.054256
H44   H     H_    0.867315 0.965636 0.459234 0.105062
H45   H     H_    0.990548 0.256050 0.709571 0.189257
H46   H     H_    0.347862 0.888311 0.563354 0.085171
H47   H     H_    0.185220 0.183835 0.718148 0.157474
H48   H     H_    0.337038 0.277307 0.419418 -0.041349
H49   H     H_    0.131716 0.277964 0.441031 0.040782
N1    N     N_R   0.970132 0.519849 0.205311 -0.421333
N2    N     N_R   0.277319 0.506754 0.797322 -0.434863
O1    O     O_2   0.906490 0.548660 0.619040 -0.458139
O2    O     O_3   0.653214 0.260159 0.391898 -0.618681
O3    O     O_3   0.111265 0.196809 0.620682 -0.581842
O4    O     O_2   0.283210 0.451320 0.380930 -0.385229
O5    O     O_3   0.051220 0.451340 0.441130 -0.527577
O6    O     O_3   0.503420 0.617610 0.414270 -0.468829
O7    O     O_3   0.150496 0.306335 0.368559 -0.610800
O8    O     O_3   0.617160 0.609950 0.527080 -0.461554
O9    O     O_3   0.088220 0.664410 0.439630 -0.477491
O10   O     O_2   0.184536 0.823829 0.473598 -0.478290
O11   O     O_3   0.088582 0.805259 0.380285 -0.577129
O12   O     O_3   0.138490 0.548590 0.558860 -0.503050
O13   O     O_3   0.572560 0.389970 0.472910 -0.485337
O14   O     O_2   0.345680 0.723560 0.528460 -0.484301
O15   O     O_3   0.551240 0.748467 0.609908 -0.677009
O16   O     O_2   0.416788 0.536941 0.323582 -0.425636
O17   O     O_3   0.404857 0.713431 0.334258 -0.569081
O18   O     O_2   0.069368 0.369805 0.197220 -0.515199
O19   O     O_2   0.379555 0.357837 0.794279 -0.591759
O20   O     O_2   0.892031 0.671422 0.207718 -0.563248
O21   O     O_2   0.189486 0.657835 0.807999 -0.502127
O22   O     O_3   0.686290 0.382320 0.585720 -0.488531
O23   O     O_2   0.849900 0.429257 0.670444 -0.506027
O24   O     O_3   0.031985 0.694247 0.627395 -0.578792
O25   O     O_3   0.678897 0.299830 0.674209 -0.594338
O26   O     O_2   0.844020 0.276410 0.471510 -0.459682
O27   O     O_3   0.101490 0.335510 0.560360 -0.502703
O28   O     O_2   0.013170 0.175073 0.526624 -0.452959
P1    P     P_3+3 0.071960 0.575810 0.612130 1.033838
P2    P     P_3+3 0.664360 0.290070 0.457280 1.039149
P3    P     P_3+3 0.145198 0.219082 0.560490 0.972029
P4    P     P_3+3 0.117760 0.424110 0.387870 1.053084
P5    P     P_3+3 0.049968 0.782306 0.439881 0.972298
P6    P     P_3+3 0.680799 0.402935 0.651320 0.986534
P7    P     P_3+3 0.532287 0.723589 0.544383 0.938162
P8    P     P_3+3 0.515559 0.611532 0.349294 1.033696
O29   O     O_3   0.304492 0.109133 0.426821 -0.782813
H50   H     H_    0.320051 0.044057 0.411961 0.313213
Cl1   Cl    Cl    0.028404 0.125812 0.375215 -0.703984
O30   O     O_3   0.618955 0.406015 0.373271 -0.701301
H51   H     H_    0.669411 0.444366 0.401091 0.276106
Cl2   Cl    Cl    0.843156 0.094139 0.678465 -0.644721
O31   O     O_3   0.793440 0.337480 0.283303 -0.719870
H52   H     H_    0.709929 0.391634 0.280113 0.324196
Cl3   Cl    Cl    0.518613 0.268618 0.286314 -0.557959
Cl4   Cl    Cl    0.243730 0.761978 0.719873 -0.594519
Cl5   Cl    Cl    0.484161 0.854293 0.273812 -0.598737
O32   O     O_3   0.649067 0.591024 0.235642 -0.670428
H53   H     H_    0.556207 0.632492 0.252413 0.344608
Cl6   Cl    Cl    0.146808 0.779589 0.999183 -0.564333
O33   O     O_3   0.858126 0.730797 0.028805 -0.663581
H54   H     H_    0.786149 0.776203 0.051851 0.337886

loop_
_geom_bond_atom_site_label_1
_geom_bond_atom_site_label_2
_ccdc_geom_bond_type
C25   C46   A    
C53   C54   A    
C12   O3    S    
C53   H44   S    
C6    H21   S    
C33   N2    Am   
C17   C18   A    
Ba1   O13   S    
C1    H11   S    
C7    H23   S    
C47   H36   S    
C5    C6    S    
O15   P7    S    
Ba2   O4    S    
C44   H34   S    
C56   C64   S    
C27   C28   A    
C11   C16   D    
C4    H14   S    
O3    P3    S    
O29   H50   S    
C35   C36   S    
C60   H46   S    
C23   H47   S    
C33   O19   D    
C28   C29   A    
C56   H3    S    
C11   O32   S    
C5    H18   S    
O33   H54   S    
C8    H26   S    
C31   C47   A    
C64   H6    S    
C10   C20   A    
C66   H9    S    
C22   C37   D    
O16   P8    D    
C54   C55   A    
O8    P7    S    
C34   C45   S    
Ba1   Ba2   S    
O25   P6    S    
C2    H1    S    
C5    O11   S    
C3    H13   S    
O27   P3    S    
Ba1   O26   S    
C56   O24   S    
O9    P5    S    
C5    H19   S    
O30   H51   S    
C49   P3    S    
C14   C15   D    
C37   P1    S    
C22   C36   S    
Ba1   P2    S    
C51   C63   A    
C7    C8    S    
C16   N1    S    
C13   P8    S    
Ba2   O8    S    
C51   H43   S    
C13   C21   S    
C4    Cl4   S    
C59   H41   S    
C57   C58   A    
O23   P6    D    
O13   P2    S    
Ba1   O27   S    
O24   P1    S    
C65   O2    S    
C7    H24   S    
C35   H30   S    
C17   C41   A    
C31   C32   A    
C19   C43   A    
C66   Cl3   S    
C3    O15   S    
O4    P4    D    
C9    C18   A    
Ba2   O14   S    
Ba2   O12   S    
C65   C66   S    
C26   C30   A    
O28   P3    D    
O10   P5    D    
C50   C62   A    
C37   C38   D    
C15   H28   S    
O17   P8    S    
C50   P2    S    
C52   P5    S    
C8    H25   S    
C55   C60   A    
C51   C52   A    
C64   H5    S    
C28   H31   S    
O14   P7    D    
C58   C59   A    
C6    H20   S    
C40   C43   A    
C41   C42   A    
C7    O17   S    
C45   H2    S    
C2    H10   S    
C63   P7    S    
C23   H45   S    
C19   H29   S    
O7    P4    S    
Ba2   O13   S    
C29   C30   A    
C8    Cl5   S    
C17   C20   A    
C23   H17   S    
C15   C16   S    
C10   O20   D    
O12   P1    S    
C48   O33   S    
C22   H39   S    
C39   N2    S    
C3    H12   S    
C34   H49   S    
C56   H4    S    
C43   H33   S    
C10   N1    Am   
C46   C47   A    
C20   C44   A    
O5    P4    S    
O1    P1    D    
C14   C21   D    
Ba2   O5    S    
C11   C13   S    
O11   P5    S    
C29   C33   A    
C6    H22   S    
C40   C41   A    
C1    C2    S    
C34   H48   S    
C12   H27   S    
O32   H53   S    
C24   C40   A    
O31   H52   S    
C42   C48   A    
Ba2   P4    S    
C52   C53   A    
C38   C39   S    
C4    H15   S    
C27   H32   S    
C57   C61   A    
C34   O7    S    
C49   C62   A    
Ba1   O8    S    
C55   C63   A    
Ba1   O12   S    
C50   C61   A    
C2    O25   S    
C49   C58   A    
C66   O31   S    
C44   C48   A    
C24   C26   A    
C54   C57   A    
C30   C31   A    
C61   H42   S    
C9    O18   D    
Ba1   O5    S    
C32   N2    Am   
C21   H38   S    
O22   P6    S    
C12   H35   S    
C3    C4    S    
C64   H7    S    
C32   O21   D    
O2    P2    S    
C14   P4    S    
C12   C23   S    
C35   C39   D    
C59   C60   A    
Ba1   O22   S    
C1    Cl2   S    
C46   Cl6   S    
Ba2   O6    S    
C18   C19   A    
C24   C27   A    
C45   O29   S    
C1    H16   S    
Ba1   P1    S    
C65   O30   S    
C65   H8    S    
C36   P6    S    
C25   C42   A    
C9    N1    Am   
Ba1   O1    S    
O26   P2    D    
O6    P8    S    
C62   H40   S    
C38   H37   S    
C25   C26   A    
C45   Cl1   S    
Ba2   O9    S    
