data_mof_unit_61275.cif
_audit_creation_date              2012-10-26T19:36:59-0400
_audit_creation_method            fapswitch 2.2
_symmetry_space_group_name_H-M    P1
_symmetry_Int_Tables_number       1
_space_group_crystal_system       triclinic
_cell_length_a                    10.825949
_cell_length_b                    17.714964
_cell_length_c                    16.483992
_cell_angle_alpha                 90.670464
_cell_angle_beta                  90.530428
_cell_angle_gamma                 91.071035
_cell_volume                      3160.41066086

loop_
_atom_site_label
_atom_site_type_symbol
_atom_type_description
_atom_site_fract_x
_atom_site_fract_y
_atom_site_fract_z
_atom_type_partial_charge
Br1   Br    Br    0.688907 0.618536 0.697648 -0.509569
Br2   Br    Br    0.311081 0.381471 0.302353 -0.509583
Br3   Br    Br    0.166123 0.701281 0.494832 -0.523460
Br4   Br    Br    0.833873 0.298717 0.505200 -0.523447
C1    C     C_R   0.499128 0.355269 0.499660 0.576792
C2    C     C_R   0.510760 0.231686 0.426116 -0.071445
C3    C     C_R   0.502174 0.727683 0.500822 0.044098
C4    C     C_R   0.497820 0.272316 0.499179 0.044101
C5    C     C_R   0.515507 0.767061 0.427781 -0.127723
C6    C     C_R   0.484527 0.232940 0.572222 -0.127700
C7    C     C_R   0.514903 0.845678 0.427755 -0.105350
C8    C     C_R   0.485126 0.154322 0.572248 -0.105335
C9    C     C_R   0.501413 0.885569 0.500626 0.045824
C10   C     C_R   0.498571 0.114431 0.499374 0.045827
C11   C     C_1   0.500413 0.966167 0.500258 -0.012519
C12   C     C_R   0.500870 0.644731 0.500340 0.576788
C13   C     C_1   0.499568 0.033832 0.499742 -0.012519
C14   C     C_R   0.576317 0.547373 0.831515 -0.113124
C15   C     C_R   0.423677 0.452631 0.168485 -0.113124
C16   C     C_R   0.262015 0.501314 0.499655 0.581928
C17   C     C_R   0.737985 0.498686 0.500344 0.581928
C18   C     C_R   0.576570 0.547865 0.746116 0.304116
C19   C     C_R   0.423424 0.452138 0.253884 0.304111
C20   C     C_R   0.422955 0.451198 0.741309 0.021266
C21   C     C_R   0.577051 0.548798 0.258691 0.021269
C22   C     C_R   0.420643 0.449407 0.827157 -0.151363
C23   C     C_R   0.871705 0.497817 0.500832 0.043198
C24   C     C_R   0.579364 0.550589 0.172843 -0.151362
C25   C     C_R   0.498166 0.498187 0.873352 -0.008669
C26   C     C_R   0.501834 0.501812 0.126648 -0.008669
C27   C     C_1   0.498862 0.499050 0.962792 -0.018169
C28   C     C_1   0.501139 0.500949 0.037208 -0.018169
C29   C     C_R   0.238500 0.693289 0.328230 -0.075745
C30   C     C_R   0.761515 0.306737 0.671802 -0.075749
C31   C     C_R   0.177018 0.654315 0.389759 0.183996
C32   C     C_R   0.822988 0.345700 0.610263 0.184002
C33   C     C_R   0.122936 0.582709 0.373054 0.055065
C34   C     C_R   0.128296 0.502185 0.499167 0.043204
C35   C     C_R   0.877071 0.417308 0.626952 0.055067
C36   C     C_R   0.128991 0.552113 0.294278 -0.091863
C37   C     C_R   0.871027 0.447917 0.705723 -0.091858
C38   C     C_R   0.191255 0.591246 0.233427 -0.113306
C39   C     C_R   0.808774 0.408794 0.766584 -0.113307
C40   C     C_R   0.246517 0.661566 0.250497 -0.130973
C41   C     C_R   0.753510 0.338472 0.749529 -0.130976
C42   C     C_R   0.933610 0.535354 0.438555 -0.115931
C43   C     C_R   0.066391 0.464648 0.561443 -0.115928
C44   C     C_R   0.938318 0.461458 0.562587 0.009822
C45   C     C_R   0.061685 0.538547 0.437412 0.009826
C46   C     C_R   0.488747 0.847023 0.573686 -0.086936
C47   C     C_R   0.511196 0.152975 0.426311 -0.086946
C48   C     C_R   0.489189 0.768313 0.573881 -0.071425
Cu1   Cu    Cu3+1 0.499990 0.499980 0.580420 1.023336
Cu2   Cu    Cu3+1 0.500010 0.500020 0.419580 1.023334
H1    H     H_    0.294856 0.691746 0.203318 0.116077
H2    H     H_    0.641439 0.589739 0.142931 0.109764
H3    H     H_    0.279793 0.748374 0.340550 0.136204
H4    H     H_    0.720219 0.251653 0.659494 0.136193
H5    H     H_    0.087215 0.497384 0.280437 0.150344
H6    H     H_    0.912809 0.502647 0.719552 0.150349
H7    H     H_    0.197098 0.566892 0.173090 0.123980
H8    H     H_    0.802940 0.433159 0.826916 0.123984
H9    H     H_    0.882041 0.564109 0.391787 0.121849
H10   H     H_    0.117960 0.435892 0.608213 0.121852
H11   H     H_    0.478227 0.877772 0.630337 0.121046
H12   H     H_    0.705177 0.308300 0.796717 0.116082
H13   H     H_    0.521682 0.122226 0.369658 0.121046
H14   H     H_    0.478461 0.739372 0.630959 0.164697
H15   H     H_    0.521458 0.260626 0.369037 0.164702
H16   H     H_    0.526046 0.737189 0.370628 0.118427
H17   H     H_    0.474021 0.262813 0.629377 0.118425
H18   H     H_    0.524799 0.875319 0.370982 0.114922
H19   H     H_    0.475262 0.124681 0.629023 0.114920
H20   H     H_    0.637525 0.585659 0.865159 0.131769
H21   H     H_    0.362464 0.414347 0.134841 0.131771
H22   H     H_    0.362569 0.413243 0.706838 0.119743
H23   H     H_    0.637441 0.586750 0.293161 0.119740
H24   H     H_    0.358573 0.410254 0.857069 0.109766
N1    N     N_R   0.499970 0.499970 0.701220 -0.208528
N2    N     N_R   0.500030 0.500030 0.298780 -0.208527
O1    O     O_R   0.499990 0.391240 0.567930 -0.522779
O2    O     O_R   0.500010 0.608760 0.432070 -0.522776
O3    O     O_R   0.500000 0.391270 0.432120 -0.457507
O4    O     O_R   0.500000 0.608730 0.567880 -0.457502
O5    O     O_R   0.319640 0.499990 0.567910 -0.514784
O6    O     O_R   0.680360 0.500010 0.432090 -0.514785
O7    O     O_R   0.319650 0.500020 0.432090 -0.458558
O8    O     O_R   0.680350 0.499980 0.567910 -0.458558

loop_
_geom_bond_atom_site_label_1
_geom_bond_atom_site_label_2
_ccdc_geom_bond_type
C23   C44   A    
C2    H15   S    
Br4   C32   S    
C21   N2    A    
C24   H2    S    
C35   C37   A    
C34   C45   A    
Cu1   Cu2   S    
C21   C24   A    
C42   C45   A    
C22   H24   S    
Cu1   O4    S    
C21   H23   S    
Cu1   N1    S    
C20   C22   A    
C3    C48   A    
C33   C36   A    
Cu2   O7    S    
C1    O3    A    
C16   O7    A    
C12   O4    A    
C33   C45   S    
Cu1   O1    S    
C10   C47   A    
C46   C48   A    
C2    C47   A    
Cu1   O8    S    
C48   H14   S    
C6    H17   S    
C36   C38   A    
C17   C23   S    
C17   O8    A    
Br1   C18   S    
C14   H20   S    
C36   H5    S    
C8    H19   S    
C37   C39   A    
C10   C13   S    
C38   C40   A    
Cu2   O3    S    
Cu2   N2    S    
C43   C44   A    
C5    H16   S    
C43   H10   S    
Cu2   O6    S    
C7    H18   S    
C20   H22   S    
C2    C4    A    
C15   C19   A    
C30   C41   A    
C1    O1    A    
C20   N1    A    
C27   C28   T    
Br3   C31   S    
C16   O5    A    
Br2   C19   S    
C12   O2    A    
C14   C25   A    
C47   H13   S    
C39   C41   A    
C5    C7    A    
C38   H7    S    
C34   C43   A    
C6    C8    A    
C23   C42   A    
C3    C12   S    
C8    C10   A    
C9    C11   S    
C19   N2    A    
Cu2   O2    S    
C11   C13   T    
C17   O6    A    
C29   H3    S    
C31   C33   A    
C14   C18   A    
C29   C40   A    
C32   C35   A    
C37   H6    S    
C18   N1    A    
C1    C4    S    
C42   H9    S    
C15   H21   S    
C25   C27   S    
C26   C28   S    
C7    C9    A    
C40   H1    S    
C24   C26   A    
C29   C31   A    
C16   C34   S    
C30   C32   A    
C46   H11   S    
C9    C46   A    
C3    C5    A    
C22   C25   A    
C4    C6    A    
C41   H12   S    
C30   H4    S    
Cu1   O5    S    
C15   C26   A    
C39   H8    S    
C35   C44   S    
