data_mof_unit_59406.cif
_audit_creation_date              2012-12-10T18:57:10-0500
_audit_creation_method            fapswitch 2.2
_symmetry_space_group_name_H-M    P1
_symmetry_Int_Tables_number       1
_space_group_crystal_system       triclinic
_cell_length_a                    8.793933
_cell_length_b                    10.867689
_cell_length_c                    9.561666
_cell_angle_alpha                 90.645433
_cell_angle_beta                  98.476487
_cell_angle_gamma                 91.033218
_cell_volume                      903.587295645

loop_
_atom_site_label
_atom_site_type_symbol
_atom_type_description
_atom_site_fract_x
_atom_site_fract_y
_atom_site_fract_z
_atom_type_partial_charge
C1    C     C_R   0.494256 0.262532 0.498346 0.803879
C2    C     C_R   0.485197 0.934960 0.368820 -0.194175
C3    C     C_R   0.478832 0.871342 0.495561 -0.097320
C4    C     C_R   0.443509 0.938627 0.611545 0.141816
C5    C     C_3   0.510923 0.939120 0.764159 -0.534459
C6    C     C_3   0.503510 0.078614 0.762506 -0.218896
C7    C     C_R   0.622399 0.548078 0.091651 0.184604
C8    C     C_R   0.385871 0.442622 0.058079 -0.063636
C9    C     C_R   0.385608 0.443078 0.909467 -0.042796
C10   C     C_R   0.622511 0.548928 0.943704 0.215970
C11   C     C_3   0.670850 0.681566 0.953531 0.147104
C12   C     C_R   0.204082 0.503972 0.464064 0.897041
C13   C     C_3   0.677912 0.677273 0.111766 -0.487758
C14   C     C_R   0.496360 0.737970 0.499851 0.832459
C15   C     C_R   0.795987 0.503796 0.536779 0.822684
C16   C     C_2   0.038060 0.506440 0.447032 -0.382586
C17   C     C_2   0.961034 0.519989 0.558667 -0.214105
C18   C     C_R   0.439147 0.065421 0.609403 0.194939
C19   C     C_R   0.473907 0.129785 0.492518 -0.130492
C20   C     C_R   0.483832 0.063366 0.367385 -0.201870
Cu1   Cu    Cu3+1 0.499990 0.499980 0.640670 1.002526
Cu2   Cu    Cu3+1 0.500010 0.500020 0.359330 0.961936
H1    H     H_    0.977386 0.487565 0.341275 0.169342
H2    H     H_    0.291260 0.399124 0.840787 0.170274
H3    H     H_    0.577776 0.739100 0.902826 0.133764
H4    H     H_    0.795687 0.683832 0.172791 0.230149
H5    H     H_    0.592918 0.738031 0.149940 0.184443
H6    H     H_    0.499648 0.109913 0.270830 0.165703
H7    H     H_    0.499415 0.886980 0.272462 0.161017
H8    H     H_    0.430987 0.894969 0.829388 0.215572
H9    H     H_    0.631279 0.906768 0.780321 0.233550
H10   H     H_    0.618160 0.125779 0.781046 0.148003
H11   H     H_    0.292066 0.397690 0.100235 0.148612
N1    N     N_R   0.500980 0.500930 0.148050 -0.186989
N2    N     N_R   0.500990 0.500890 0.852140 -0.212361
O1    O     O_R   0.500000 0.319640 0.618810 -0.582532
O2    O     O_R   0.500020 0.319680 0.381230 -0.590253
O3    O     O_R   0.274830 0.499980 0.591380 -0.559694
O4    O     O_R   0.274850 0.500020 0.353800 -0.590904
O5    O     O_R   0.499980 0.680320 0.618770 -0.557472
O6    O     O_R   0.500000 0.680360 0.381190 -0.593222
O7    O     O_R   0.725150 0.499980 0.646200 -0.576367
O8    O     O_R   0.725170 0.500020 0.408620 -0.577719
Cl1   Cl    Cl    0.853568 0.713284 0.902936 -0.613385
C21   C     C_2   0.033260 0.557354 0.703676 0.527229
H12   H     H_    0.006909 0.505740 0.793915 0.077623
O9    O     O_2   0.115793 0.649469 0.723324 -0.485089
C22   C     C_2   0.391672 0.127935 0.853502 0.422176
H13   H     H_    0.426465 0.135864 0.966959 0.051429
O10   O     O_2   0.262465 0.158234 0.802272 -0.549763

loop_
_geom_bond_atom_site_label_1
_geom_bond_atom_site_label_2
_ccdc_geom_bond_type
C8    C9    A    
C7    C10   A    
C6    H10   S    
C9    H2    S    
C10   N2    A    
Cu1   N2    S    
C3    C14   S    
C19   C20   A    
C1    O2    A    
C4    C18   A    
C12   O4    A    
C22   O10   D    
C2    C3    A    
C15   O8    A    
C11   Cl1   S    
Cu1   O1    S    
C8    N1    A    
C21   H12   S    
C11   C13   S    
Cu1   O5    S    
C6    C22   S    
C14   O6    A    
C6    C18   S    
Cu2   O4    S    
C22   H13   S    
C17   C21   S    
C18   C19   A    
C16   H1    S    
C8    H11   S    
C21   O9    D    
C12   O3    A    
C5    C6    S    
Cu2   N1    S    
C7    N1    A    
C13   H4    S    
C1    C19   S    
Cu2   O6    S    
C10   C11   S    
C11   H3    S    
C2    C20   A    
C3    C4    A    
C12   C16   S    
C7    C13   S    
C2    H7    S    
C15   O7    A    
C15   C17   S    
C5    H8    S    
C9    N2    A    
C4    C5    S    
C20   H6    S    
Cu1   Cu2   S    
Cu2   O2    S    
C14   O5    A    
Cu2   O8    S    
C13   H5    S    
Cu1   O3    S    
Cu1   O7    S    
C1    O1    A    
C16   C17   D    
C5    H9    S    
