data_mof_unit_58493.cif
_audit_creation_date              2012-12-11T17:08:32-0500
_audit_creation_method            fapswitch 2.2
_symmetry_space_group_name_H-M    P1
_symmetry_Int_Tables_number       1
_space_group_crystal_system       triclinic
_cell_length_a                    6.977953
_cell_length_b                    14.525267
_cell_length_c                    16.079708
_cell_angle_alpha                 90.02267
_cell_angle_beta                  90.199204
_cell_angle_gamma                 89.908969
_cell_volume                      1629.77298996

loop_
_atom_site_label
_atom_site_type_symbol
_atom_type_description
_atom_site_fract_x
_atom_site_fract_y
_atom_site_fract_z
_atom_type_partial_charge
O1    O     O_R   0.505700 0.583890 0.413310 -0.540942
O2    O     O_R   0.175960 0.594920 0.586080 -0.550852
O3    O     O_R   0.005660 0.416110 0.586690 -0.536501
C1    C     C_R   0.344810 0.616926 0.614735 0.721893
O4    O     O_R   0.175980 0.594920 0.413930 -0.546856
O5    O     O_R   0.005680 0.416110 0.413310 -0.536662
C2    C     C_R   0.344533 0.616852 0.385154 0.686399
O6    O     O_R   0.505680 0.583890 0.586690 -0.531683
O7    O     O_3   0.339200 0.441330 0.500000 -0.354603
V1    V     V_3+5 0.064350 0.510880 0.500000 1.426571
O8    O     O_R   0.675960 0.405080 0.413920 -0.538556
C3    C     C_R   0.844898 0.382099 0.386108 0.699213
O9    O     O_R   0.675940 0.405080 0.586070 -0.525490
C4    C     C_R   0.845267 0.383556 0.615016 0.720814
V2    V     V_3+5 0.564340 0.489120 0.500000 1.464999
O10   O     O_3   0.839360 0.558670 0.500000 -0.381413
C5    C     C_R   0.015152 0.308996 0.735466 0.056440
C6    C     C_R   0.858268 0.312594 0.680860 -0.094054
C7    C     C_R   0.718328 0.243374 0.687973 -0.178628
H1    H     H_    0.599896 0.241670 0.644148 0.144112
C8    C     C_R   0.727534 0.176891 0.751996 -0.036989
C9    C     C_R   0.878232 0.179407 0.811986 -0.132615
C10   C     C_R   0.022977 0.244892 0.800040 0.034012
C11   C     C_3   0.107397 0.313034 0.859875 -0.156545
C12   C     C_3   0.098170 0.383850 0.788736 -0.293581
C13   C     C_R   0.732641 0.250090 0.187667 0.111308
C14   C     C_R   0.881502 0.185516 0.182842 -0.115087
C15   C     C_R   0.014898 0.183513 0.248260 -0.216242
C16   C     C_R   0.003388 0.245534 0.315590 -0.047504
C17   C     C_R   0.857205 0.313437 0.317831 -0.140641
C18   C     C_R   0.723930 0.314828 0.252230 0.073802
C19   C     C_3   0.511698 0.304741 0.259415 -0.441563
C20   C     C_3   0.522094 0.231490 0.192267 -0.214466
H2    H     H_    0.435027 0.367976 0.238936 0.169727
H3    H     H_    0.469204 0.279424 0.321748 0.196686
C21   C     C_R   0.515847 0.742040 0.693450 0.086732
C22   C     C_R   0.353656 0.686830 0.681800 -0.095966
C23   C     C_R   0.200618 0.698588 0.737595 -0.169748
C24   C     C_R   0.212700 0.762297 0.803526 -0.172558
H4    H     H_    0.098378 0.766816 0.847964 0.138878
C25   C     C_R   0.377953 0.815242 0.816462 -0.100988
C26   C     C_R   0.529216 0.802970 0.760670 0.100015
C27   C     C_3   0.730090 0.774005 0.779065 -0.239029
C28   C     C_3   0.717923 0.710973 0.703825 -0.436053
H5    H     H_    0.833607 0.831533 0.772505 0.133844
C29   C     C_R   0.506800 0.682606 0.258810 0.109439
C30   C     C_R   0.352373 0.682244 0.314369 -0.110464
C31   C     C_R   0.201067 0.744079 0.298260 -0.174744
C32   C     C_R   0.212686 0.808374 0.232835 -0.154424
H6    H     H_    0.097870 0.857743 0.225029 0.130484
C33   C     C_R   0.376248 0.813007 0.181664 -0.099179
C34   C     C_R   0.518663 0.746417 0.194276 0.116359
C35   C     C_3   0.728847 0.758432 0.206493 -0.405545
C36   C     C_3   0.716105 0.688508 0.276512 -0.402016
O11   O     O_R   0.229000 0.916070 0.913330 -0.542563
O12   O     O_R   0.558770 0.905070 0.086080 -0.540127
O13   O     O_R   0.729000 0.083900 0.086690 -0.535322
C37   C     C_R   0.389956 0.883130 0.114873 0.719683
O14   O     O_R   0.558720 0.905070 0.913930 -0.542116
O15   O     O_R   0.728960 0.083900 0.913310 -0.525056
C38   C     C_R   0.389667 0.882181 0.885971 0.729348
O16   O     O_R   0.229050 0.916070 0.086710 -0.546762
O17   O     O_3   0.395460 0.058650 0.000020 -0.359967
V3    V     V_3+5 0.670340 0.989120 0.000000 1.480034
O18   O     O_R   0.058670 0.094960 0.913900 -0.537430
C39   C     C_R   0.889288 0.115273 0.883955 0.711094
O19   O     O_R   0.058720 0.094960 0.086050 -0.544541
C40   C     C_R   0.890025 0.116616 0.114937 0.709344
V4    V     V_3+5 0.170330 0.010930 0.999970 1.466421
O20   O     O_3   0.895340 0.941350 0.999980 -0.380736
H7    H     H_    0.443438 0.249093 0.134181 0.149283
C41   C     C_1   0.483581 0.138073 0.224235 0.358611
N1    N     N_1   0.457020 0.064504 0.249307 -0.391056
H8    H     H_    0.076691 0.654487 0.733168 0.133508
C42   C     C_1   0.745377 0.722385 0.858003 0.340488
N2    N     N_1   0.757168 0.681984 0.919839 -0.358531
H9    H     H_    0.729213 0.636065 0.717888 0.180013
H10   H     H_    0.808851 0.734244 0.651255 0.170460
H11   H     H_    0.078411 0.746208 0.339023 0.135635
C43   C     C_1   0.578199 0.108273 0.754509 0.328432
N3    N     N_1   0.457875 0.053575 0.756195 -0.374138
H12   H     H_    0.765187 0.828891 0.228360 0.172655
H13   H     H_    0.812653 0.733418 0.152311 0.189766
H14   H     H_    0.745900 0.718186 0.338957 0.172718
H15   H     H_    0.791857 0.622912 0.262653 0.174275
C44   C     C_1   0.299691 0.284996 0.888851 0.336134
N4    N     N_1   0.450405 0.263189 0.911821 -0.327572
C45   C     C_1   0.979547 0.335664 0.929785 0.313518
N5    N     N_1   0.879167 0.353288 0.984703 -0.338515
C46   C     C_1   0.284786 0.415624 0.757307 0.345420
N6    N     N_1   0.431869 0.440660 0.733399 -0.355763
H16   H     H_    0.995626 0.441628 0.798535 0.132009
H17   H     H_    0.117437 0.128171 0.250263 0.150265
C47   C     C_1   0.128011 0.230674 0.386240 0.303079
N7    N     N_1   0.227073 0.218569 0.443095 -0.351538

loop_
_geom_bond_atom_site_label_1
_geom_bond_atom_site_label_2
_ccdc_geom_bond_type
C37   O16   A    
C25   C26   A    
C4    C6    S    
C21   C26   A    
C7    H1    S    
C25   C38   S    
C1    O6    A    
C36   H14   S    
C24   C25   A    
C35   C36   S    
C15   C16   A    
O14   V3    S    
C16   C17   A    
C31   H11   S    
C28   H9    S    
C7    C8    A    
O5    C3    A    
C16   C47   S    
V2    O10   S    
C29   C34   A    
C6    C7    A    
C9    C39   S    
C14   C40   S    
C20   C41   S    
O8    V2    S    
C18   C19   S    
C32   C33   A    
C10   C11   S    
O12   V3    S    
O1    V2    S    
V3    O20   S    
O7    V1    S    
O15   C39   A    
C13   C18   A    
C8    C9    A    
C47   N7    T    
C27   C42   S    
C23   C24   A    
O14   C38   A    
O19   C40   A    
C19   H3    S    
O17   V4    S    
C11   C12   S    
C24   H4    S    
O4    C2    A    
C44   N4    T    
C43   N3    T    
C33   C34   A    
O16   V4    S    
C15   H17   S    
O19   V4    S    
C2    C30   S    
O2    C1    A    
C42   N2    T    
C22   C23   A    
C11   C45   S    
C13   C20   S    
C30   C31   A    
C29   C36   S    
C5    C6    A    
C12   C46   S    
C33   C37   S    
C5    C10   A    
C45   N5    T    
C27   H5    S    
O11   V4    S    
O3    C4    A    
C31   C32   A    
O18   C39   A    
O6    V2    S    
O9    V2    S    
C27   C28   S    
C13   C14   A    
C21   C28   S    
C26   C27   S    
O13   C40   A    
O2    V1    S    
C34   C35   S    
O13   V3    S    
C23   H8    S    
C29   C30   A    
C21   C22   A    
C12   H16   S    
C3    C17   S    
O1    C2    A    
C41   N1    T    
O5    V1    S    
C36   H15   S    
O8    C3    A    
C35   H13   S    
O15   V3    S    
C5    C12   S    
C19   C20   S    
C28   H10   S    
O7    V2    S    
O4    V1    S    
O3    V1    S    
V1    O10   S    
C46   N6    T    
C17   C18   A    
O18   V4    S    
O11   C38   A    
C8    C43   S    
O12   C37   A    
V4    O20   S    
C20   H7    S    
O17   V3    S    
C1    C22   S    
C32   H6    S    
C14   C15   A    
C9    C10   A    
C35   H12   S    
O9    C4    A    
C11   C44   S    
C19   H2    S    
