data_mof_unit_30820.cif
_audit_creation_date              2013-03-05T15:45:32-0500
_audit_creation_method            fapswitch 2.2
_symmetry_space_group_name_H-M    P1
_symmetry_Int_Tables_number       1
_space_group_crystal_system       triclinic
_cell_length_a                    10.908161
_cell_length_b                    10.964449
_cell_length_c                    18.829997
_cell_angle_alpha                 89.98238
_cell_angle_beta                  89.791933
_cell_angle_gamma                 60.297451
_cell_volume                      1956.18380188

loop_
_atom_site_label
_atom_site_type_symbol
_atom_site_description
_atom_site_fract_x
_atom_site_fract_y
_atom_site_fract_z
_atom_type_partial_charge
O1    O     O_R   0.507430 0.255570 0.581420 -0.525661
O2    O     O_R   0.280190 0.527390 0.578910 -0.524519
C1    C     C_R   0.232433 0.647683 0.608420 0.549787
O3    O     O_R   0.260310 0.739740 0.584580 -0.425983
O4    O     O_R   0.532250 0.695150 0.573830 -0.441576
C2    C     C_R   0.628672 0.589633 0.609015 0.529878
O5    O     O_R   0.744930 0.503430 0.576380 -0.502282
O6    O     O_R   0.699250 0.276390 0.571950 -0.437773
C3    C     C_R   0.625664 0.232520 0.604350 0.571615
O7    O     O_R   0.499020 0.256400 0.419850 -0.532588
O8    O     O_R   0.272400 0.528160 0.429140 -0.516241
C4    C     C_R   0.229052 0.647264 0.398659 0.550422
O9    O     O_R   0.251910 0.740570 0.423020 -0.437372
O10   O     O_R   0.524460 0.695920 0.424060 -0.461649
C5    C     C_R   0.642005 0.621783 0.391704 0.536185
O11   O     O_R   0.736530 0.504260 0.414810 -0.498075
O12   O     O_R   0.691460 0.277160 0.422180 -0.431692
C6    C     C_R   0.615852 0.230973 0.394336 0.573657
Cr1   Cr    Cr6+3 0.392930 0.397900 0.502230 1.043030
Cr2   Cr    Cr6+3 0.398240 0.708600 0.501260 1.168849
Cr3   Cr    Cr6+3 0.708800 0.393470 0.496460 1.144712
O13   O     O_3   0.499990 0.499990 0.499980 -0.330881
C7    C     C_3   0.523195 0.717269 0.804652 0.365227
C8    C     C_3   0.501510 0.701893 0.722902 0.259653
H1    H     H_    0.443171 0.644445 0.714081 0.133649
H2    H     H_    0.652918 0.815658 0.660759 0.236081
C9    C     C_3   0.747013 0.733651 0.764617 0.212225
C10   C     C_3   0.769777 0.504961 0.798398 -0.302899
C11   C     C_3   0.686351 0.664326 0.816440 -0.003069
H3    H     H_    0.885726 0.463154 0.802786 0.171013
H4    H     H_    0.744496 0.442254 0.836016 0.224227
C12   C     C_3   0.646405 0.622250 0.683594 -0.058909
C13   C     C_3   0.719485 0.712287 0.686731 -0.155619
C14   C     C_3   0.737513 0.482182 0.722470 -0.297249
H5    H     H_    0.675999 0.427220 0.723951 0.151285
H6    H     H_    0.839401 0.417721 0.694279 0.246485
H7    H     H_    0.863451 0.681894 0.771987 0.122850
H8    H     H_    0.821573 0.659156 0.657285 0.102839
C15   C     C_R   0.778703 0.171409 0.712224 0.394788
C16   C     C_R   0.792028 0.156672 0.785920 0.369063
C17   C     C_R   0.679950 0.165359 0.826177 0.029227
C18   C     C_R   0.551863 0.200352 0.792661 -0.084175
H9    H     H_    0.460328 0.214210 0.822185 0.190803
C19   C     C_R   0.542709 0.204491 0.720127 -0.141762
H10   H     H_    0.443379 0.225320 0.697094 0.182978
C20   C     C_R   0.655535 0.190666 0.678654 -0.020807
C21   C     C_R   0.191267 0.553726 0.720269 -0.181052
H11   H     H_    0.221018 0.454226 0.694942 0.153566
C22   C     C_R   0.177414 0.563279 0.793922 -0.121174
H12   H     H_    0.188944 0.473762 0.823783 0.150971
C23   C     C_R   0.150506 0.687429 0.828480 0.039060
C24   C     C_R   0.130075 0.803279 0.788347 -0.061825
H13   H     H_    0.103708 0.901435 0.813851 0.249045
C25   C     C_R   0.133464 0.798252 0.714949 0.184251
C26   C     C_R   0.173721 0.669705 0.680372 -0.011411
C27   C     C_R   0.691533 0.531685 0.270320 -0.120056
H14   H     H_    0.721458 0.428983 0.290856 0.183123
C28   C     C_R   0.694617 0.548105 0.197665 -0.133484
H15   H     H_    0.732842 0.457012 0.163350 0.135331
C29   C     C_R   0.655144 0.680265 0.169975 0.025453
C30   C     C_R   0.608368 0.796846 0.215663 -0.112920
H16   H     H_    0.581077 0.899331 0.195055 0.141899
C31   C     C_R   0.607612 0.779515 0.288935 -0.085253
H17   H     H_    0.574873 0.868947 0.323881 0.149269
C32   C     C_R   0.650602 0.646147 0.316406 0.041706
C33   C     C_R   0.525812 0.191543 0.283355 -0.195065
H18   H     H_    0.430607 0.206765 0.309529 0.173084
C34   C     C_R   0.530074 0.183865 0.210600 -0.168155
H19   H     H_    0.442014 0.185981 0.183024 0.161957
C35   C     C_R   0.650846 0.163374 0.174671 -0.035369
C36   C     C_R   0.763751 0.160148 0.211943 -0.100702
H20   H     H_    0.858578 0.143989 0.184973 0.177236
C37   C     C_R   0.758708 0.169724 0.285071 0.352867
C38   C     C_R   0.639396 0.186203 0.321140 0.023767
C39   C     C_R   0.212368 0.756983 0.280875 0.204328
C40   C     C_R   0.216185 0.741606 0.208682 -0.105941
H21   H     H_    0.235462 0.812765 0.176642 0.169677
C41   C     C_R   0.167222 0.658715 0.178137 -0.014170
C42   C     C_R   0.147005 0.563785 0.219308 -0.147618
H22   H     H_    0.110391 0.497379 0.195910 0.156276
C43   C     C_R   0.164186 0.562257 0.292296 -0.170947
H23   H     H_    0.151004 0.486991 0.323958 0.157088
C44   C     C_R   0.192047 0.661764 0.324127 0.005833
O14   O     O_R   0.089490 0.825610 0.930610 -0.466523
O15   O     O_R   0.818370 0.054540 0.929880 -0.455185
C45   C     C_R   0.700020 0.105532 0.897167 0.598862
O16   O     O_R   0.605870 0.077310 0.915530 -0.489067
O17   O     O_R   0.646440 0.806700 0.917570 -0.410863
C46   C     C_R   0.720085 0.685733 0.889814 0.615740
O18   O     O_R   0.837200 0.593290 0.915250 -0.536095
O19   O     O_R   0.065330 0.635370 0.931590 -0.517073
C47   C     C_R   0.111198 0.710689 0.903412 0.592524
O20   O     O_R   0.068300 0.828790 0.091860 -0.512496
O21   O     O_R   0.798730 0.057480 0.079370 -0.513588
C48   C     C_R   0.674451 0.108535 0.103438 0.542476
O22   O     O_R   0.584680 0.080480 0.076790 -0.526491
O23   O     O_R   0.626790 0.809640 0.067050 -0.498928
C49   C     C_R   0.695277 0.691348 0.097733 0.556774
O24   O     O_R   0.816010 0.596460 0.076500 -0.511233
O25   O     O_R   0.045680 0.638310 0.081070 -0.505417
C50   C     C_R   0.098390 0.705868 0.110640 0.558641
Cr4   Cr    Cr6+3 0.937620 0.938540 0.007640 1.104476
Cr5   Cr    Cr6+3 0.625150 0.937450 0.994520 1.123526
Cr6   Cr    Cr6+3 0.937990 0.625080 0.001190 1.053651
O26   O     O_3   0.833590 0.833690 0.001120 -0.290235
N1    N     N_R   0.431618 0.865781 0.826755 0.157098
O27   O     O_R   0.439634 0.967577 0.795689 -0.206068
O28   O     O_R   0.332283 0.899147 0.873896 -0.281396
F1    F     F_    0.875586 0.188117 0.675223 -0.556799
F2    F     F_    0.910239 0.140860 0.817832 -0.601297
N2    N     N_R   0.484981 0.627416 0.847983 0.031527
O29   O     O_R   0.485337 0.634607 0.917024 -0.310402
O30   O     O_R   0.472868 0.525532 0.819776 -0.442491
N3    N     N_R   0.099067 0.923644 0.676125 0.149625
O31   O     O_R   0.025439 0.952665 0.617968 -0.268660
O32   O     O_R   0.139258 0.010159 0.699214 -0.146588
F3    F     F_    0.867241 0.168789 0.320320 -0.576230
N4    N     N_R   0.213310 0.879533 0.307162 0.107300
O33   O     O_R   0.122797 0.000999 0.281186 -0.268923
O34   O     O_R   0.327518 0.867506 0.334630 -0.326652
F4    F     F_    0.419731 0.831721 0.691348 -0.557461
F5    F     F_    0.697009 0.874150 0.778793 -0.616447

loop_
_geom_bond_atom_site_label_1
_geom_bond_atom_site_label_2
_geom_bond_distance
_ccdc_geom_bond_type
C2    C12   1.486031 S    
C31   C32   1.395539 A    
O11   Cr3   2.071360 S    
C9    C11   1.568821 S    
O14   Cr4   2.081423 S    
C17   C18   1.404520 A    
C33   C34   1.371801 A    
N2    O29   1.302586 A    
O19   Cr6   1.949810 S    
C11   C46   1.479477 S    
N3    O31   1.303235 A    
C21   C22   1.392895 A    
O4    Cr2   1.956188 S    
O15   C45   1.284112 A    
C9    C13   1.539168 S    
C17   C45   1.457526 S    
O8    Cr1   1.952859 S    
C7    C11   1.591433 S    
C10   C11   1.555353 S    
C43   H23   1.083451 S    
C40   C41   1.387695 A    
C29   C49   1.450905 S    
O4    C2    1.297072 A    
N1    O27   1.300586 A    
C28   C29   1.392799 A    
C27   C32   1.403582 A    
C5    C32   1.454010 S    
O25   Cr6   1.960926 S    
C27   H14   1.077271 S    
Cr4   O26   1.979477 S    
C14   H5    1.102166 S    
C37   C38   1.395838 A    
C30   C31   1.393231 A    
N4    O33   1.299151 A    
C8    F4    1.385658 S    
C1    C26   1.464494 S    
C48   O22   1.267862 A    
C19   C20   1.398476 A    
C34   H19   1.083699 S    
C22   C23   1.402058 A    
C7    C8    1.579965 S    
C35   C36   1.404891 A    
C33   H18   1.083429 S    
C10   C14   1.523593 S    
C3    C20   1.459158 S    
C6    C38   1.442048 S    
Cr3   O13   1.979696 S    
C41   C50   1.438147 S    
O21   C48   1.264985 A    
C39   N4    1.436925 S    
C18   C19   1.368917 A    
Cr6   O26   1.986776 S    
C43   C44   1.404391 A    
C9    F5    1.381440 S    
C24   C25   1.382837 A    
O23   C49   1.271460 A    
O7    C6    1.255473 A    
O1    Cr1   2.073495 S    
C37   F3    1.354963 S    
C23   C24   1.397980 A    
O10   Cr2   1.955517 S    
Cr1   O13   1.978292 S    
O1    C3    1.262783 A    
C8    H1    1.107874 S    
N2    O30   1.301785 A    
O20   C50   1.269419 A    
C15   C16   1.396771 A    
C36   C37   1.379849 A    
C41   C42   1.399552 A    
O6    C3    1.275450 A    
C16   F2    1.355689 S    
C28   H15   1.083822 S    
O5    Cr3   2.085649 S    
C7    N1    1.485954 S    
O12   Cr3   1.964815 S    
C31   H17   1.083385 S    
C4    C44   1.448527 S    
C29   C30   1.409100 A    
C12   C14   1.540834 S    
C35   C48   1.439283 S    
C39   C40   1.367814 A    
C8    C12   1.559692 S    
C23   C47   1.458474 S    
H2    C13   1.112512 S    
C21   H11   1.082257 S    
O7    Cr1   2.088473 S    
O12   C6    1.276226 A    
Cr5   O26   1.979389 S    
C40   H21   1.085489 S    
O18   Cr6   2.083752 S    
O23   Cr5   1.950269 S    
C15   C20   1.405061 A    
O16   Cr5   2.071084 S    
C16   C17   1.398665 A    
Cr2   O13   1.987010 S    
C22   H12   1.083117 S    
C18   H9    1.083877 S    
C1    O3    1.271089 A    
O19   C47   1.273240 A    
O17   Cr5   1.969149 S    
C24   H13   1.078971 S    
C21   C26   1.406198 A    
C25   C26   1.410113 A    
O9    Cr2   2.074480 S    
O2    Cr1   1.967491 S    
C45   O16   1.257907 A    
C10   H4    1.112083 S    
C19   H10   1.082765 S    
O6    Cr3   1.951848 S    
O20   Cr4   2.076136 S    
N3    O32   1.301850 A    
O8    C4    1.283741 A    
C2    O5    1.298484 A    
C7    N2    1.487986 S    
C42   C43   1.386727 A    
C13   H8    1.113426 S    
C12   C13   1.547201 S    
C10   H3    1.114819 S    
O2    C1    1.279538 A    
C36   H20   1.083466 S    
C39   C44   1.424751 A    
N1    O28   1.302410 A    
C9    H7    1.114208 S    
C25   N3    1.433743 S    
O25   C50   1.270413 A    
C27   C28   1.382286 A    
O24   Cr6   2.068737 S    
C14   H6    1.110878 S    
C30   H16   1.082104 S    
N4    O34   1.295673 A    
C42   H22   1.083246 S    
O3    Cr2   2.077472 S    
C15   F1    1.349929 S    
O17   C46   1.272460 A    
O21   Cr4   1.961784 S    
C34   C35   1.394292 A    
C49   O24   1.270943 A    
O22   Cr5   2.089158 S    
O10   C5    1.279748 A    
O14   C47   1.268825 A    
C4    O9    1.254238 A    
C46   O18   1.268757 A    
O15   Cr4   1.956226 S    
C5    O11   1.264557 A    
C33   C38   1.406858 A    
