data_mof_unit_68467.cif
_audit_creation_date              2012-12-11T16:06:27-0500
_audit_creation_method            fapswitch 2.2
_symmetry_space_group_name_H-M    P1
_symmetry_Int_Tables_number       1
_space_group_crystal_system       triclinic
_cell_length_a                    7.208001
_cell_length_b                    14.728909
_cell_length_c                    15.587471
_cell_angle_alpha                 89.999951
_cell_angle_beta                  90.001664
_cell_angle_gamma                 89.999802
_cell_volume                      1654.85930209

loop_
_atom_site_label
_atom_site_type_symbol
_atom_type_description
_atom_site_fract_x
_atom_site_fract_y
_atom_site_fract_z
_atom_type_partial_charge
O1    O     O_R   0.388780 0.834790 0.412340 -0.533134
O2    O     O_R   0.111220 0.165210 0.912340 -0.533119
O3    O     O_R   0.888780 0.665210 0.587660 -0.533106
O4    O     O_R   0.611220 0.334790 0.087660 -0.533134
O5    O     O_R   0.059040 0.845930 0.587040 -0.537990
O6    O     O_R   0.440960 0.154070 0.087040 -0.537994
O7    O     O_R   0.559040 0.654070 0.412960 -0.537995
O8    O     O_R   0.940960 0.345930 0.912960 -0.537989
C1    C     C_R   0.228219 0.868623 0.614589 0.709318
C2    C     C_R   0.271783 0.131376 0.114588 0.709328
C3    C     C_R   0.728217 0.631376 0.385413 0.709340
C4    C     C_R   0.771780 0.368621 0.885409 0.709305
O9    O     O_R   0.059070 0.845930 0.412970 -0.550977
O10   O     O_R   0.440930 0.154070 0.912970 -0.550981
O11   O     O_R   0.559070 0.654070 0.587030 -0.550985
O12   O     O_R   0.940930 0.345930 0.087030 -0.550975
O13   O     O_R   0.888760 0.665210 0.412340 -0.536054
O14   O     O_R   0.611240 0.334790 0.912340 -0.536057
O15   O     O_R   0.388760 0.834790 0.587660 -0.536062
O16   O     O_R   0.111240 0.165210 0.087660 -0.536053
C5    C     C_R   0.227911 0.867265 0.384145 0.745085
C6    C     C_R   0.272088 0.132740 0.884142 0.745112
C7    C     C_R   0.727911 0.632743 0.615860 0.745107
C8    C     C_R   0.772088 0.367266 0.115854 0.745084
O17   O     O_3   0.222280 0.690700 0.500000 -0.384739
O18   O     O_3   0.277720 0.309300 0.000000 -0.384751
O19   O     O_3   0.722280 0.809300 0.500000 -0.384758
O20   O     O_3   0.777720 0.190700 0.000000 -0.384744
V1    V     V_3+5 0.947430 0.761000 0.500000 1.414696
V2    V     V_3+5 0.552570 0.239000 0.000000 1.414689
V3    V     V_3+5 0.447430 0.739000 0.500000 1.414684
V4    V     V_3+5 0.052570 0.261000 0.000000 1.414694
C9    C     C_3   0.891679 0.588835 0.756076 0.135323
C10   C     C_3   0.608410 0.411133 0.256100 0.135349
C11   C     C_3   0.391592 0.911134 0.243901 0.135347
C12   C     C_3   0.108365 0.088852 0.743911 0.135331
H1    H     H_    0.029114 0.596269 0.725262 0.092418
H2    H     H_    0.470946 0.403683 0.225316 0.092389
H3    H     H_    0.529055 0.903685 0.274687 0.092392
H4    H     H_    0.970917 0.096293 0.774710 0.092409
C13   C     C_3   0.906551 0.515276 0.827270 -0.332312
C14   C     C_3   0.593566 0.484676 0.327313 -0.332319
C15   C     C_3   0.406436 0.984677 0.172689 -0.332320
C16   C     C_3   0.093507 0.015301 0.672708 -0.332319
H5    H     H_    0.887918 0.545870 0.891950 0.194778
H6    H     H_    0.612355 0.454078 0.391981 0.194833
H7    H     H_    0.387650 0.954079 0.108021 0.194829
H8    H     H_    0.112215 0.045896 0.608034 0.194795
H9    H     H_    0.048710 0.485794 0.826095 0.123714
H10   H     H_    0.451370 0.514113 0.326190 0.123704
H11   H     H_    0.548632 0.014114 0.173812 0.123713
H12   H     H_    0.951330 0.985841 0.673855 0.123711
H13   H     H_    0.934497 0.361410 0.726125 0.201701
H14   H     H_    0.565230 0.638503 0.226179 0.201677
H15   H     H_    0.434769 0.138503 0.273824 0.201677
H16   H     H_    0.065371 0.861457 0.773847 0.201699
C17   C     C_3   0.775365 0.465075 0.651994 0.269793
C18   C     C_3   0.724486 0.534931 0.152003 0.269734
C19   C     C_3   0.275508 0.034931 0.347997 0.269731
C20   C     C_3   0.224569 0.965074 0.848001 0.269766
C21   C     C_3   0.552191 0.556683 0.738417 -0.374410
C22   C     C_3   0.947837 0.443367 0.238381 -0.374466
C23   C     C_3   0.052162 0.943366 0.261618 -0.374470
C24   C     C_3   0.447825 0.056660 0.761602 -0.374428
C25   C     C_3   0.739575 0.563102 0.688255 -0.039457
C26   C     C_3   0.760417 0.436906 0.188250 -0.039524
C27   C     C_3   0.239582 0.936906 0.311750 -0.039515
C28   C     C_3   0.260423 0.063099 0.811747 -0.039478
H17   H     H_    0.437618 0.537091 0.694393 0.123157
H18   H     H_    0.062354 0.462964 0.194333 0.123171
H19   H     H_    0.937643 0.962963 0.305665 0.123172
H20   H     H_    0.562372 0.037065 0.805639 0.123160
H21   H     H_    0.511629 0.623587 0.765459 0.209258
H22   H     H_    0.988467 0.376477 0.265431 0.209263
H23   H     H_    0.011536 0.876476 0.234567 0.209265
H24   H     H_    0.488420 0.123557 0.734556 0.209265
C29   C     C_3   0.760188 0.439246 0.814075 0.002430
C30   C     C_3   0.739803 0.560753 0.314079 0.002365
C31   C     C_3   0.260198 0.060754 0.185922 0.002368
C32   C     C_3   0.239809 0.939247 0.685923 0.002391
C33   C     C_3   0.796681 0.393938 0.725757 -0.375460
C34   C     C_3   0.703114 0.606049 0.225775 -0.375346
C35   C     C_3   0.296885 0.106049 0.274226 -0.375356
C36   C     C_3   0.203221 0.893946 0.774234 -0.375391
C37   C     C_3   0.565201 0.485345 0.811349 -0.315375
C38   C     C_3   0.934849 0.514721 0.311298 -0.315377
C39   C     C_3   0.065153 0.014721 0.188702 -0.315375
C40   C     C_3   0.434824 0.985314 0.688678 -0.315387
H25   H     H_    0.537468 0.518983 0.873863 0.184141
H26   H     H_    0.962750 0.481112 0.373810 0.184110
H27   H     H_    0.037255 0.981114 0.126189 0.184096
H28   H     H_    0.462632 0.018937 0.626165 0.184113
H29   H     H_    0.455120 0.433397 0.801362 0.160852
H30   H     H_    0.044831 0.566705 0.301259 0.160894
H31   H     H_    0.955170 0.066705 0.198740 0.160898
H32   H     H_    0.544858 0.933349 0.698689 0.160858
H33   H     H_    0.643228 0.445914 0.620405 0.108693
H34   H     H_    0.856585 0.554141 0.120412 0.108792
H35   H     H_    0.143406 0.054140 0.379587 0.108783
H36   H     H_    0.356690 0.945889 0.879591 0.108734
H37   H     H_    0.695394 0.337779 0.715911 0.150548
H38   H     H_    0.804268 0.662259 0.215910 0.150570
H39   H     H_    0.195730 0.162260 0.284091 0.150566
H40   H     H_    0.304441 0.837761 0.784091 0.150555
Br1   Br    Br    0.845484 0.707392 0.807949 -0.664770
Br2   Br    Br    0.654737 0.292571 0.307940 -0.664752
Br3   Br    Br    0.345271 0.792572 0.192059 -0.664725
Br4   Br    Br    0.154629 0.207411 0.692054 -0.664800
O21   O     O_3   0.905043 0.457280 0.583363 -0.554264
C41   C     C_3   0.092737 0.472412 0.605324 0.101541
H41   H     H_    0.129575 0.452897 0.671762 0.105875
H42   H     H_    0.127642 0.544909 0.596192 0.144366
C42   C     C_3   0.214047 0.418340 0.543957 -0.599508
H43   H     H_    0.193323 0.442412 0.477201 0.195595
H44   H     H_    0.361932 0.427299 0.560783 0.153458
H45   H     H_    0.178673 0.345117 0.547455 0.271764
O22   O     O_3   0.594770 0.542713 0.083382 -0.554227
C43   C     C_3   0.407117 0.527474 0.105342 0.101664
H46   H     H_    0.370227 0.547003 0.171770 0.105797
H47   H     H_    0.372392 0.454956 0.096239 0.144442
C44   C     C_3   0.285661 0.581430 0.043945 -0.599623
H48   H     H_    0.306914 0.557542 0.977168 0.195838
H49   H     H_    0.137773 0.572118 0.060585 0.153174
H50   H     H_    0.320384 0.654718 0.047622 0.271647
O23   O     O_3   0.405216 0.042710 0.416622 -0.554235
C45   C     C_3   0.592874 0.027478 0.394664 0.101656
H51   H     H_    0.629760 0.046999 0.328235 0.105794
H52   H     H_    0.627615 0.954963 0.403776 0.144447
C46   C     C_3   0.714314 0.081450 0.456055 -0.599624
H53   H     H_    0.693090 0.057554 0.522834 0.195823
H54   H     H_    0.862212 0.072163 0.439406 0.153193
H55   H     H_    0.679534 0.154735 0.452383 0.271657
O24   O     O_3   0.094880 0.957289 0.916629 -0.554247
C47   C     C_3   0.907201 0.972463 0.894668 0.101590
H56   H     H_    0.870346 0.952956 0.828230 0.105814
H57   H     H_    0.872360 0.044965 0.903801 0.144413
C48   C     C_3   0.785840 0.918420 0.956035 -0.599598
H58   H     H_    0.806780 0.942399 0.022803 0.195711
H59   H     H_    0.637953 0.927518 0.939289 0.153344
H60   H     H_    0.820963 0.845176 0.952449 0.271732

loop_
_geom_bond_atom_site_label_1
_geom_bond_atom_site_label_2
_ccdc_geom_bond_type
O17   V3    S    
C40   H32   S    
O1    C5    A    
C45   H51   S    
C39   H27   S    
C12   Br4   S    
C19   H35   S    
O3    C7    A    
C10   C14   S    
C32   C36   S    
O15   V3    S    
C10   C26   S    
C47   C48   S    
C31   C39   S    
C9    C25   S    
C33   H37   S    
O7    C3    A    
C48   H59   S    
C35   H39   S    
C24   C28   S    
H13   C33   S    
C19   C35   S    
C42   H43   S    
C18   C34   S    
C13   C29   S    
O4    C8    A    
O19   V1    S    
C15   C31   S    
O1    V3    S    
O13   V1    S    
C22   H18   S    
O2    V4    S    
C14   H6    S    
O3    V1    S    
C41   H41   S    
C44   H50   S    
C38   H30   S    
C41   H42   S    
C19   C27   S    
C43   H46   S    
C37   H29   S    
C18   C26   S    
C17   O21   S    
C40   H28   S    
C2    O16   A    
C39   H31   S    
O2    C6    A    
O14   V2    S    
C29   C33   S    
C11   C15   S    
C8    C26   S    
C46   H55   S    
C16   H12   S    
O11   C7    A    
C29   C37   S    
O12   C8    A    
C5    C27   S    
O10   V2    S    
C13   H9    S    
C1    O15   A    
H16   C36   S    
O5    V1    S    
C34   H38   S    
C48   H60   S    
C23   C27   S    
O7    V3    S    
C22   C26   S    
O8    V4    S    
C16   C32   S    
C9    Br1   S    
C38   H26   S    
C37   H25   S    
O18   V4    S    
C47   H57   S    
C45   C46   S    
C21   H21   S    
C18   O22   S    
C9    H1    S    
C43   C44   S    
C10   Br2   S    
C11   H3    S    
O5    C1    A    
C3    C30   S    
C22   C38   S    
C30   C34   S    
C11   C27   S    
O8    C4    A    
C17   H33   S    
C4    C29   S    
C24   H24   S    
O9    C5    A    
C41   C42   S    
C6    C28   S    
C44   H48   S    
C21   C37   S    
C14   H10   S    
O6    V2    S    
C23   H19   S    
C14   C30   S    
O24   C47   S    
C36   H40   S    
C17   C33   S    
C12   C16   S    
C19   O23   S    
H15   C35   S    
H14   C34   S    
C12   H4    S    
C46   H53   S    
O16   V4    S    
O9    V1    S    
C3    O13   A    
C45   H52   S    
C23   C39   S    
C10   H2    S    
C17   C25   S    
C20   H36   S    
O6    C2    A    
C2    C31   S    
C12   C28   S    
C42   H45   S    
O11   V3    S    
C47   H56   S    
C18   H34   S    
O12   V4    S    
C48   H58   S    
C21   H17   S    
C7    C25   S    
O20   V2    S    
C9    C13   S    
C32   C40   S    
O22   C43   S    
C31   C35   S    
C20   C36   S    
O10   C6    A    
O23   C45   S    
C23   H23   S    
C15   H11   S    
C24   C40   S    
C24   H20   S    
C43   H47   S    
C44   H49   S    
C11   Br3   S    
C21   C25   S    
C20   C28   S    
C30   C38   S    
C4    O14   A    
C13   H5    S    
C22   H22   S    
C42   H44   S    
O21   C41   S    
C15   H7    S    
C20   O24   S    
C1    C32   S    
O4    V2    S    
C16   H8    S    
C46   H54   S    
