data_mof_unit_19467.cif
_audit_creation_date              2012-12-10T20:30:10-0500
_audit_creation_method            fapswitch 2.2
_symmetry_space_group_name_H-M    P1
_symmetry_Int_Tables_number       1
_space_group_crystal_system       triclinic
_cell_length_a                    9.885722
_cell_length_b                    10.700695
_cell_length_c                    13.081436
_cell_angle_alpha                 90.568727
_cell_angle_beta                  69.486947
_cell_angle_gamma                 89.349392
_cell_volume                      1295.83750814

loop_
_atom_site_label
_atom_site_type_symbol
_atom_type_description
_atom_site_fract_x
_atom_site_fract_y
_atom_site_fract_z
_atom_type_partial_charge
C1    C     C_R   0.499387 0.739859 0.500017 0.905316
C2    C     C_R   0.367834 0.472857 0.822109 -0.119000
C3    C     C_R   0.372813 0.939933 0.528027 0.022721
C4    C     C_R   0.419826 0.491187 0.704146 0.876058
C5    C     C_R   0.501689 0.871582 0.491570 -0.112957
C6    C     C_R   0.633138 0.932769 0.442438 -0.220130
C7    C     C_R   0.634569 0.062384 0.441884 -0.229895
C8    C     C_R   0.504109 0.128960 0.488354 -0.124811
C9    C     C_R   0.373481 0.066900 0.522138 0.120059
C10   C     C_3   0.240170 0.082874 0.622078 0.146749
C11   C     C_3   0.240904 0.939541 0.630631 -0.254514
C12   C     C_R   0.432945 0.465009 0.983728 0.085149
C13   C     C_R   0.884964 0.520948 0.594318 0.204172
C14   C     C_R   0.970300 0.461154 0.410125 0.137979
C15   C     C_R   0.114546 0.462942 0.410175 -0.179789
C16   C     C_R   0.501666 0.260453 0.497430 0.885902
C17   C     C_R   0.026940 0.519694 0.594626 0.188795
C18   C     C_3   0.997339 0.632231 0.667216 -0.520031
C19   C     C_3   0.843999 0.633862 0.666463 -0.490113
C20   C     C_R   0.580588 0.500365 0.295305 0.889880
C21   C     C_R   0.775660 0.363239 0.018437 -0.213248
C22   C     C_R   0.630928 0.482992 0.177431 -0.046834
C23   C     C_R   0.464696 0.433277 0.873272 0.088167
C24   C     C_R   0.225673 0.507024 0.885997 -0.162552
C25   C     C_R   0.184662 0.512486 0.999110 -0.163834
C26   C     C_R   0.288338 0.495589 0.047709 -0.220005
C27   C     C_R   0.257593 0.889236 0.734193 0.154779
C28   C     C_R   0.132424 0.852009 0.818829 -0.182895
C29   C     C_R   0.139292 0.813706 0.918698 -0.141239
C30   C     C_R   0.271393 0.811299 0.935138 -0.082668
C31   C     C_R   0.396959 0.846774 0.851641 -0.149131
C32   C     C_R   0.390407 0.886717 0.752055 -0.162440
C33   C     C_R   0.545190 0.457389 0.027030 0.030819
C34   C     C_R   0.671667 0.385636 0.970320 0.157650
C35   C     C_R   0.691540 0.336173 0.866995 -0.256886
C36   C     C_R   0.590821 0.361960 0.817844 -0.212652
C37   C     C_R   0.538098 0.520752 0.123628 0.031002
C38   C     C_R   0.751650 0.406725 0.123986 -0.261497
H1    H     H_    0.824331 0.377270 0.164781 0.169439
H2    H     H_    0.870998 0.306348 0.977010 0.145212
H3    H     H_    0.147552 0.532240 0.848681 0.151950
H4    H     H_    0.252744 0.500833 0.135380 0.131956
H5    H     H_    0.074171 0.536063 0.048811 0.152115
H6    H     H_    0.609944 0.321304 0.737850 0.171985
H7    H     H_    0.734344 0.881115 0.408908 0.169368
H8    H     H_    0.179188 0.136259 0.784034 0.191862
H9    H     H_    0.360466 0.130647 0.719466 0.177210
H10   H     H_    0.128885 0.226644 0.582776 0.221087
H11   H     H_    0.023781 0.119102 0.663982 0.166530
H12   H     H_    0.736626 0.109932 0.408858 0.160025
H13   H     H_    0.028572 0.855012 0.808258 0.127135
H14   H     H_    0.041993 0.786034 0.983505 0.131337
H15   H     H_    0.276276 0.782024 0.012682 0.126126
H16   H     H_    0.499196 0.845303 0.864711 0.129580
H17   H     H_    0.488475 0.919003 0.691145 0.133341
H18   H     H_    0.885270 0.334017 0.337822 0.191579
H19   H     H_    0.039250 0.392913 0.253247 0.141616
H20   H     H_    0.356167 0.618915 0.217662 0.199456
H21   H     H_    0.444589 0.681973 0.092582 0.182801
H22   H     H_    0.148666 0.898569 0.613356 0.149000
H23   H     H_    0.203225 0.434047 0.337760 0.153019
H24   H     H_    0.003037 0.611401 0.748593 0.198771
H25   H     H_    0.061551 0.712372 0.625232 0.210413
H26   H     H_    0.761684 0.613257 0.747371 0.213777
H27   H     H_    0.786541 0.279999 0.823109 0.141322
H28   H     H_    0.818751 0.716266 0.624795 0.210456
N1    N     N_R   0.856940 0.500860 0.500710 -0.112680
N2    N     N_R   0.142580 0.500820 0.500710 -0.114574
N3    N     N_3   0.262543 0.155488 0.710834 -0.456772
N4    N     N_3   0.117200 0.130506 0.595589 -0.456075
N5    N     N_3   0.942622 0.416871 0.315922 -0.425114
N6    N     N_3   0.457001 0.635824 0.158849 -0.470483
O1    O     O_R   0.385310 0.683210 0.499990 -0.605115
O2    O     O_R   0.614650 0.683240 0.500000 -0.619215
O3    O     O_R   0.328390 0.499940 0.653610 -0.604160
O4    O     O_R   0.557730 0.499980 0.653620 -0.616356
O5    O     O_R   0.385350 0.316760 0.500000 -0.610107
O6    O     O_R   0.614690 0.316790 0.500010 -0.639586
O7    O     O_R   0.442270 0.500020 0.346380 -0.620094
O8    O     O_R   0.671610 0.500060 0.346390 -0.599822
Zn1   Zn    Zn3+2 0.346870 0.499980 0.499990 0.944544
Zn2   Zn    Zn3+2 0.653130 0.500020 0.500010 0.939064

loop_
_geom_bond_atom_site_label_1
_geom_bond_atom_site_label_2
_ccdc_geom_bond_type
C6    H7    S    
C14   N5    S    
C35   C36   A    
C25   H5    S    
C7    C8    A    
C12   C23   A    
C1    C5    S    
N2    Zn1   S    
C28   C29   A    
C34   C35   A    
C38   H1    S    
C28   H13   S    
C18   H25   S    
C35   H27   S    
C22   C38   A    
C19   H28   S    
C18   C19   S    
H9    N3    S    
C4    O3    A    
C21   C38   A    
C8    C9    A    
H8    N3    S    
C14   N1    A    
O5    Zn1   S    
C9    C10   S    
C32   H17   S    
H21   N6    S    
C8    C16   S    
C24   H3    S    
O2    Zn2   S    
O1    Zn1   S    
C33   C34   A    
C30   H15   S    
C13   C19   S    
C24   C25   A    
O8    Zn2   S    
O4    Zn2   S    
O7    Zn1   S    
C20   O8    A    
C18   H24   S    
C21   C34   A    
C25   C26   A    
C22   C37   A    
C33   C37   A    
C12   C26   A    
C2    C4    S    
C29   C30   A    
C3    C9    A    
O6    Zn2   S    
C31   C32   A    
C11   C27   S    
C19   H26   S    
H18   N5    S    
C17   C18   S    
C15   H23   S    
H19   N5    S    
C10   N4    S    
C20   C22   S    
H11   N4    S    
C2    C24   A    
C36   H6    S    
C1    O2    A    
C11   H22   S    
C27   C28   A    
C26   H4    S    
C13   N1    A    
C17   N2    A    
C20   O7    A    
C27   C32   A    
O3    Zn1   S    
C7    H12   S    
H10   N4    S    
C3    C5    A    
C6    C7    A    
C13   C17   A    
C1    O1    A    
C30   C31   A    
H20   N6    S    
C5    C6    A    
C21   H2    S    
C15   N2    A    
C16   O6    A    
C31   H16   S    
C4    O4    A    
C3    C11   S    
C10   C11   S    
C10   N3    S    
N1    Zn2   S    
C23   C36   A    
C37   N6    S    
C2    C23   A    
C14   C15   A    
C16   O5    A    
C12   C33   A    
C29   H14   S    
