data_mof_unit_65155.cif
_audit_creation_date              2013-03-05T16:45:16-0500
_audit_creation_method            fapswitch 2.2
_symmetry_space_group_name_H-M    P1
_symmetry_Int_Tables_number       1
_space_group_crystal_system       triclinic
_cell_length_a                    13.883723
_cell_length_b                    15.881419
_cell_length_c                    17.100238
_cell_angle_alpha                 96.080566
_cell_angle_beta                  88.99919
_cell_angle_gamma                 83.307687
_cell_volume                      3722.03027737

loop_
_atom_site_label
_atom_site_type_symbol
_atom_site_description
_atom_site_fract_x
_atom_site_fract_y
_atom_site_fract_z
_atom_type_partial_charge
O1    O     O_R   0.495670 0.579790 0.617520 -0.565316
O2    O     O_R   0.504330 0.420210 0.382480 -0.565301
O3    O     O_R   0.503490 0.436020 0.611040 -0.543063
O4    O     O_R   0.496510 0.563980 0.388960 -0.543072
C1    C     C_R   0.498956 0.510345 0.651077 0.864936
C2    C     C_R   0.501042 0.489656 0.348924 0.864636
O5    O     O_R   0.357690 0.582040 0.503680 -0.583719
O6    O     O_R   0.642310 0.417960 0.496320 -0.583855
O7    O     O_R   0.365510 0.438280 0.497200 -0.544957
O8    O     O_R   0.634490 0.561720 0.502800 -0.544943
C3    C     C_R   0.316421 0.513106 0.500575 0.838891
C4    C     C_R   0.683579 0.486894 0.499420 0.838693
Cu1   Cu    Cu3+1 0.495370 0.585120 0.503830 1.058832
Cu2   Cu    Cu3+1 0.504630 0.414880 0.496170 1.058812
C5    C     C_1   0.786773 0.479658 0.498964 -0.046171
C6    C     C_1   0.213227 0.520341 0.501026 -0.046137
C7    C     C_2   0.977476 0.465081 0.498006 -0.115886
C8    C     C_2   0.022524 0.534917 0.501977 -0.115905
C9    C     C_1   0.126256 0.527304 0.501485 0.073583
C10   C     C_1   0.873744 0.472694 0.498501 0.073599
H1    H     H_    0.981829 0.598025 0.505593 0.189540
H2    H     H_    0.018171 0.401973 0.494391 0.189552
C11   C     C_R   0.495473 0.516059 0.737033 -0.280339
C12   C     C_R   0.504515 0.483945 0.262971 -0.280328
C13   C     C_R   0.564059 0.464862 0.777215 0.367631
C14   C     C_R   0.435848 0.535058 0.222784 0.367699
C15   C     C_R   0.554504 0.466703 0.858364 -0.129317
C16   C     C_R   0.445408 0.533232 0.141635 -0.129311
C17   C     C_R   0.479396 0.520310 0.901386 0.157440
C18   C     C_R   0.520622 0.479744 0.098625 0.157407
C19   C     C_R   0.412577 0.572820 0.861876 0.228095
C20   C     C_R   0.587538 0.427329 0.138144 0.228070
C21   C     C_R   0.420525 0.570851 0.779584 0.200061
C22   C     C_R   0.579556 0.429267 0.220430 0.200194
N1    N     N_2   0.469922 0.524958 0.984605 -0.146567
N2    N     N_2   0.530092 0.475104 0.015407 -0.146581
H3    H     H_    0.392157 0.573232 0.112291 0.237694
H4    H     H_    0.607681 0.426619 0.887700 0.237691
N3    N     N_R   0.511590 0.287020 0.490400 -0.258505
N4    N     N_R   0.488410 0.712980 0.509600 -0.258517
C23   C     C_R   0.452166 0.251992 0.540264 0.401579
C24   C     C_R   0.547789 0.748012 0.459704 0.401538
C25   C     C_R   0.458790 0.162649 0.542832 0.152353
C26   C     C_R   0.541165 0.837357 0.457149 0.152327
C27   C     C_R   0.524690 0.107831 0.491079 0.235520
C28   C     C_R   0.475318 0.892170 0.508951 0.235496
C29   C     C_R   0.584507 0.145700 0.441284 -0.262392
C30   C     C_R   0.415551 0.854297 0.558783 -0.262372
C31   C     C_R   0.577285 0.234955 0.441930 0.013697
C32   C     C_R   0.422772 0.765040 0.558125 0.013668
N5    N     N_2   0.536295 0.016192 0.488853 -0.120346
N6    N     N_2   0.463713 0.983809 0.511184 -0.120295
H5    H     H_    0.637291 0.105917 0.401988 0.226207
H6    H     H_    0.362812 0.894078 0.598119 0.226240
H7    H     H_    0.625362 0.262575 0.404243 0.218737
H8    H     H_    0.374744 0.737416 0.595852 0.218754
O9    O     O_3   0.357778 0.586889 0.259779 -0.650946
H9    H     H_    0.345019 0.568617 0.312123 0.321657
O10   O     O_3   0.642047 0.412926 0.740212 -0.650906
H10   H     H_    0.654904 0.431238 0.687900 0.321677
N7    N     N_R   0.334002 0.625371 0.905328 0.174782
O11   O     O_R   0.318651 0.706607 0.898623 -0.226453
O12   O     O_R   0.281396 0.593255 0.955702 -0.274537
N8    N     N_R   0.666223 0.374898 0.094709 0.174728
O13   O     O_R   0.682054 0.293746 0.101703 -0.226412
O14   O     O_R   0.718595 0.407047 0.044196 -0.274548
N9    N     N_R   0.347929 0.619414 0.738803 0.164864
O15   O     O_R   0.287970 0.580719 0.694292 -0.329805
O16   O     O_R   0.347618 0.701467 0.740174 -0.293742
N10   N     N_R   0.652208 0.380793 0.261223 0.164943
O17   O     O_R   0.712441 0.419554 0.305397 -0.329259
O18   O     O_R   0.652393 0.298783 0.260145 -0.294081
N11   N     N_R   0.614405 0.694233 0.406130 0.171832
O19   O     O_R   0.704531 0.679738 0.425525 -0.298289
O20   O     O_R   0.594176 0.685029 0.331926 -0.276641
N12   N     N_R   0.385507 0.305775 0.593800 0.171817
O21   O     O_R   0.295388 0.320224 0.574372 -0.298349
O22   O     O_R   0.405695 0.315021 0.668010 -0.276649
N13   N     N_R   0.596384 0.870422 0.398194 0.167246
O23   O     O_R   0.552142 0.910383 0.343983 -0.269876
O24   O     O_R   0.690657 0.856719 0.395933 -0.248183
N14   N     N_R   0.403514 0.129595 0.601758 0.167248
O25   O     O_R   0.447703 0.089680 0.656023 -0.269892
O26   O     O_R   0.309240 0.143258 0.603937 -0.248198

loop_
_geom_bond_atom_site_label_1
_geom_bond_atom_site_label_2
_geom_bond_distance
_ccdc_geom_bond_type
C15   C17   1.409625 A    
C8    H1    1.086830 S    
C23   C25   1.416532 A    
N11   O19   1.300870 A    
C19   N7    1.437657 S    
N1    N2    1.245687 D    
C29   C31   1.408199 A    
O5    C3    1.290184 A    
O1    C1    1.292674 A    
N12   O22   1.301175 A    
C27   N5    1.441832 S    
C15   H4    1.083052 S    
C28   N6    1.441817 S    
C7    C10   1.430942 S    
C8    C9    1.430942 S    
O4    Cu1   1.956891 S    
N7    O12   1.301348 A    
Cu1   N4    2.013426 S    
Cu2   N3    2.013429 S    
C11   C21   1.413430 A    
C19   C21   1.406352 A    
N10   O17   1.300928 A    
C22   N10   1.433199 S    
C29   H5    1.082905 S    
C30   C32   1.408201 A    
O10   H10   0.989083 S    
Cu1   Cu2   2.680820 S    
N11   O20   1.301180 A    
O2    C2    1.292670 A    
C24   C26   1.416530 A    
C26   C28   1.414596 A    
C27   C29   1.405939 A    
C5    C10   1.199442 T    
C28   C30   1.405944 A    
N5    N6    1.254893 D    
N12   O21   1.300872 A    
C20   N8    1.437737 S    
O4    C2    1.294581 A    
N13   O24   1.300778 A    
C31   H7    1.079987 S    
C12   C22   1.413349 A    
N9    O15   1.300870 A    
N9    O16   1.300337 A    
N8    O14   1.301348 A    
C30   H6    1.082906 S    
O7    Cu2   1.923344 S    
O7    C3    1.294336 A    
C3    C6    1.423732 S    
C1    C11   1.462626 S    
C4    C5    1.423731 S    
O6    C4    1.290182 A    
C2    C12   1.462582 S    
C7    C8    1.331579 D    
C25   C27   1.414602 A    
O3    Cu2   1.956889 S    
O8    C4    1.294335 A    
N3    C31   1.362064 A    
N14   O26   1.300775 A    
O1    Cu1   1.954961 S    
C21   N9    1.433301 S    
C24   N11   1.429928 S    
O6    Cu2   1.917865 S    
C26   N13   1.434871 S    
C12   C14   1.414468 A    
O3    C1    1.294599 A    
O8    Cu1   1.923343 S    
C13   C15   1.388584 A    
C17   N1    1.420133 S    
C14   C16   1.388602 A    
C7    H2    1.086831 S    
C18   N2    1.420126 S    
N8    O13   1.300455 A    
C16   C18   1.409631 A    
C17   C19   1.404805 A    
C23   N12   1.429927 S    
C18   C20   1.404843 A    
O9    H9    0.989070 S    
C16   H3    1.083038 S    
C6    C9    1.199442 T    
N4    C32   1.362068 A    
N4    C24   1.378428 A    
C11   C13   1.414479 A    
N7    O11   1.300450 A    
O2    Cu2   1.954961 S    
C14   O9    1.382183 S    
C32   H8    1.080013 S    
N13   O23   1.301207 A    
O5    Cu1   1.917866 S    
N3    C23   1.378431 A    
N14   O25   1.301205 A    
C25   N14   1.434866 S    
N10   O18   1.300315 A    
C13   O10   1.382176 S    
C20   C22   1.406339 A    
