data_mof_unit_31938.cif
_audit_creation_date              2012-12-10T18:29:39-0500
_audit_creation_method            fapswitch 2.2
_symmetry_space_group_name_H-M    P1
_symmetry_Int_Tables_number       1
_space_group_crystal_system       triclinic
_cell_length_a                    11.530957
_cell_length_b                    14.954611
_cell_length_c                    15.672387
_cell_angle_alpha                 80.998803
_cell_angle_beta                  90.983969
_cell_angle_gamma                 103.372698
_cell_volume                      2596.39713656

loop_
_atom_site_label
_atom_site_type_symbol
_atom_type_description
_atom_site_fract_x
_atom_site_fract_y
_atom_site_fract_z
_atom_type_partial_charge
C1    C     C_R   0.478886 0.441263 0.661937 0.870832
C2    C     C_R   0.517992 0.559061 0.338652 0.865998
C3    C     C_R   0.484409 0.356094 0.932409 0.095155
C4    C     C_R   0.493497 0.648914 0.071995 0.088274
C5    C     C_R   0.492396 0.518944 0.955056 0.002129
C6    C     C_R   0.508498 0.491446 0.046532 0.007181
C7    C     C_R   0.509642 0.395121 0.077566 0.107974
C8    C     C_R   0.494248 0.615967 0.924910 0.109290
C9    C     C_R   0.503673 0.333111 0.019454 -0.292018
C10   C     C_R   0.485965 0.674879 0.984037 -0.285503
C11   C     C_R   0.715062 0.847830 0.604848 -0.324517
C12   C     C_R   0.336878 0.168403 0.350948 -0.327294
C13   C     C_R   0.663236 0.754995 0.601554 -0.032202
C14   C     C_R   0.354860 0.251332 0.383543 -0.036090
C15   C     C_R   0.514159 0.796916 0.506405 0.285901
C16   C     C_R   0.499316 0.207052 0.481428 0.299056
C17   C     C_R   0.567499 0.893065 0.503361 -0.039793
C18   C     C_R   0.491618 0.123822 0.445875 -0.060291
C19   C     C_R   0.668435 0.917131 0.555377 0.133140
C20   C     C_R   0.404279 0.104158 0.382162 0.143252
C21   C     C_R   0.523131 0.966231 0.453544 0.091761
C22   C     C_R   0.562161 0.057870 0.472422 0.073218
C23   C     C_R   0.717656 0.500487 0.500168 0.903967
C24   C     C_R   0.282354 0.499553 0.499752 0.892099
C25   C     C_R   0.672317 0.080066 0.513578 -0.225999
C26   C     C_R   0.445450 0.953254 0.383702 -0.195140
C27   C     C_R   0.723907 0.010466 0.555532 -0.206319
C28   C     C_R   0.386731 0.021188 0.348797 -0.227454
C29   C     C_1   0.838617 0.501350 0.500217 -0.202401
C30   C     C_1   0.161445 0.498846 0.499473 -0.196305
C31   C     C_1   0.940805 0.500813 0.499966 -0.007545
C32   C     C_1   0.059304 0.499532 0.499597 -0.008596
C33   C     C_R   0.464047 0.405322 0.755073 -0.103608
C34   C     C_R   0.522831 0.597723 0.247332 -0.091815
C35   C     C_R   0.469331 0.286190 0.877910 0.119180
C36   C     C_R   0.483631 0.711868 0.130211 0.121223
C37   C     C_R   0.469243 0.314811 0.788473 -0.216545
C38   C     C_R   0.489069 0.680587 0.218911 -0.205364
C39   C     C_R   0.447794 0.464616 0.811671 -0.269433
C40   C     C_R   0.553528 0.547346 0.188109 -0.279632
C41   C     C_R   0.476177 0.448514 0.899347 0.072438
C42   C     C_R   0.518107 0.560803 0.102418 0.075150
H1    H     H_    0.512643 0.263475 0.044582 0.145179
H2    H     H_    0.478439 0.744853 0.959225 0.143403
H3    H     H_    0.720453 0.150801 0.513378 0.153941
H4    H     H_    0.432173 0.892718 0.352366 0.164295
H5    H     H_    0.606570 0.499334 0.211409 0.175954
H6    H     H_    0.409203 0.520704 0.784813 0.179722
H7    H     H_    0.468882 0.720093 0.266485 0.136327
H8    H     H_    0.471027 0.267288 0.744579 0.165681
H9    H     H_    0.805842 0.029782 0.590117 0.146703
H10   H     H_    0.324873 0.007636 0.296934 0.147812
H11   H     H_    0.307018 0.303343 0.357199 0.148885
H12   H     H_    0.703452 0.701190 0.635036 0.149864
H13   H     H_    0.793190 0.865408 0.643764 0.151018
H14   H     H_    0.272325 0.155289 0.300650 0.149171
N1    N     N_R   0.566020 0.731700 0.552730 -0.126658
N2    N     N_R   0.433980 0.268300 0.447270 -0.115379
O1    O     O_R   0.466720 0.383110 0.605620 -0.587283
O2    O     O_R   0.533280 0.616890 0.394380 -0.635100
O3    O     O_R   0.509090 0.531900 0.639510 -0.625058
O4    O     O_R   0.490910 0.468100 0.360490 -0.627062
O5    O     O_R   0.644370 0.425610 0.483050 -0.625345
O6    O     O_R   0.355630 0.574390 0.516950 -0.626555
O7    O     O_R   0.686740 0.574390 0.516930 -0.606268
O8    O     O_R   0.313260 0.425610 0.483070 -0.609056
Zn1   Zn    Zn3+2 0.471710 0.400660 0.477370 0.937321
Zn2   Zn    Zn3+2 0.528290 0.599340 0.522630 0.919805
C43   C     C_3   0.452617 0.182957 0.915951 -0.441997
C44   C     C_3   0.409319 0.113301 0.853188 -0.353000
C45   C     C_3   0.372072 0.013402 0.900133 -0.900198
H15   H     H_    0.448860 0.992764 0.934778 0.266317
H16   H     H_    0.297573 0.006166 0.946562 0.260458
H17   H     H_    0.341541 0.965723 0.852410 0.250466
H18   H     H_    0.331932 0.130544 0.816477 0.229474
H19   H     H_    0.483148 0.116263 0.808132 0.225920
H20   H     H_    0.538019 0.171095 0.944012 0.195322
H21   H     H_    0.384367 0.166735 0.968882 0.211310
C46   C     C_3   0.465943 0.809781 0.097513 -0.438474
C47   C     C_3   0.466133 0.872405 0.166765 -0.345930
C48   C     C_3   0.461015 0.971088 0.126291 -0.906212
H22   H     H_    0.536132 0.001766 0.079401 0.261951
H23   H     H_    0.374993 0.970538 0.093322 0.264551
H24   H     H_    0.468434 0.015686 0.177308 0.254361
H25   H     H_    0.387298 0.843102 0.210694 0.213176
H26   H     H_    0.548975 0.876508 0.204816 0.228246
H27   H     H_    0.540098 0.845899 0.051122 0.201765
H28   H     H_    0.380348 0.803685 0.062647 0.201735
C49   C     C_3   0.514814 0.347532 0.170618 -0.410002
C50   C     C_3   0.643544 0.338666 0.191292 -0.354529
C51   C     C_3   0.658651 0.305749 0.286751 -0.860495
H29   H     H_    0.630542 0.352279 0.326747 0.289293
H30   H     H_    0.605184 0.233742 0.304569 0.265012
H31   H     H_    0.753705 0.305902 0.299474 0.242455
H32   H     H_    0.667089 0.287745 0.153978 0.219506
H33   H     H_    0.708697 0.405871 0.171175 0.218678
H34   H     H_    0.471970 0.377435 0.218213 0.215324
H35   H     H_    0.457061 0.275756 0.178726 0.191353
C52   C     C_3   0.506926 0.667387 0.832553 -0.409610
C53   C     C_3   0.386080 0.688268 0.803041 -0.366818
C54   C     C_3   0.387331 0.726671 0.707744 -0.859779
H36   H     H_    0.460962 0.789607 0.692086 0.270271
H37   H     H_    0.397074 0.672370 0.669482 0.294881
H38   H     H_    0.301592 0.746396 0.691618 0.239760
H39   H     H_    0.312666 0.624790 0.816815 0.221206
H40   H     H_    0.364241 0.740664 0.839228 0.218047
H41   H     H_    0.572593 0.735270 0.830773 0.190536
H42   H     H_    0.549929 0.634569 0.787331 0.209203
N3    N     N_2   0.565236 0.226336 0.556093 -0.269101
H43   H     H_    0.653435 0.261112 0.548430 0.223301
C55   C     C_3   0.526885 0.164382 0.635825 -0.821983
H44   H     H_    0.588003 0.187446 0.687574 0.224628
H45   H     H_    0.529013 0.091616 0.631930 0.250769
H46   H     H_    0.433697 0.165137 0.651634 0.241651
N4    N     N_2   0.407704 0.767374 0.461491 -0.325441
H47   H     H_    0.404606 0.716432 0.424138 0.262972
C56   C     C_3   0.296601 0.769762 0.501633 -0.791328
H48   H     H_    0.228773 0.774505 0.451060 0.238432
H49   H     H_    0.307468 0.831287 0.535215 0.245804
H50   H     H_    0.263590 0.705296 0.548207 0.262091

loop_
_geom_bond_atom_site_label_1
_geom_bond_atom_site_label_2
_ccdc_geom_bond_type
C40   H5    S    
C21   C26   A    
C4    C36   A    
C54   H36   S    
C25   H3    S    
C28   H10   S    
C43   H20   S    
C55   H44   S    
C46   H27   S    
C48   H22   S    
C1    C33   S    
C50   H32   S    
C39   C41   A    
C38   H7    S    
C52   H42   S    
C11   C19   A    
C53   H39   S    
C33   C39   A    
O4    Zn1   S    
C34   C40   A    
C23   C29   S    
C35   C37   A    
C8    C52   S    
C56   H49   S    
C5    C6    A    
C2    O2    A    
C23   O5    A    
C13   N1    A    
N4    H47   S    
C7    C49   S    
C15   C17   A    
C47   H26   S    
N3    C55   S    
O1    Zn1   S    
C31   C32   S    
N4    C56   S    
C22   C25   A    
C44   C45   S    
C19   C27   A    
C24   O8    A    
C2    C34   S    
C40   C42   A    
O8    Zn1   S    
C24   O6    A    
C34   C38   A    
C21   C22   A    
C15   N1    A    
C43   H21   S    
C46   H28   S    
C48   H23   S    
C27   H9    S    
C16   N3    S    
C14   N2    A    
O5    Zn1   S    
C9    H1    S    
C10   H2    S    
C56   H50   S    
C51   H29   S    
C45   H16   S    
C20   C28   A    
C33   C37   A    
C49   H34   S    
C47   H25   S    
C3    C9    A    
C51   H30   S    
C52   C53   S    
C3    C35   A    
O7    Zn2   S    
C12   C20   A    
C55   H45   S    
C16   C18   A    
C16   N2    A    
O2    Zn2   S    
C12   H14   S    
C8    C10   A    
C12   C14   A    
C54   H38   S    
C44   H19   S    
C15   N4    S    
C5    C8    A    
N1    Zn2   S    
C4    C10   A    
O6    Zn2   S    
C48   H24   S    
C11   H13   S    
C13   H12   S    
C7    C9    A    
C5    C41   A    
C3    C41   A    
C18   C22   A    
C53   H40   S    
C47   C48   S    
C36   C46   S    
C1    O3    A    
C45   H17   S    
C50   H33   S    
C6    C7    A    
C25   C27   A    
C52   H41   S    
C26   C28   A    
C49   H35   S    
C23   O7    A    
C1    O1    A    
C45   H15   S    
C29   C31   T    
C56   H48   S    
C51   H31   S    
C30   C32   T    
C37   H8    S    
C11   C13   A    
O3    Zn2   S    
C50   C51   S    
C4    C42   A    
C36   C38   A    
C53   C54   S    
C17   C19   A    
C55   H46   S    
C18   C20   A    
C43   C44   S    
C24   C30   S    
C26   H4    S    
C46   C47   S    
N2    Zn1   S    
C14   H11   S    
C35   C43   S    
C54   H37   S    
C6    C42   A    
C44   H18   S    
C49   C50   S    
N3    H43   S    
C2    O4    A    
C39   H6    S    
C17   C21   A    
