data_mof_unit_13153.cif
_audit_creation_date              2013-03-05T16:03:26-0500
_audit_creation_method            fapswitch 2.2
_symmetry_space_group_name_H-M    P1
_symmetry_Int_Tables_number       1
_space_group_crystal_system       triclinic
_cell_length_a                    6.970731
_cell_length_b                    18.410181
_cell_length_c                    20.123328
_cell_angle_alpha                 68.335349
_cell_angle_beta                  90.638835
_cell_angle_gamma                 90.931855
_cell_volume                      2399.69642135

loop_
_atom_site_label
_atom_site_type_symbol
_atom_site_description
_atom_site_fract_x
_atom_site_fract_y
_atom_site_fract_z
_atom_type_partial_charge
O1    O     O_R   0.488960 0.443750 0.941980 -0.584792
O2    O     O_R   0.823890 0.406510 0.087590 -0.586068
O3    O     O_R   0.999680 0.556250 0.058020 -0.572637
C1    C     C_R   0.654650 0.382463 0.114316 1.196821
O4    O     O_R   0.818360 0.434410 0.944340 -0.585983
O5    O     O_R   0.994110 0.584350 0.913750 -0.572296
C2    C     C_R   0.649057 0.420464 0.923959 1.020825
O6    O     O_R   0.494530 0.415650 0.086250 -0.585877
O7    O     O_3   0.662590 0.549160 0.990130 -0.263025
V1    V     V_3+5 0.935320 0.490880 0.001830 1.263998
O8    O     O_R   0.324180 0.593490 0.912410 -0.608036
C3    C     C_R   0.155012 0.617453 0.885507 1.043374
O9    O     O_R   0.329720 0.565590 0.055660 -0.560670
C4    C     C_R   0.162772 0.578773 0.076790 1.037569
V2    V     V_3+5 0.435990 0.509120 0.998170 1.267972
O10   O     O_3   0.158850 0.450840 0.009870 -0.279728
C5    C     C_3   0.019912 0.715205 0.303002 0.167495
C6    C     C_3   0.210163 0.686306 0.284224 0.155754
C7    C     C_1   0.158874 0.625316 0.121333 -0.268388
C8    C     C_1   0.105296 0.878982 0.375012 -0.229659
C9    C     C_3   0.955958 0.740478 0.223855 0.145957
C10   C     C_3   0.146740 0.711166 0.204698 -0.265011
C11   C     C_3   0.046327 0.822340 0.208455 0.140969
C12   C     C_3   0.109811 0.797410 0.288004 -0.337385
C13   C     C_3   0.237017 0.793347 0.189747 0.375740
C14   C     C_3   0.300229 0.767939 0.268866 0.159410
C15   C     C_1   0.155763 0.664193 0.158693 0.378435
C16   C     C_1   0.105121 0.842794 0.335380 0.396322
C17   C     C_R   0.057407 0.776138 0.880373 0.395924
C18   C     C_R   0.028242 0.852373 0.878870 0.304651
C19   C     C_R   0.049928 0.916699 0.814618 0.063612
C20   C     C_R   0.088980 0.905675 0.750527 0.306305
C21   C     C_R   0.101530 0.828512 0.749559 -0.101044
C22   C     C_R   0.099911 0.763189 0.816147 -0.106482
C23   C     C_R   0.123927 0.815870 0.683895 -0.193634
C24   C     C_R   0.170317 0.740074 0.684867 -0.010306
C25   C     C_R   0.182601 0.676524 0.751816 -0.003383
C26   C     C_R   0.144040 0.687033 0.816959 -0.131398
C27   C     C_R   0.212351 0.726106 0.620864 0.325014
C28   C     C_R   0.264836 0.650889 0.624489 0.123025
C29   C     C_R   0.272540 0.588924 0.690538 0.289621
C30   C     C_R   0.232226 0.601983 0.752834 -0.353114
H1    H     H_    0.237961 0.551880 0.802426 0.174133
C31   C     C_R   0.544843 0.096976 0.249834 0.360521
C32   C     C_R   0.504107 0.087721 0.184699 0.344282
C33   C     C_R   0.543479 0.149021 0.119778 0.077701
C34   C     C_R   0.609685 0.221821 0.119798 0.314878
C35   C     C_R   0.614657 0.237110 0.184492 -0.077429
C36   C     C_R   0.592506 0.172859 0.250989 -0.132794
C37   C     C_R   0.644405 0.314614 0.183833 -0.134063
C38   C     C_R   0.661501 0.327841 0.249489 -0.136696
C39   C     C_R   0.665347 0.262395 0.315865 -0.123056
C40   C     C_R   0.623077 0.185420 0.316581 -0.133765
C41   C     C_R   0.675110 0.405359 0.250494 0.360854
C42   C     C_R   0.703129 0.416630 0.315333 0.273005
C43   C     C_R   0.736406 0.352501 0.378773 0.263904
C44   C     C_R   0.710851 0.275902 0.380134 0.379132
O11   O     O_R   0.770540 0.084530 0.414050 -0.575175
O12   O     O_R   0.445710 0.065660 0.555720 -0.584785
O13   O     O_R   0.270420 0.915650 0.586190 -0.579252
C45   C     C_R   0.614361 0.077735 0.577862 1.019209
O14   O     O_R   0.441140 0.093540 0.412470 -0.591152
O15   O     O_R   0.265820 0.943740 0.441930 -0.567279
C46   C     C_R   0.610656 0.117646 0.385917 1.187303
O16   O     O_R   0.775150 0.056440 0.558310 -0.557758
O17   O     O_3   0.602370 0.950960 0.510050 -0.276066
V3    V     V_3+5 0.329450 0.009140 0.498150 1.271534
O18   O     O_R   0.935790 0.934280 0.444060 -0.577555
C47   C     C_R   0.102636 0.922371 0.422140 1.035840
O19   O     O_R   0.940370 0.906390 0.587310 -0.600437
C48   C     C_R   0.109698 0.883091 0.614484 1.214193
V4    V     V_3+5 0.828810 0.990710 0.501460 1.283143
O20   O     O_3   0.105780 0.049100 0.489960 -0.268053
C49   C     C_3   0.722252 0.310118 0.721731 0.130980
C50   C     C_3   0.536300 0.283021 0.695565 0.135876
C51   C     C_1   0.620383 0.120676 0.625438 -0.262006
C52   C     C_1   0.641215 0.372592 0.880776 -0.181381
C53   C     C_3   0.804724 0.227581 0.740762 0.414877
C54   C     C_3   0.618707 0.200302 0.714131 -0.244384
C55   C     C_3   0.719883 0.203118 0.816378 0.313152
C56   C     C_3   0.639070 0.285965 0.798109 -0.345834
C57   C     C_3   0.532627 0.174216 0.791048 -0.276505
C58   C     C_3   0.454047 0.258063 0.771598 0.298283
C59   C     C_1   0.618833 0.156225 0.665621 0.280665
C60   C     C_1   0.640481 0.333019 0.844083 0.415722
H2    H     H_    0.454410 0.118879 0.820381 0.254101
N1    N     N_R   0.296916 0.612152 0.327263 0.304146
O21   O     O_R   0.352132 0.599611 0.392442 -0.205607
O22   O     O_R   0.302877 0.555711 0.303180 -0.343712
N2    N     N_R   0.032822 0.994273 0.814183 0.254939
O23   O     O_R   0.154991 0.020142 0.849826 -0.312930
O24   O     O_R   0.904110 0.040843 0.774036 -0.369271
O25   O     O_3   0.123792 0.970228 0.688961 -0.746390
H3    H     H_    0.173167 0.014580 0.701045 0.357463
O26   O     O_3   0.203471 0.786215 0.555017 -0.774060
H4    H     H_    0.296191 0.777357 0.521963 0.352640
N3    N     N_R   0.313657 0.637894 0.560683 0.270522
O27   O     O_R   0.482312 0.611919 0.554367 -0.239076
O28   O     O_R   0.189856 0.652082 0.508760 -0.255495
O29   O     O_3   0.794474 0.363094 0.440593 -0.679280
H5    H     H_    0.865246 0.413511 0.427643 0.389456
O30   O     O_3   0.531142 0.032390 0.312839 -0.753092
H6    H     H_    0.530086 0.983299 0.303346 0.386898
O31   O     O_3   0.425378 0.017440 0.186720 -0.692198
H7    H     H_    0.354171 0.025725 0.141733 0.370018
N4    N     N_R   0.518852 0.137287 0.053379 0.255743
O32   O     O_R   0.593884 0.077054 0.044847 -0.256656
O33   O     O_R   0.424491 0.187654 0.000754 -0.320653
O34   O     O_3   0.677843 0.277438 0.057265 -0.771452
H8    H     H_    0.726908 0.251570 0.025726 0.369376
N5    N     N_R   0.905485 0.670632 0.365293 0.320710
O35   O     O_R   0.857655 0.598588 0.376609 -0.260275
O36   O     O_R   0.869963 0.699290 0.413942 -0.246737
O37   O     O_3   0.649397 0.469959 0.188201 -0.746574
H9    H     H_    0.690597 0.518694 0.194573 0.388521
O38   O     O_3   0.694228 0.491435 0.315401 -0.647046
H10   H     H_    0.643042 0.488397 0.362117 0.406460
O39   O     O_3   0.738761 0.213414 0.443629 -0.771553
H11   H     H_    0.756444 0.230821 0.484295 0.369279
N6    N     N_R   0.432864 0.325827 0.629619 0.300315
O40   O     O_R   0.494206 0.394004 0.586988 -0.212360
O41   O     O_R   0.286312 0.293420 0.610532 -0.329808
N7    N     N_R   0.823067 0.382925 0.681784 0.323154
O42   O     O_R   0.900075 0.392589 0.620478 -0.219716
O43   O     O_R   0.832982 0.439142 0.706235 -0.300410
N8    N     N_R   0.265869 0.274870 0.791912 0.287631
O44   O     O_R   0.175649 0.336136 0.750454 -0.277894
O45   O     O_R   0.211181 0.240844 0.857831 -0.283477
N9    N     N_R   0.818630 0.158188 0.882719 0.315302
O46   O     O_R   0.844682 0.083836 0.899367 -0.238926
O47   O     O_R   0.857285 0.189359 0.929789 -0.314897
O48   O     O_3   0.989335 0.209539 0.726054 -0.625845
H12   H     H_    0.988866 0.219007 0.674320 0.360090
N10   N     N_R   0.484133 0.784349 0.295569 0.276639
O49   O     O_R   0.598335 0.837273 0.253168 -0.335812
O50   O     O_R   0.513093 0.760009 0.364199 -0.297637
O51   O     O_3   0.351004 0.834075 0.130558 -0.590581
H13   H     H_    0.372546 0.886590 0.132487 0.376385
N11   N     N_R   0.959056 0.896310 0.165068 0.297177
O52   O     O_R   0.917867 0.910760 0.098259 -0.233145
O53   O     O_R   0.930622 0.949669 0.191758 -0.336698
N12   N     N_R   0.770516 0.724922 0.197387 0.281732
O54   O     O_R   0.658123 0.670563 0.239011 -0.317213
O55   O     O_R   0.733296 0.754733 0.129236 -0.292354
N13   N     N_R   0.317436 0.511468 0.695004 0.286443
O56   O     O_R   0.256575 0.485679 0.646330 -0.196272
O57   O     O_R   0.406988 0.464231 0.750749 -0.398267
O58   O     O_3   0.040584 0.713245 0.944332 -0.762700
H14   H     H_    0.998783 0.729607 0.983421 0.375547
O59   O     O_3   0.981297 0.861913 0.941858 -0.660709
H15   H     H_    0.927811 0.914426 0.931507 0.402447

loop_
_geom_bond_atom_site_label_1
_geom_bond_atom_site_label_2
_geom_bond_distance
_ccdc_geom_bond_type
C31   C36   1.439212 A    
C42   C43   1.402463 A    
O25   H3    0.989903 S    
C29   C30   1.393161 A    
O2    C1    1.303209 A    
O26   H4    0.989891 S    
C6    C14   1.542413 S    
C1    O6    1.300539 A    
O11   V4    2.001503 S    
C51   C59   1.213854 T    
C17   O58   1.381873 S    
N3    O27   1.301335 A    
N7    O42   1.300516 A    
C32   C33   1.401798 A    
C43   C44   1.408743 A    
N8    O44   1.296266 A    
O14   V3    2.001446 S    
C11   N11   1.457434 S    
C24   C25   1.424119 A    
C12   C14   1.547144 S    
C9    N12   1.456689 S    
O5    C3    1.299490 A    
C18   C19   1.401811 A    
C55   C56   1.545356 S    
C40   C46   1.491596 S    
C53   C55   1.540591 S    
C18   O59   1.385638 S    
C42   O38   1.380084 S    
V2    O10   2.166787 S    
C41   O37   1.385316 S    
O38   H10   0.991052 S    
C25   C30   1.413444 A    
C53   O48   1.396049 S    
O39   H11   0.988767 S    
O14   C46   1.304112 A    
N3    O28   1.300165 A    
C41   C42   1.405897 A    
O8    V2    2.007132 S    
O17   V4    1.712321 S    
O15   C47   1.303199 A    
O13   V3    2.003066 S    
O18   C47   1.298631 A    
C10   C13   1.553303 S    
C11   C12   1.554765 S    
O19   C48   1.305796 A    
V3    O20   1.715040 S    
C17   C18   1.410623 A    
C7    C15   1.214959 T    
O7    V1    2.165820 S    
C2    C52   1.448348 S    
O12   V3    1.980740 S    
C35   C37   1.433727 A    
C49   N7    1.457087 S    
C52   C60   1.213674 T    
O1    C2    1.303881 A    
O9    C4    1.300161 A    
C5    N5    1.456849 S    
O31   H7    0.989794 S    
C56   C58   1.541869 S    
N6    O41   1.299121 A    
C5    C6    1.538570 S    
C24   C27   1.437439 A    
C45   C51   1.449203 S    
O11   C46   1.299051 A    
O15   V3    1.975729 S    
O12   C45   1.297301 A    
C5    C12   1.552526 S    
C49   C50   1.537526 S    
N13   O57   1.298493 A    
C38   C39   1.431269 A    
O58   H14   0.988589 S    
C55   C57   1.552291 S    
C28   N3    1.435570 S    
O4    C2    1.297697 A    
C31   O30   1.384323 S    
C53   C54   1.543634 S    
O48   H12   0.990034 S    
N10   O50   1.299499 A    
C8    C16   1.213337 T    
O13   C48   1.295783 A    
C13   C14   1.545656 S    
C34   O34   1.379798 S    
C17   C22   1.432960 A    
C5    C9    1.547791 S    
C1    C37   1.493820 S    
C23   C24   1.430567 A    
C22   C26   1.434423 A    
C13   O51   1.398052 S    
C25   C26   1.423007 A    
C14   N10   1.454408 S    
C32   O31   1.384019 S    
N2    O24   1.300069 A    
C34   C35   1.429842 A    
O18   V4    1.974848 S    
C19   N2    1.431857 S    
C20   O25   1.384328 S    
C37   C38   1.432547 A    
N5    O36   1.299664 A    
C39   C40   1.437600 A    
C27   O26   1.379105 S    
O3    C4    1.303003 A    
O1    V2    1.972749 S    
C35   C36   1.429559 A    
O6    V2    2.005993 S    
C10   C15   1.484276 S    
O9    V2    1.974881 S    
C49   C53   1.542718 S    
N12   O55   1.300118 A    
C8    C47   1.448455 S    
C30   H1    1.081196 S    
C43   O29   1.383774 S    
C49   C56   1.550203 S    
O2    V1    2.001431 S    
N13   O56   1.300888 A    
C27   C28   1.413530 A    
C31   C32   1.408087 A    
N9    O46   1.298870 A    
C33   C34   1.410529 A    
C28   C29   1.397051 A    
N8    O45   1.298981 A    
C55   N9    1.457022 S    
N5    O35   1.298665 A    
C6    C10   1.554334 S    
C4    C7    1.451488 S    
C19   C20   1.407682 A    
C50   N6    1.458414 S    
C12   C16   1.482503 S    
V4    O20   2.166894 S    
O5    V1    2.002993 S    
C54   C57   1.564920 S    
N11   O52   1.300194 A    
O37   H9    0.989792 S    
N10   O49   1.298915 A    
O16   V4    1.989831 S    
O51   H13   0.990797 S    
C6    N1    1.456613 S    
O59   H15   0.989116 S    
C38   C41   1.436303 A    
C20   C21   1.431996 A    
C9    C11   1.546873 S    
O7    V2    1.715913 S    
O4    V1    1.980746 S    
O3    V1    1.975864 S    
V1    O10   1.714971 S    
O34   H8    0.989893 S    
C57   H2    1.108467 S    
N11   O53   1.300373 A    
C50   C58   1.540402 S    
N2    O23   1.300727 A    
C54   C59   1.482004 S    
N4    O33   1.301245 A    
C36   C40   1.434778 A    
C33   N4    1.438139 S    
O29   H5    0.991061 S    
C21   C23   1.434365 A    
C21   C22   1.432486 A    
O17   V3    2.165796 S    
C11   C13   1.541479 S    
C3    C26   1.498564 S    
O30   H6    0.990228 S    
N7    O43   1.300377 A    
C39   C44   1.435558 A    
C23   C48   1.488951 S    
C45   O16   1.304897 A    
C29   N13   1.434821 S    
N1    O21   1.299938 A    
C57   C58   1.553275 S    
N4    O32   1.301583 A    
N12   O54   1.298900 A    
N1    O22   1.299992 A    
N6    O40   1.299944 A    
O19   V4    2.007060 S    
C58   N8    1.449842 S    
C9    C10   1.548161 S    
C50   C54   1.546695 S    
C56   C60   1.482459 S    
O8    C3    1.305617 A    
C44   O39   1.382155 S    
N9    O47   1.299919 A    
