data_mof_unit_42755.cif
_audit_creation_date              2013-03-05T16:10:36-0500
_audit_creation_method            fapswitch 2.2
_symmetry_space_group_name_H-M    P1
_symmetry_Int_Tables_number       1
_space_group_crystal_system       triclinic
_cell_length_a                    15.264057
_cell_length_b                    16.551352
_cell_length_c                    9.741863
_cell_angle_alpha                 91.346782
_cell_angle_beta                  88.503553
_cell_angle_gamma                 90.359181
_cell_volume                      2459.6334255

loop_
_atom_site_label
_atom_site_type_symbol
_atom_site_description
_atom_site_fract_x
_atom_site_fract_y
_atom_site_fract_z
_atom_type_partial_charge
O1    O     O_R   0.091250 0.408820 0.620260 -0.578382
O2    O     O_R   0.091250 0.408820 0.379740 -0.577650
O3    O     O_R   0.091250 0.591180 0.620260 -0.553391
O4    O     O_R   0.091250 0.591180 0.379740 -0.618774
O5    O     O_R   0.591250 0.908820 0.620260 -0.584188
O6    O     O_R   0.591250 0.908820 0.379740 -0.543781
O7    O     O_R   0.591250 0.091180 0.620260 -0.603548
O8    O     O_R   0.591250 0.091180 0.379740 -0.567479
C1    C     C_R   0.128727 0.390464 0.497722 0.841022
C2    C     C_R   0.120022 0.617822 0.498884 0.870760
C3    C     C_R   0.627193 0.889428 0.497386 0.842637
C4    C     C_R   0.623480 0.115123 0.500054 0.847838
O9    O     O_R   0.908940 0.408800 0.620260 -0.565454
O10   O     O_R   0.908940 0.408800 0.379740 -0.510980
O11   O     O_R   0.908940 0.591200 0.620260 -0.497364
O12   O     O_R   0.908940 0.591200 0.379740 -0.508838
O13   O     O_R   0.408940 0.908800 0.620260 -0.500527
O14   O     O_R   0.408940 0.908800 0.379740 -0.522385
O15   O     O_R   0.408940 0.091200 0.620260 -0.532019
O16   O     O_R   0.408940 0.091200 0.379740 -0.528047
C5    C     C_R   0.879918 0.379162 0.500391 0.891683
C6    C     C_R   0.878769 0.621052 0.503973 0.901003
C7    C     C_R   0.375175 0.882991 0.500627 0.899738
C8    C     C_R   0.380933 0.121910 0.500393 0.894935
Cu1   Cu    Cu3+1 0.000100 0.500000 0.642410 1.085079
Cu2   Cu    Cu3+1 0.000100 0.500000 0.357590 1.070694
Cu3   Cu    Cu3+1 0.500100 0.000000 0.642410 1.079469
Cu4   Cu    Cu3+1 0.500100 0.000000 0.357590 1.084557
C9    C     C_3   0.793853 0.268231 0.651820 0.102927
C10   C     C_3   0.849188 0.228492 0.417877 0.068497
C11   C     C_3   0.845036 0.776747 0.584101 0.057078
C12   C     C_3   0.789077 0.721001 0.357989 0.035316
C13   C     C_3   0.346773 0.729216 0.518785 0.034873
C14   C     C_3   0.250857 0.799026 0.355076 0.064853
C15   C     C_3   0.325736 0.256255 0.625583 0.039105
C16   C     C_3   0.337066 0.259526 0.373491 0.119249
H1    H     H_    0.848228 0.224501 0.663272 0.109058
H2    H     H_    0.911376 0.212227 0.468019 0.120962
H3    H     H_    0.895195 0.796719 0.507852 0.133858
H4    H     H_    0.854593 0.727537 0.308376 0.197920
H5    H     H_    0.398148 0.725922 0.435082 0.153351
H6    H     H_    0.300917 0.766755 0.289914 0.147001
H7    H     H_    0.396857 0.272506 0.627410 0.157945
H8    H     H_    0.388258 0.301873 0.412292 0.106226
C17   C     C_3   0.282483 0.656870 0.487550 0.019945
C18   C     C_3   0.173114 0.737933 0.368892 0.052985
C19   C     C_3   0.275163 0.337394 0.605428 0.061234
C20   C     C_3   0.256521 0.318931 0.352127 0.059727
C21   C     C_3   0.711028 0.211828 0.652369 0.038927
C22   C     C_3   0.785853 0.152396 0.440049 0.024834
C23   C     C_3   0.776426 0.847769 0.591070 0.057781
C24   C     C_3   0.749845 0.806574 0.355776 0.066467
H9    H     H_    0.296625 0.635433 0.379970 0.133839
H10   H     H_    0.175600 0.698516 0.274842 0.180093
H11   H     H_    0.323317 0.380949 0.561465 0.156743
H12   H     H_    0.283669 0.379739 0.328286 0.141199
H13   H     H_    0.726934 0.158845 0.715530 0.148410
H14   H     H_    0.815823 0.115873 0.520957 0.130168
H15   H     H_    0.810053 0.901547 0.546694 0.144440
H16   H     H_    0.806688 0.848919 0.347968 0.144313
H17   H     H_    0.194408 0.704580 0.700207 0.274258
H18   H     H_    0.099341 0.751814 0.642676 0.265699
H19   H     H_    0.124391 0.247652 0.618292 0.231887
H20   H     H_    0.094752 0.242996 0.445735 0.221549
H21   H     H_    0.591489 0.260314 0.432095 0.225052
H22   H     H_    0.669340 0.232231 0.304255 0.250206
H23   H     H_    0.611882 0.766476 0.642152 0.262430
H24   H     H_    0.599727 0.732222 0.475550 0.244451
C25   C     C_3   0.715867 0.330453 0.441627 0.477616
C26   C     C_3   0.710883 0.675526 0.583466 0.486798
C27   C     C_3   0.220109 0.825685 0.616831 0.474277
C28   C     C_3   0.211162 0.170396 0.485353 0.483637
C29   C     C_3   0.811149 0.306882 0.501252 -0.351013
C30   C     C_3   0.807330 0.693590 0.513615 -0.371656
C31   C     C_3   0.300341 0.814706 0.502897 -0.350592
C32   C     C_3   0.314538 0.196467 0.496294 -0.346289
C33   C     C_3   0.185572 0.686788 0.494585 -0.251248
C34   C     C_3   0.201985 0.326343 0.492528 -0.212889
C35   C     C_3   0.694268 0.180689 0.501449 -0.212003
C36   C     C_3   0.698683 0.825344 0.496020 -0.211188
C37   C     C_3   0.169731 0.742719 0.619540 -0.357566
C38   C     C_3   0.153062 0.246319 0.512043 -0.416719
C39   C     C_3   0.662906 0.251018 0.414556 -0.382091
C40   C     C_3   0.650923 0.748819 0.549442 -0.370726
C41   C     C_3   0.044652 0.572714 0.085093 0.211754
C42   C     C_3   0.056202 0.566231 0.923737 0.234894
C43   C     C_3   0.911624 0.481262 0.077389 0.213689
C44   C     C_3   0.913141 0.491479 0.916567 0.197700
C45   C     C_3   0.419362 0.031725 0.088692 0.183682
C46   C     C_3   0.426741 0.045725 0.929882 0.204032
C47   C     C_3   0.520284 0.919009 0.079558 0.224851
C48   C     C_3   0.521022 0.918712 0.916956 0.206614
H25   H     H_    0.112232 0.576288 0.125805 0.092433
H26   H     H_    0.126745 0.550762 0.903372 0.114752
H27   H     H_    0.899801 0.415070 0.090675 0.162865
H28   H     H_    0.887892 0.433235 0.877556 0.174096
H29   H     H_    0.408776 0.092420 0.134574 0.193545
H30   H     H_    0.440994 0.111441 0.922047 0.145460
H31   H     H_    0.588196 0.909343 0.101065 0.151148
H32   H     H_    0.589220 0.903059 0.884913 0.151817
H33   H     H_    0.125274 0.440722 0.103317 0.217230
H34   H     H_    0.109178 0.419272 0.868114 0.264728
H35   H     H_    0.034484 0.374309 0.123627 0.280710
H36   H     H_    0.011220 0.369152 0.883919 0.237990
H37   H     H_    0.562929 0.117086 0.115679 0.251937
H38   H     H_    0.578633 0.110342 0.875991 0.243239
H39   H     H_    0.637442 0.036258 0.121314 0.249037
H40   H     H_    0.641618 0.024203 0.878493 0.225594
C49   C     C_3   0.054886 0.432523 0.079108 -0.360726
C50   C     C_3   0.044926 0.426493 0.913850 -0.391900
C51   C     C_3   0.572713 0.053158 0.081864 -0.368892
C52   C     C_3   0.577190 0.048154 0.915055 -0.402468
N1    N     N_3   0.001260 0.500000 0.143650 -0.281541
N2    N     N_3   0.001260 0.500000 0.856350 -0.286488
N3    N     N_3   0.501260 0.000000 0.143650 -0.304191
N4    N     N_3   0.501260 0.000000 0.856350 -0.258500
N5    N     N_R   0.802206 0.317004 0.779466 0.170350
O17   O     O_R   0.740407 0.364405 0.826511 -0.162507
O18   O     O_R   0.859424 0.293581 0.867022 -0.346045
N6    N     N_R   0.876948 0.241908 0.274359 0.221333
O19   O     O_R   0.832037 0.214122 0.171623 -0.194918
O20   O     O_R   0.957481 0.264261 0.249351 -0.319226
N7    N     N_R   0.893232 0.775045 0.711571 0.223093
O21   O     O_R   0.855216 0.759297 0.828105 -0.110517
O22   O     O_R   0.965158 0.816831 0.717749 -0.229271
N8    N     N_R   0.735437 0.667410 0.268392 0.248947
O23   O     O_R   0.651569 0.659465 0.289948 -0.226588
O24   O     O_R   0.759179 0.661741 0.140202 -0.124275
N9    N     N_R   0.393374 0.718432 0.646520 0.221677
O25   O     O_R   0.352663 0.694832 0.757111 -0.176576
O26   O     O_R   0.475796 0.701378 0.635038 -0.290141
N10   N     N_R   0.220928 0.861365 0.262603 0.243351
O27   O     O_R   0.171131 0.920700 0.304648 -0.133944
O28   O     O_R   0.206722 0.834458 0.138322 -0.156040
N11   N     N_R   0.304516 0.223251 0.760478 0.232057
O29   O     O_R   0.223740 0.221841 0.807041 -0.212207
O30   O     O_R   0.366264 0.224990 0.849648 -0.259863
N12   N     N_R   0.384034 0.229164 0.248894 0.177731
O31   O     O_R   0.353339 0.239486 0.127627 -0.193165
O32   O     O_R   0.468302 0.218888 0.255751 -0.394983
Br1   Br    Br    0.305151 0.558033 0.583982 -0.341422
Br2   Br    Br    0.054650 0.786671 0.377761 -0.308370
Br3   Br    Br    0.260463 0.397718 0.777202 -0.308208
Br4   Br    Br    0.183256 0.292498 0.194299 -0.257950
Br5   Br    Br    0.604310 0.255628 0.744909 -0.294610
Br6   Br    Br    0.784089 0.068080 0.295514 -0.360168
Br7   Br    Br    0.752042 0.899228 0.770733 -0.335308
Br8   Br    Br    0.715936 0.834969 0.175235 -0.244576
N13   N     N_R   0.665940 0.380820 0.542720 0.186674
O33   O     O_R   0.581606 0.389921 0.531975 -0.243896
O34   O     O_R   0.706974 0.434563 0.614784 -0.199510
N14   N     N_R   0.718236 0.374909 0.311983 0.162411
O35   O     O_R   0.764675 0.349849 0.206625 -0.272299
O36   O     O_R   0.654722 0.424395 0.287599 -0.150677
N15   N     N_R   0.705919 0.666838 0.735677 0.189520
O37   O     O_R   0.701416 0.730545 0.815735 -0.216936
O38   O     O_R   0.665521 0.603915 0.785183 -0.115963
N16   N     N_R   0.671326 0.601701 0.524061 0.183969
O39   O     O_R   0.718957 0.549026 0.457732 -0.255114
O40   O     O_R   0.588563 0.585194 0.544810 -0.164964
N17   N     N_R   0.235158 0.847367 0.764147 0.204115
O41   O     O_R   0.248485 0.791737 0.853015 -0.183924
O42   O     O_R   0.193163 0.909530 0.817185 -0.105961
N18   N     N_R   0.166788 0.891862 0.567221 0.181603
O43   O     O_R   0.085347 0.899912 0.606703 -0.183645
O44   O     O_R   0.209097 0.957597 0.537903 -0.258375
N19   N     N_R   0.180061 0.113232 0.587841 0.171779
O45   O     O_R   0.231843 0.085600 0.676326 -0.210356
O46   O     O_R   0.097294 0.093685 0.598037 -0.224254
N20   N     N_R   0.189647 0.134044 0.350005 0.184253
O47   O     O_R   0.246007 0.130421 0.248565 -0.227022
O48   O     O_R   0.110495 0.107926 0.327486 -0.184492
N21   N     N_R   0.003124 0.647871 0.130457 0.171405
O49   O     O_R   0.047784 0.714424 0.123265 -0.222855
O50   O     O_R   0.919457 0.653726 0.131138 -0.265893
N22   N     N_R   0.050871 0.644857 0.865108 0.167841
O51   O     O_R   0.984849 0.664601 0.796289 -0.243998
O52   O     O_R   0.110104 0.698928 0.892312 -0.276479
N23   N     N_R   0.830104 0.513059 0.139828 0.209442
O53   O     O_R   0.816038 0.502889 0.268072 -0.237776
O54   O     O_R   0.759287 0.507423 0.068181 -0.158546
N24   N     N_R   0.852921 0.548374 0.861448 0.195706
O55   O     O_R   0.841026 0.619327 0.915896 -0.156595
O56   O     O_R   0.797997 0.521135 0.772465 -0.231108
N25   N     N_R   0.343426 0.984064 0.131910 0.190156
O57   O     O_R   0.296370 0.944229 0.044473 -0.149257
O58   O     O_R   0.311352 0.995808 0.254508 -0.245637
N26   N     N_R   0.342442 0.041927 0.868227 0.201497
O59   O     O_R   0.326573 0.988093 0.775856 -0.207708
O60   O     O_R   0.277593 0.082304 0.925589 -0.154542
N27   N     N_R   0.474946 0.849991 0.144586 0.182954
O61   O     O_R   0.394961 0.830360 0.117275 -0.248168
O62   O     O_R   0.520138 0.797694 0.210334 -0.275471
N28   N     N_R   0.473334 0.851414 0.860323 0.173441
O63   O     O_R   0.508582 0.780198 0.865138 -0.213795
O64   O     O_R   0.389782 0.856040 0.861194 -0.198114

loop_
_geom_bond_atom_site_label_1
_geom_bond_atom_site_label_2
_geom_bond_distance
_ccdc_geom_bond_type
N28   O64   1.277906 A    
C43   C44   1.579303 S    
C45   N3    1.476999 S    
N8    O23   1.298225 A    
C19   Br3   1.937038 S    
N15   O38   1.302884 A    
C13   C17   1.572626 S    
C51   C52   1.624871 S    
C14   H6    1.111747 S    
C28   C32   1.638756 S    
C15   C19   1.572057 S    
C22   C35   1.575678 S    
C11   N7    1.460711 S    
C44   H28   1.099115 S    
N17   O41   1.299111 A    
O7    Cu3   2.057466 S    
N7    O21   1.292706 A    
C18   Br2   1.983629 S    
C9    C21   1.566833 S    
C41   C42   1.578398 S    
N9    O26   1.292521 A    
C10   H2    1.116126 S    
N18   O44   1.295586 A    
O13   C7    1.345953 A    
C10   N6    1.471771 S    
O10   C5    1.347422 A    
Cu3   Cu4   2.774676 S    
N18   O43   1.298359 A    
C42   H26   1.119937 S    
O5    C3    1.336684 A    
C48   N28   1.434180 S    
N13   O34   1.289592 A    
C12   C30   1.624185 S    
N25   O58   1.289823 A    
C9    C29   1.628578 S    
N20   O47   1.293713 A    
H33   C49   1.112781 S    
C4    C35   1.526667 S    
C5    C29   1.586638 S    
C21   H13   1.114628 S    
C20   Br4   1.964215 S    
N26   O60   1.304053 A    
C20   C34   1.585158 S    
C23   C36   1.561753 S    
C12   C24   1.542029 S    
C24   H16   1.114126 S    
N7    O22   1.295861 A    
H22   C39   1.113614 S    
O5    Cu3   2.062815 S    
C41   H25   1.115531 S    
C13   C31   1.599064 S    
O11   C6    1.340142 A    
O6    Cu4   2.077783 S    
O16   C8    1.330807 A    
C47   N3    1.492382 S    
N10   O27   1.297753 A    
C43   H27   1.119175 S    
C26   C30   1.634454 S    
C41   N21   1.453935 S    
C25   C29   1.633015 S    
C14   C18   1.559419 S    
C46   N4    1.523971 S    
C26   C40   1.570917 S    
C50   N2    1.516553 S    
C42   N22   1.437043 S    
C16   H8    1.113933 S    
C49   N1    1.504742 S    
C14   C31   1.657835 S    
Cu3   N4    2.084712 S    
C22   Br6   1.959586 S    
N22   O52   1.296093 A    
N28   O63   1.301128 A    
C10   C22   1.598181 S    
C14   N10   1.468317 S    
H23   C40   1.103585 S    
C24   Br8   1.916144 S    
N11   O30   1.298085 A    
N16   O40   1.302446 A    
C48   H32   1.109423 S    
O9    Cu1   2.057993 S    
H39   C51   1.109277 S    
N17   O42   1.304770 A    
C2    C33   1.513796 S    
N6    O20   1.300075 A    
N21   O50   1.281210 A    
O12   Cu2   2.063161 S    
O7    C4    1.326519 A    
H37   C51   1.110595 S    
C15   C32   1.595419 S    
C27   C31   1.639241 S    
C43   N1    1.554437 S    
C27   N18   1.467088 S    
H19   C38   1.113000 S    
C21   Br5   1.974622 S    
C26   N15   1.493051 S    
O13   Cu3   2.057993 S    
O1    C1    1.339418 A    
N11   O29   1.302857 A    
O14   Cu4   2.057813 S    
C43   N23   1.465921 S    
N19   O46   1.304014 A    
C3    C36   1.526125 S    
C15   N11   1.462713 S    
C47   C48   1.583685 S    
C10   C29   1.617259 S    
C8    C32   1.603617 S    
C11   C30   1.632002 S    
H38   C52   1.105644 S    
O16   Cu4   2.063161 S    
Cu1   Cu2   2.774676 S    
N21   O49   1.294101 A    
C47   N27   1.478652 S    
H40   C52   1.109552 S    
C45   H29   1.101007 S    
N26   O59   1.278022 A    
C26   N16   1.472513 S    
H24   C40   1.105311 S    
N27   O62   1.300745 A    
C25   C39   1.559860 S    
Cu4   N3    2.083787 S    
C11   C23   1.578345 S    
C51   N3    1.518071 S    
C34   C38   1.529746 S    
C44   N24   1.442375 S    
O14   C7    1.350626 A    
O3    Cu1   2.057466 S    
O8    C4    1.333679 A    
C9    H1    1.114160 S    
C18   H10   1.112177 S    
C22   H14   1.113837 S    
O9    C5    1.340849 A    
O2    Cu2   2.077783 S    
N19   O45   1.278917 A    
O10   Cu2   2.057813 S    
N8    O24   1.292648 A    
C48   N4    1.517070 S    
H20   C38   1.113662 S    
C23   Br7   1.956330 S    
C12   N8    1.486885 S    
C17   Br1   1.942862 S    
N22   O51   1.273411 A    
H18   C37   1.102575 S    
N14   O36   1.303193 A    
O6    C3    1.330373 A    
N16   O39   1.289628 A    
O8    Cu4   2.057647 S    
C28   N19   1.459934 S    
H34   C50   1.072760 S    
C23   H15   1.115066 S    
C6    C30   1.626387 S    
O4    C2    1.317058 A    
C52   N4    1.518944 S    
O15   Cu3   2.078129 S    
N6    O19   1.301304 A    
H36   C50   1.113179 S    
C19   H11   1.111210 S    
N9    O25   1.296620 A    
C13   N9    1.464438 S    
N27   O61   1.294172 A    
C20   H12   1.113248 S    
O12   C6    1.366227 A    
C27   N17   1.494363 S    
C25   N14   1.476068 S    
C45   N25   1.456603 S    
C7    C31   1.601962 S    
C18   C33   1.521521 S    
O4    Cu2   2.057647 S    
O1    Cu1   2.062815 S    
N12   O32   1.302186 A    
N5    O17   1.298153 A    
C42   N2    1.522940 S    
H35   C49   1.105560 S    
C13   H5    1.117093 S    
N5    O18   1.303588 A    
O15   C8    1.364341 A    
C45   C46   1.570781 S    
C15   H7    1.117280 S    
C25   N13   1.475065 S    
O3    C2    1.334326 A    
H17   C37   1.095298 S    
N13   O33   1.304210 A    
C36   C40   1.551180 S    
C35   C39   1.541165 S    
N25   O57   1.294524 A    
C46   N26   1.434570 S    
C9    N5    1.474467 S    
C41   N1    1.488325 S    
C11   H3    1.107190 S    
C16   C20   1.599923 S    
Cu1   N2    2.084712 S    
C1    C34   1.545550 S    
C12   H4    1.105105 S    
C44   N2    1.460644 S    
N24   O56   1.293226 A    
Cu2   N1    2.083787 S    
H21   C39   1.110114 S    
N12   O31   1.297578 A    
C17   H9    1.114683 S    
N23   O53   1.276981 A    
C21   C35   1.573228 S    
C16   C32   1.634470 S    
N14   O35   1.293687 A    
O11   Cu1   2.078129 S    
N10   O28   1.303222 A    
C33   C37   1.526997 S    
C49   C50   1.621723 S    
N15   O37   1.297804 A    
C17   C33   1.562180 S    
N20   O48   1.302910 A    
C19   C34   1.594667 S    
C27   C37   1.570054 S    
C47   H31   1.076587 S    
C24   C36   1.581251 S    
O2    C1    1.339220 A    
C16   N12   1.473169 S    
C46   H30   1.111879 S    
C28   C38   1.555552 S    
N24   O55   1.289106 A    
C28   N20   1.480294 S    
N23   O54   1.303612 A    
