data_mof_unit_5122.cif
_audit_creation_date              2012-12-10T21:01:04-0500
_audit_creation_method            fapswitch 2.2
_symmetry_space_group_name_H-M    P1
_symmetry_Int_Tables_number       1
_space_group_crystal_system       triclinic
_cell_length_a                    15.836723
_cell_length_b                    15.082231
_cell_length_c                    10.539064
_cell_angle_alpha                 90.769595
_cell_angle_beta                  90.294483
_cell_angle_gamma                 90.211886
_cell_volume                      2517.01007314

loop_
_atom_site_label
_atom_site_type_symbol
_atom_type_description
_atom_site_fract_x
_atom_site_fract_y
_atom_site_fract_z
_atom_type_partial_charge
C1    C     C_R   0.338937 0.499837 0.499600 0.903746
C2    C     C_R   0.087032 0.497356 0.483603 -0.253696
C3    C     C_R   0.499392 0.499296 0.257017 1.052344
C4    C     C_R   0.500190 0.500651 0.742997 1.008894
C5    C     C_1   0.250707 0.499295 0.494193 -0.150494
C6    C     C_1   0.749234 0.500169 0.490030 -0.157600
C7    C     C_R   0.425611 0.952407 0.478451 0.372892
C8    C     C_R   0.572908 0.047811 0.544916 0.398621
C9    C     C_R   0.573137 0.953533 0.543213 0.396978
C10   C     C_R   0.426389 0.046499 0.474246 0.377910
C11   C     C_R   0.499760 0.905071 0.507868 -0.324897
C12   C     C_R   0.661078 0.500142 0.498468 0.887588
C13   C     C_R   0.499727 0.095122 0.508240 -0.321069
C14   C     C_3   0.428886 0.538927 0.041493 0.241735
C15   C     C_3   0.571528 0.461011 0.958312 0.268496
C16   C     C_3   0.497814 0.585546 0.964772 0.272166
C17   C     C_3   0.502833 0.414960 0.036263 0.343173
C18   C     C_3   0.432062 0.455562 0.956386 0.315387
C19   C     C_3   0.568966 0.543966 0.044947 0.318711
C20   C     C_3   0.500590 0.501847 0.877126 -0.388601
C21   C     C_3   0.499706 0.497946 0.122874 -0.346361
C22   C     C_1   0.499992 0.807075 0.502750 0.253429
C23   C     C_1   0.823876 0.498795 0.482693 0.128066
C24   C     C_1   0.499885 0.192995 0.503209 0.245352
C25   C     C_3   0.351323 0.103279 0.311061 -0.234687
C26   C     C_3   0.648807 0.880624 0.693071 -0.261284
C27   C     C_3   0.642417 0.130687 0.696189 -0.271937
C28   C     C_3   0.304531 0.894197 0.555039 -0.246821
C29   C     C_3   0.316931 0.364331 0.988637 -0.275255
C30   C     C_3   0.674378 0.652477 0.038343 -0.289560
C31   C     C_3   0.295942 0.597380 0.006920 0.102042
C32   C     C_3   0.229952 0.658259 0.065449 -0.818909
C33   C     C_3   0.703624 0.468909 0.864052 0.085205
C34   C     C_1   0.175980 0.498456 0.488796 0.132581
C35   C     C_3   0.768186 0.413828 0.792161 -0.766717
C36   C     C_3   0.477408 0.734684 0.010931 0.175238
C37   C     C_3   0.506496 0.826068 0.969638 -0.921686
C38   C     C_3   0.523913 0.265774 0.991192 0.178544
C39   C     C_3   0.498791 0.173602 0.034572 -0.920437
C40   C     C_3   0.099059 0.704905 0.452589 -0.242326
C41   C     C_3   0.897567 0.289425 0.499682 -0.219624
C42   C     C_3   0.902332 0.613680 0.231793 -0.229772
C43   C     C_3   0.094882 0.379914 0.728949 -0.234120
C44   C     C_R   0.956470 0.564858 0.417329 0.375670
C45   C     C_R   0.043304 0.427744 0.541001 0.382045
C46   C     C_R   0.044539 0.566832 0.423897 0.364818
C47   C     C_R   0.955395 0.425335 0.533317 0.351326
C48   C     C_R   0.912768 0.495928 0.476463 -0.255362
H1    H     H_    0.353439 0.038962 0.258061 0.174207
H2    H     H_    0.284801 0.958713 0.597770 0.184749
H3    H     H_    0.339312 0.854240 0.626240 0.138035
H4    H     H_    0.246384 0.856984 0.528618 0.171952
H5    H     H_    0.310204 0.400864 0.080571 0.179534
H6    H     H_    0.346326 0.298963 0.004910 0.196470
H7    H     H_    0.252418 0.351983 0.950806 0.159911
H8    H     H_    0.659776 0.649644 0.934940 0.163432
H9    H     H_    0.744006 0.649520 0.048221 0.151595
H10   H     H_    0.654310 0.717070 0.079027 0.193344
H11   H     H_    0.263228 0.535946 0.974646 0.178104
H12   H     H_    0.403896 0.147162 0.280971 0.157281
H13   H     H_    0.323336 0.630663 0.922771 0.157596
H14   H     H_    0.259828 0.721116 0.098888 0.256935
H15   H     H_    0.180719 0.673713 0.993756 0.199217
H16   H     H_    0.199628 0.625300 0.147191 0.294834
H17   H     H_    0.737198 0.501229 0.944916 0.182565
H18   H     H_    0.677523 0.519417 0.798641 0.120647
H19   H     H_    0.737676 0.379444 0.710046 0.270171
H20   H     H_    0.819350 0.457691 0.757672 0.222254
H21   H     H_    0.796191 0.363483 0.855627 0.256706
H22   H     H_    0.508149 0.719425 0.103365 0.171340
H23   H     H_    0.291311 0.136445 0.285536 0.184837
H24   H     H_    0.408307 0.737764 0.025610 0.174276
H25   H     H_    0.474366 0.844286 0.879777 0.254825
H26   H     H_    0.490827 0.876113 0.044026 0.226493
H27   H     H_    0.575802 0.826445 0.954628 0.244359
H28   H     H_    0.593157 0.265294 0.975392 0.197998
H29   H     H_    0.490725 0.278982 0.899844 0.165178
H30   H     H_    0.429517 0.169806 0.048793 0.243244
H31   H     H_    0.516904 0.123554 0.961545 0.209935
H32   H     H_    0.531459 0.158006 0.125044 0.270755
H33   H     H_    0.135957 0.684648 0.537522 0.135320
H34   H     H_    0.599707 0.829248 0.709157 0.161949
H35   H     H_    0.036992 0.732670 0.481749 0.187269
H36   H     H_    0.134853 0.758546 0.405704 0.189484
H37   H     H_    0.958346 0.261225 0.465547 0.181946
H38   H     H_    0.859172 0.313103 0.418183 0.149389
H39   H     H_    0.861662 0.235213 0.545089 0.197122
H40   H     H_    0.861589 0.554019 0.217642 0.153726
H41   H     H_    0.963994 0.604300 0.183210 0.167367
H42   H     H_    0.870272 0.670334 0.186326 0.180183
H43   H     H_    0.032169 0.385129 0.775623 0.172476
H44   H     H_    0.131861 0.442041 0.744856 0.135703
H45   H     H_    0.640899 0.936594 0.761569 0.146729
H46   H     H_    0.129824 0.325401 0.775115 0.184887
H47   H     H_    0.710939 0.849912 0.712886 0.190459
H48   H     H_    0.608214 0.088460 0.765146 0.119072
H49   H     H_    0.612459 0.196986 0.692416 0.166288
H50   H     H_    0.707479 0.140559 0.733358 0.195044
N1    N     N_1   0.500000 0.270550 0.500000 -0.096442
N2    N     N_1   0.500000 0.729450 0.500000 -0.096144
O1    O     O_R   0.378020 0.573650 0.500040 -0.615793
O2    O     O_3   0.648134 0.909663 0.566384 -0.545934
O3    O     O_3   0.647513 0.092166 0.573453 -0.555542
O4    O     O_3   0.352896 0.906705 0.444735 -0.575971
O5    O     O_3   0.363001 0.411818 0.897521 -0.610909
O6    O     O_3   0.638794 0.582986 0.108992 -0.596249
O7    O     O_3   0.357685 0.578001 0.099540 -0.608040
O8    O     O_3   0.640327 0.412234 0.909372 -0.616303
O9    O     O_3   0.496388 0.671965 0.914555 -0.601982
O10   O     O_3   0.503651 0.328562 0.086809 -0.585253
O11   O     O_3   0.089059 0.633859 0.365465 -0.586257
O12   O     O_R   0.621980 0.426350 0.499960 -0.620753
O13   O     O_3   0.911256 0.357515 0.590420 -0.596308
O14   O     O_3   0.913243 0.633890 0.361820 -0.567216
O15   O     O_3   0.086552 0.359466 0.598503 -0.563423
O16   O     O_R   0.621980 0.573650 0.499960 -0.604436
O17   O     O_R   0.378020 0.426350 0.500040 -0.601334
O18   O     O_R   0.499980 0.573650 0.313960 -0.597706
O19   O     O_R   0.500020 0.426350 0.686040 -0.603119
O20   O     O_R   0.500020 0.573650 0.686040 -0.601828
O21   O     O_R   0.499980 0.426350 0.313960 -0.591891
O22   O     O_3   0.352982 0.090805 0.443353 -0.570489
Zn1   Zn    Zn3+2 0.500000 0.598370 0.500000 1.019098
Zn2   Zn    Zn3+2 0.500000 0.401630 0.500000 1.021292

loop_
_geom_bond_atom_site_label_1
_geom_bond_atom_site_label_2
_ccdc_geom_bond_type
C7    C10   A    
C37   H26   S    
C27   H50   S    
C8    C13   A    
O16   Zn1   S    
C24   N1    T    
C40   H36   S    
C17   O10   S    
C33   H17   S    
C38   H28   S    
O19   Zn2   S    
C2    C46   A    
C15   C19   S    
C41   H38   S    
O1    Zn1   S    
C1    C5    S    
C14   C21   S    
C36   C37   S    
C19   C21   S    
O17   Zn2   S    
O12   Zn2   S    
C6    C12   S    
C38   C39   S    
C28   H3    S    
C29   H6    S    
C36   H24   S    
C30   H9    S    
C43   H46   S    
C15   C17   S    
C31   H11   S    
C31   H13   S    
O21   Zn2   S    
C43   O15   S    
C28   H2    S    
C42   O14   S    
C47   C48   A    
C44   C46   A    
C9    O2    S    
C33   H18   S    
C4    O19   A    
C25   H23   S    
C25   H12   S    
C38   O10   S    
C25   O22   S    
O20   Zn1   S    
C2    C34   S    
C26   H45   S    
C37   H27   S    
C44   O14   S    
C26   H34   S    
C46   O11   S    
C30   O6    S    
C40   H35   S    
C29   O5    S    
C27   H48   S    
C33   O8    S    
C40   H33   S    
C36   H22   S    
C16   O9    S    
C40   O11   S    
C45   C47   A    
C2    C45   A    
C15   C20   S    
C41   H39   S    
C22   N2    T    
C39   H30   S    
C32   H16   S    
C8    C9    A    
C29   H7    S    
C30   H8    S    
C43   H43   S    
C13   C24   S    
C42   H42   S    
C39   H31   S    
C15   O8    S    
C7    C11   A    
C3    O18   A    
C28   O4    S    
C31   C32   S    
C35   H19   S    
C16   C20   S    
C5    C34   T    
C17   C18   S    
C1    O17   A    
C9    C11   A    
C14   O7    S    
C7    O4    S    
C14   C16   S    
C3    C21   S    
C42   H40   S    
C1    O1    A    
C12   O12   A    
C26   H47   S    
C47   O13   S    
C37   H25   S    
C27   H49   S    
C23   C48   S    
C31   O7    S    
C14   C18   S    
C32   H15   S    
C41   O13   S    
C45   O15   S    
C10   O22   S    
C10   C13   A    
C38   H29   S    
C41   H37   S    
C11   C22   S    
C43   H44   S    
N2    Zn1   S    
C39   H32   S    
C42   H41   S    
C18   O5    S    
C32   H14   S    
C26   O2    S    
C28   H4    S    
C29   H5    S    
C35   H20   S    
C16   C19   S    
C6    C23   T    
C30   H10   S    
C27   O3    S    
C33   C35   S    
C18   C20   S    
O18   Zn1   S    
C8    O3    S    
C25   H1    S    
C4    C20   S    
C19   O6    S    
C3    O21   A    
C35   H21   S    
C36   O9    S    
C4    O20   A    
C44   C48   A    
N1    Zn2   S    
C12   O16   A    
C17   C21   S    
