data_mof_unit_59045.cif
_audit_creation_date              2013-03-05T15:44:40-0500
_audit_creation_method            fapswitch 2.2
_symmetry_space_group_name_H-M    P1
_symmetry_Int_Tables_number       1
_space_group_crystal_system       triclinic
_cell_length_a                    24.888786
_cell_length_b                    7.181693
_cell_length_c                    14.404672
_cell_angle_alpha                 90.003667
_cell_angle_beta                  103.25312
_cell_angle_gamma                 89.993116
_cell_volume                      2506.1694884

loop_
_atom_site_label
_atom_site_type_symbol
_atom_site_description
_atom_site_fract_x
_atom_site_fract_y
_atom_site_fract_z
_atom_type_partial_charge
O1    O     O_R   0.319150 0.364170 0.330530 -0.601637
O2    O     O_R   0.680850 0.635830 0.669470 -0.601637
O3    O     O_R   0.180850 0.864170 0.169470 -0.601738
O4    O     O_R   0.819150 0.135830 0.830530 -0.601738
O5    O     O_R   0.210330 0.696850 0.354180 -0.569664
O6    O     O_R   0.789670 0.303150 0.645820 -0.569664
O7    O     O_R   0.289670 0.196850 0.145820 -0.569432
O8    O     O_R   0.710330 0.803150 0.854180 -0.569432
C1    C     C_R   0.197373 0.525144 0.378156 0.948164
C2    C     C_R   0.802627 0.474856 0.621844 0.948164
C3    C     C_R   0.302640 0.025114 0.121863 0.949135
C4    C     C_R   0.697360 0.974886 0.878136 0.949136
O9    O     O_R   0.320550 0.694110 0.341970 -0.562183
O10   O     O_R   0.679450 0.305890 0.658030 -0.562183
O11   O     O_R   0.179450 0.194110 0.158030 -0.562392
O12   O     O_R   0.820550 0.805890 0.841970 -0.562392
O13   O     O_R   0.291860 0.861000 0.157170 -0.599808
O14   O     O_R   0.708140 0.139000 0.842830 -0.599808
O15   O     O_R   0.208140 0.361000 0.342830 -0.599431
O16   O     O_R   0.791860 0.639000 0.657170 -0.599431
C5    C     C_R   0.341384 0.525754 0.363840 1.001118
C6    C     C_R   0.658616 0.474246 0.636160 1.001118
C7    C     C_R   0.158636 0.025756 0.136084 1.002404
C8    C     C_R   0.841364 0.974243 0.863916 1.002404
O17   O     O_3   0.240460 0.529330 0.189380 -0.279002
O18   O     O_3   0.759540 0.470670 0.810620 -0.279002
O19   O     O_3   0.259540 0.029330 0.310620 -0.278720
O20   O     O_3   0.740460 0.970670 0.689380 -0.278720
V1    V     V_3+5 0.251770 0.805510 0.261240 1.226058
V2    V     V_3+5 0.748230 0.194490 0.738760 1.226058
V3    V     V_3+5 0.248230 0.305510 0.238760 1.226059
V4    V     V_3+5 0.751770 0.694490 0.761240 1.226059
C9    C     C_R   0.103605 0.020019 0.069882 -0.268517
C10   C     C_R   0.896395 0.979980 0.930118 -0.268517
C11   C     C_R   0.396425 0.519965 0.429972 -0.268263
C12   C     C_R   0.603575 0.480035 0.570027 -0.268263
C13   C     C_R   0.958017 0.945547 0.087453 -0.295450
C14   C     C_R   0.041983 0.054453 0.912547 -0.295450
C15   C     C_R   0.542089 0.447022 0.412501 -0.294924
C16   C     C_R   0.457910 0.552978 0.587499 -0.294924
C17   C     C_R   0.904182 0.942899 0.029200 0.359772
C18   C     C_R   0.095818 0.057101 0.970800 0.359772
C19   C     C_R   0.595870 0.444043 0.470899 0.360929
C20   C     C_R   0.404130 0.555957 0.529100 0.360929
C21   C     C_R   0.942472 0.018895 0.892336 -0.283025
C22   C     C_R   0.057528 0.981104 0.107663 -0.283025
C23   C     C_R   0.557454 0.518077 0.607832 -0.282781
C24   C     C_R   0.442545 0.481923 0.392168 -0.282781
C25   C     C_R   0.996080 0.018612 0.950904 0.169041
C26   C     C_R   0.003920 0.981387 0.049096 0.169041
C27   C     C_R   0.503875 0.518019 0.549156 0.168907
C28   C     C_R   0.496125 0.481981 0.450844 0.168907
H1    H     H_    0.063504 0.953145 0.183364 0.132857
H2    H     H_    0.936496 0.046855 0.816636 0.132857
H3    H     H_    0.436627 0.454779 0.316401 0.132736
H4    H     H_    0.563373 0.545221 0.683598 0.132736
H5    H     H_    0.964170 0.916831 0.163052 0.166469
H6    H     H_    0.035830 0.083169 0.836948 0.166469
H7    H     H_    0.536041 0.419148 0.336836 0.165811
H8    H     H_    0.463959 0.580852 0.663164 0.165811
C29   C     C_R   0.665225 0.985569 0.950985 -0.101907
C30   C     C_R   0.334774 0.014431 0.049015 -0.101907
C31   C     C_R   0.834778 0.485308 0.549014 -0.102128
C32   C     C_R   0.165221 0.514692 0.450986 -0.102128
C33   C     C_R   0.660462 0.042652 0.114198 -0.005635
C34   C     C_R   0.339538 0.957348 0.885802 -0.005635
C35   C     C_R   0.839481 0.538617 0.385462 -0.004836
C36   C     C_R   0.160519 0.461383 0.614538 -0.004836
C37   C     C_R   0.691360 0.021552 0.045459 -0.164345
C38   C     C_R   0.308640 0.978448 0.954541 -0.164345
C39   C     C_R   0.808596 0.518668 0.454296 -0.165456
C40   C     C_R   0.191404 0.481332 0.545704 -0.165456
C41   C     C_R   0.607888 0.971233 0.923964 -0.251371
C42   C     C_R   0.392112 0.028767 0.076036 -0.251371
C43   C     C_R   0.892142 0.472427 0.576176 -0.250748
C44   C     C_R   0.107858 0.527573 0.423824 -0.250748
C45   C     C_R   0.574750 0.994891 0.990949 0.107521
C46   C     C_R   0.425250 0.005109 0.009051 0.107521
C47   C     C_R   0.925255 0.494725 0.509064 0.107394
C48   C     C_R   0.074745 0.505275 0.490936 0.107394
C49   C     C_R   0.602006 0.031334 0.087528 0.112990
C50   C     C_R   0.397994 0.968666 0.912472 0.112990
C51   C     C_R   0.897956 0.528525 0.412243 0.112741
C52   C     C_R   0.102044 0.471475 0.587757 0.112741
C53   C     C_R   0.515607 0.985786 0.964681 0.073438
C54   C     C_R   0.484393 0.014214 0.035318 0.073439
C55   C     C_R   0.984409 0.486620 0.535407 0.073387
C56   C     C_R   0.015591 0.513380 0.464593 0.073387
C57   C     C_R   0.513351 0.050417 0.130014 -0.207405
C58   C     C_R   0.486649 0.949582 0.869985 -0.207405
C59   C     C_R   0.986592 0.547013 0.369656 -0.207521
C60   C     C_R   0.013408 0.452987 0.630344 -0.207521
C61   C     C_R   0.570472 0.057936 0.155268 -0.174560
C62   C     C_R   0.429528 0.942064 0.844732 -0.174560
C63   C     C_R   0.929462 0.553612 0.344344 -0.173582
C64   C     C_R   0.070538 0.446387 0.655656 -0.173582
H9    H     H_    0.589809 0.086605 0.229208 0.166343
H10   H     H_    0.410191 0.913394 0.770792 0.166343
H11   H     H_    0.910094 0.580251 0.270211 0.166123
H12   H     H_    0.089906 0.419749 0.729789 0.166123
H13   H     H_    0.409193 0.054600 0.150548 0.105680
H14   H     H_    0.590807 0.945400 0.849452 0.105681
H15   H     H_    0.090750 0.551538 0.349153 0.105549
H16   H     H_    0.909249 0.448462 0.650846 0.105549
H17   H     H_    0.264080 0.965115 0.934635 0.174696
H18   H     H_    0.735920 0.034885 0.065365 0.174696
H19   H     H_    0.235992 0.469239 0.565741 0.175710
H20   H     H_    0.764008 0.530761 0.434259 0.175709
H21   H     H_    0.493314 0.074697 0.187570 0.133294
H22   H     H_    0.506686 0.925303 0.812430 0.133294
H23   H     H_    0.006600 0.569867 0.311943 0.133332
H24   H     H_    0.993400 0.430133 0.688057 0.133332
N1    N     N_R   0.141465 0.093525 0.927384 0.212043
O21   O     O_R   0.184119 0.188148 0.972167 -0.437318
O22   O     O_R   0.137965 0.049146 0.838579 -0.432175
N2    N     N_R   0.858535 0.906475 0.072616 0.212043
O23   O     O_R   0.815881 0.811852 0.027832 -0.437318
O24   O     O_R   0.862034 0.950853 0.161421 -0.432175
N3    N     N_R   0.358402 0.591855 0.572331 0.211308
O25   O     O_R   0.316446 0.690655 0.528443 -0.436599
O26   O     O_R   0.361401 0.543723 0.660489 -0.432540
N4    N     N_R   0.641598 0.408145 0.427669 0.211308
O27   O     O_R   0.683554 0.309345 0.471557 -0.436599
O28   O     O_R   0.638599 0.456277 0.339511 -0.432540
C65   C     C_1   0.690149 0.077924 0.211308 0.151195
N5    N     N_1   0.714072 0.105927 0.288915 -0.008754
C66   C     C_1   0.309851 0.922076 0.788692 0.151195
N6    N     N_1   0.285928 0.894073 0.711085 -0.008754
C67   C     C_1   0.809768 0.571267 0.288108 0.151446
N7    N     N_1   0.785841 0.597186 0.210299 -0.009804
C68   C     C_1   0.190232 0.428733 0.711892 0.151446
N8    N     N_1   0.214159 0.402814 0.789701 -0.009804

loop_
_geom_bond_atom_site_label_1
_geom_bond_atom_site_label_2
_geom_bond_distance
_ccdc_geom_bond_type
O17   V3    1.750458 S    
C24   H3    1.084942 S    
C55   C56   1.429267 A    
O1    C5    1.327187 A    
C16   H8    1.084179 S    
O19   V1    1.750418 S    
C1    C32   1.459976 S    
O13   V1    2.021802 S    
O3    C7    1.327268 A    
C2    C31   1.459976 S    
C60   C64   1.385362 A    
C48   C52   1.425201 A    
C3    C30   1.459965 S    
O15   V3    2.021717 S    
C47   C55   1.434848 A    
C14   C25   1.402254 A    
C34   C38   1.394215 A    
C53   C54   1.429301 A    
C34   C66   1.446694 S    
O7    C3    1.339912 A    
C50   C62   1.398457 A    
C9    C18   1.420807 A    
O9    V1    2.002460 S    
C14   C18   1.408640 A    
O4    C8    1.327268 A    
C63   H11   1.083178 S    
C62   H10   1.083229 S    
C57   H21   1.075159 S    
O1    V3    1.992691 S    
N2    O23   1.300407 A    
C30   C38   1.391392 A    
C12   C23   1.405467 A    
O2    V4    1.992689 S    
C52   C64   1.398453 A    
C59   H23   1.075131 S    
O3    V1    1.992639 S    
C14   H6    1.084163 S    
C1    O15   1.335202 A    
C2    O16   1.335202 A    
C7    C9    1.479255 S    
O2    C6    1.327187 A    
C40   H19   1.084192 S    
O14   V2    2.021802 S    
C45   C49   1.425260 A    
C16   C20   1.408353 A    
C36   C40   1.394300 A    
C46   C54   1.434878 A    
C44   H15   1.076039 S    
O11   C7    1.324818 A    
C15   C28   1.402290 A    
C45   C53   1.434878 A    
O12   C8    1.324819 A    
C39   H20   1.084192 S    
C57   C61   1.385385 A    
C9    C22   1.405584 A    
C35   C67   1.446720 S    
C10   C17   1.420807 A    
O10   V2    2.002460 S    
C11   C24   1.405467 A    
C58   C62   1.385385 A    
O5    V1    2.024469 S    
N3    O26   1.301633 A    
O7    V3    2.024305 S    
C27   C28   1.408696 A    
C36   C52   1.419410 A    
O18   V4    1.750459 S    
C60   H24   1.075131 S    
C15   C19   1.408353 A    
C20   N3    1.440287 S    
C29   C41   1.394255 A    
C38   H17   1.084245 S    
C8    C10   1.479255 S    
C33   C65   1.446693 S    
C36   C68   1.446720 S    
O5    C1    1.339819 A    
C34   C50   1.419396 A    
C49   C61   1.398457 A    
C46   C50   1.425260 A    
C18   N1    1.440889 S    
C33   C49   1.419396 A    
C56   C59   1.413100 A    
C21   C25   1.405650 A    
O8    C4    1.339911 A    
C15   H7    1.084179 S    
C32   C44   1.394215 A    
O9    C5    1.324762 A    
C10   C21   1.405584 A    
C51   C63   1.398452 A    
N3    O25   1.300286 A    
C11   C20   1.420182 A    
C19   N4    1.440287 S    
C42   H13   1.076088 S    
C41   H14   1.076088 S    
O6    V2    2.024469 S    
C31   C39   1.391381 A    
C21   H2    1.084966 S    
C43   H16   1.076039 S    
C58   H22   1.075159 S    
C17   N2    1.440889 S    
N4    O28   1.301633 A    
C66   N6    1.157367 T    
C61   H9    1.083229 S    
C35   C51   1.419410 A    
N1    O21   1.300407 A    
O16   V4    2.021716 S    
C29   C37   1.391392 A    
C3    O13   1.335097 A    
C37   H18   1.084245 S    
C44   C48   1.415900 A    
C54   C57   1.413137 A    
O6    C2    1.339818 A    
C23   C27   1.405666 A    
C53   C58   1.413137 A    
O11   V3    2.002568 S    
C5    C11   1.479021 S    
O12   V4    2.002567 S    
C16   C27   1.402290 A    
C6    C12   1.479021 S    
C22   C26   1.405650 A    
O10   C6    1.324762 A    
O20   V2    1.750417 S    
C67   N7    1.157350 T    
C48   C56   1.434848 A    
C47   C51   1.425201 A    
C4    C29   1.459965 S    
C65   N5    1.157368 T    
O8    V4    2.024307 S    
C31   C43   1.394215 A    
C33   C37   1.394215 A    
C64   H12   1.083178 S    
C22   H1    1.084966 S    
C13   C26   1.402254 A    
N2    O24   1.301689 A    
C35   C39   1.394300 A    
C32   C40   1.391381 A    
C13   C17   1.408640 A    
O4    V2    1.992640 S    
C59   C63   1.385362 A    
C24   C28   1.405666 A    
C25   C26   1.408409 A    
C42   C46   1.415970 A    
C4    O14   1.335099 A    
C41   C45   1.415970 A    
C30   C42   1.394255 A    
C12   C19   1.420182 A    
N4    O27   1.300286 A    
C55   C60   1.413100 A    
C43   C47   1.415900 A    
C13   H5    1.084163 S    
C68   N8    1.157350 T    
C23   H4    1.084942 S    
N1    O22   1.301689 A    
