data_mof_unit_44715.cif
_audit_creation_date              2013-03-05T15:44:02-0500
_audit_creation_method            fapswitch 2.2
_symmetry_space_group_name_H-M    P1
_symmetry_Int_Tables_number       1
_space_group_crystal_system       triclinic
_cell_length_a                    31.191123
_cell_length_b                    22.788781
_cell_length_c                    18.163675
_cell_angle_alpha                 89.904102
_cell_angle_beta                  123.729463
_cell_angle_gamma                 89.97104
_cell_volume                      10737.5433271

loop_
_atom_site_label
_atom_site_type_symbol
_atom_site_description
_atom_site_fract_x
_atom_site_fract_y
_atom_site_fract_z
_atom_type_partial_charge
C1    C     C_R   0.543693 0.585835 0.739747 -0.105464
C2    C     C_R   0.460671 0.402263 0.272672 -0.068876
C3    C     C_R   0.459415 0.596933 0.270988 -0.116445
C4    C     C_R   0.535475 0.396829 0.717511 -0.061044
C5    C     C_R   0.036855 0.104766 0.716648 -0.108291
C6    C     C_R   0.966924 0.892847 0.290719 -0.074017
C7    C     C_R   0.958772 0.093523 0.267603 -0.116759
C8    C     C_R   0.044401 0.914128 0.740505 -0.021749
H1    H     H_    0.518449 0.587286 0.762160 0.239733
H2    H     H_    0.486692 0.395233 0.252394 0.197269
H3    H     H_    0.484288 0.602173 0.248451 0.225853
H4    H     H_    0.507910 0.387816 0.733923 0.192297
H5    H     H_    0.006541 0.120452 0.723031 0.191931
H6    H     H_    0.995405 0.881920 0.277154 0.194603
H7    H     H_    0.984915 0.099154 0.247794 0.228409
H8    H     H_    0.021239 0.916912 0.767572 0.195989
N1    N     N_R   0.532970 0.559900 0.665210 -0.097342
N2    N     N_R   0.467030 0.440100 0.334790 -0.078964
N3    N     N_R   0.467030 0.559900 0.334790 -0.085697
N4    N     N_R   0.532970 0.440100 0.665210 -0.080270
N5    N     N_R   0.032970 0.059900 0.665210 -0.078964
N6    N     N_R   0.967030 0.940100 0.334790 -0.075276
N7    N     N_R   0.967030 0.059900 0.334790 -0.088586
N8    N     N_R   0.032970 0.940100 0.665210 -0.084542
C9    C     C_R   0.629221 0.606943 0.572433 0.501177
C10   C     C_R   0.354223 0.427856 0.431036 0.553862
C11   C     C_R   0.362764 0.597377 0.426142 0.499843
C12   C     C_R   0.645329 0.423069 0.569276 0.542805
C13   C     C_R   0.141302 0.089946 0.573740 0.468580
C14   C     C_R   0.853296 0.931206 0.430905 0.574249
C15   C     C_R   0.857753 0.086947 0.430089 0.478671
C16   C     C_R   0.145927 0.927814 0.570287 0.595467
N9    N     N_R   0.597900 0.559930 0.545530 -0.109792
N10   N     N_R   0.402100 0.440070 0.454470 -0.120051
N11   N     N_R   0.402100 0.559930 0.454470 -0.120854
N12   N     N_R   0.597900 0.440070 0.545530 -0.119154
N13   N     N_R   0.097900 0.059930 0.545530 -0.127986
N14   N     N_R   0.902100 0.940070 0.454470 -0.119355
N15   N     N_R   0.902100 0.059930 0.454470 -0.115753
N16   N     N_R   0.097900 0.940070 0.545530 -0.107846
C17   C     C_R   0.580514 0.605884 0.425124 0.268396
C18   C     C_R   0.404892 0.422856 0.576691 0.297425
C19   C     C_R   0.415531 0.601561 0.574051 0.299067
C20   C     C_R   0.594174 0.421380 0.422680 0.302847
C21   C     C_R   0.091075 0.092134 0.426160 0.289379
C22   C     C_R   0.903855 0.925005 0.575628 0.350903
C23   C     C_R   0.907285 0.082868 0.577481 0.212397
C24   C     C_R   0.095954 0.923999 0.424357 0.300330
N17   N     N_R   0.567170 0.559950 0.454460 -0.124749
N18   N     N_R   0.432830 0.440050 0.545540 -0.128616
N19   N     N_R   0.432830 0.559950 0.545540 -0.131850
N20   N     N_R   0.567170 0.440050 0.454460 -0.129288
N21   N     N_R   0.067170 0.059950 0.454460 -0.140907
N22   N     N_R   0.932830 0.940050 0.545540 -0.132564
N23   N     N_R   0.932830 0.059950 0.545540 -0.138331
N24   N     N_R   0.067170 0.940050 0.454460 -0.125451
C25   C     C_R   0.386538 0.593388 0.266323 0.383807
C26   C     C_R   0.607215 0.395360 0.718459 0.419758
C27   C     C_R   0.616316 0.577938 0.745621 0.493544
C28   C     C_R   0.389275 0.401105 0.272469 0.436652
C29   C     C_R   0.884967 0.086172 0.259505 0.378719
C30   C     C_R   0.114041 0.907373 0.734702 0.494548
C31   C     C_R   0.112558 0.095276 0.730199 0.396250
C32   C     C_R   0.895947 0.891029 0.292397 0.433659
N25   N     N_R   0.421470 0.559970 0.334770 -0.119869
N26   N     N_R   0.578530 0.440030 0.665230 -0.116541
N27   N     N_R   0.578530 0.559970 0.665230 -0.122985
N28   N     N_R   0.421470 0.440030 0.334770 -0.115099
N29   N     N_R   0.921470 0.059970 0.334770 -0.114906
N30   N     N_R   0.078530 0.940030 0.665230 -0.113875
N31   N     N_R   0.078530 0.059970 0.665230 -0.121772
N32   N     N_R   0.921470 0.940030 0.334770 -0.109167
C33   C     C_R   0.595170 0.600078 0.789846 -0.093749
C34   C     C_R   0.412458 0.377195 0.232325 -0.019463
C35   C     C_R   0.410861 0.621638 0.230902 -0.015234
C36   C     C_R   0.581591 0.368157 0.752425 -0.012061
C37   C     C_R   0.086274 0.128396 0.758079 -0.042681
C38   C     C_R   0.922874 0.861203 0.262793 -0.025063
C39   C     C_R   0.908524 0.113221 0.221812 -0.012528
C40   C     C_R   0.093979 0.891686 0.784014 -0.060008
C41   C     C_R   0.616937 0.637819 0.497103 -0.300200
C42   C     C_R   0.355296 0.415064 0.506346 -0.317752
C43   C     C_R   0.372846 0.625996 0.501870 -0.292112
C44   C     C_R   0.643272 0.410015 0.492219 -0.312167
C45   C     C_R   0.136842 0.110656 0.498018 -0.265967
C46   C     C_R   0.853958 0.919605 0.506442 -0.349890
C47   C     C_R   0.860104 0.099740 0.507214 -0.248893
C48   C     C_R   0.145656 0.916448 0.495477 -0.334340
Ni1   Ni    Ni4+2 0.483030 0.500000 0.604430 0.281364
Ni2   Ni    Ni4+2 0.516970 0.500000 0.395570 0.287255
Ni3   Ni    Ni4+2 0.983030 0.000000 0.604430 0.279407
Ni4   Ni    Ni4+2 0.016970 1.000000 0.395570 0.285533
Ni5   Ni    Ni4+2 0.587400 0.500000 0.604430 0.309331
Ni6   Ni    Ni4+2 0.412600 0.500000 0.395570 0.307964
Ni7   Ni    Ni4+2 0.087400 0.000000 0.604430 0.303435
Ni8   Ni    Ni4+2 0.912600 1.000000 0.395570 0.318276
C49   C     C_R   0.657495 0.306546 0.485039 -0.208773
C50   C     C_R   0.350717 0.727735 0.496385 -0.233104
C51   C     C_R   0.327800 0.314844 0.482929 -0.193300
C52   C     C_R   0.644542 0.739946 0.511627 -0.249758
C53   C     C_R   0.176471 0.817943 0.517574 -0.177476
C54   C     C_R   0.845565 0.200814 0.521473 -0.281876
C55   C     C_R   0.821523 0.821340 0.488190 -0.184531
C56   C     C_R   0.157463 0.212671 0.505482 -0.251708
C57   C     C_R   0.671836 0.364492 0.484535 0.149103
C58   C     C_R   0.343677 0.669582 0.510426 0.177688
C59   C     C_R   0.323157 0.371439 0.506653 0.156542
C60   C     C_R   0.647431 0.681775 0.491294 0.194521
C61   C     C_R   0.179570 0.875496 0.495285 0.165900
C62   C     C_R   0.829998 0.142745 0.515044 0.201434
C63   C     C_R   0.819963 0.879491 0.509739 0.150805
C64   C     C_R   0.166105 0.155215 0.491385 0.171342
C65   C     C_R   0.712125 0.378467 0.475810 -0.147735
C66   C     C_R   0.312398 0.653375 0.539113 -0.150742
C67   C     C_R   0.286799 0.386390 0.524788 -0.160469
C68   C     C_R   0.681750 0.663423 0.469846 -0.162889
C69   C     C_R   0.216178 0.893798 0.479374 -0.167927
C70   C     C_R   0.784792 0.127280 0.508010 -0.158735
C71   C     C_R   0.787169 0.898474 0.534350 -0.170847
C72   C     C_R   0.198715 0.141256 0.464510 -0.146554
C73   C     C_R   0.744405 0.334116 0.482935 0.106528
C74   C     C_R   0.281314 0.695228 0.541435 0.113950
C75   C     C_R   0.252779 0.343893 0.516447 0.108279
C76   C     C_R   0.715869 0.702941 0.472451 0.094839
C77   C     C_R   0.251791 0.853439 0.487841 0.109391
C78   C     C_R   0.752512 0.171510 0.502248 0.102035
C79   C     C_R   0.751779 0.859312 0.530058 0.102439
C80   C     C_R   0.228746 0.185090 0.462871 0.111549
C81   C     C_R   0.732364 0.275289 0.489401 0.037046
C82   C     C_R   0.284405 0.753895 0.519219 0.032783
C83   C     C_R   0.256698 0.286373 0.491368 0.029337
C84   C     C_R   0.715378 0.761476 0.497199 0.035991
C85   C     C_R   0.249733 0.795059 0.512406 0.032549
C86   C     C_R   0.765790 0.230674 0.500692 0.025143
C87   C     C_R   0.751380 0.800844 0.503908 0.047924
C88   C     C_R   0.223674 0.243068 0.484985 0.031840
C89   C     C_R   0.687426 0.261313 0.486453 0.115350
C90   C     C_R   0.320434 0.770528 0.499234 0.122422
C91   C     C_R   0.294469 0.271882 0.474641 0.101741
C92   C     C_R   0.679332 0.780281 0.516261 0.117114
C93   C     C_R   0.211938 0.777427 0.527609 0.082715
C94   C     C_R   0.812543 0.245234 0.510267 0.142592
C95   C     C_R   0.787030 0.781699 0.484272 0.101183
C96   C     C_R   0.186883 0.257098 0.504234 0.132600
C97   C     C_R   0.790001 0.347865 0.489324 -0.214397
C98   C     C_R   0.245114 0.678751 0.559970 -0.180949
C99   C     C_R   0.214938 0.357851 0.532282 -0.179675
C100  C     C_R   0.751446 0.684295 0.453504 -0.180310
C101  C     C_R   0.289208 0.870220 0.472227 -0.181649
C102  C     C_R   0.706716 0.157857 0.495454 -0.187049
C103  C     C_R   0.716065 0.877735 0.549034 -0.188601
C104  C     C_R   0.265354 0.171539 0.443961 -0.180712
C105  C     C_R   0.323476 0.828677 0.477665 -0.184509
C106  C     C_R   0.674563 0.202799 0.488930 -0.135693
C107  C     C_R   0.679798 0.838327 0.541890 -0.189827
C108  C     C_R   0.298267 0.214991 0.449871 -0.133698
C109  C     C_R   0.824629 0.303556 0.505198 -0.183692
C110  C     C_R   0.210209 0.719876 0.552666 -0.133296
C111  C     C_R   0.181862 0.314444 0.525945 -0.188364
C112  C     C_R   0.786961 0.723730 0.459207 -0.154389
H9    H     H_    0.624228 0.297170 0.487603 0.151460
H10   H     H_    0.377963 0.738819 0.479435 0.123016
H11   H     H_    0.356850 0.304933 0.469402 0.159109
H12   H     H_    0.617121 0.752615 0.527605 0.137872
H13   H     H_    0.147168 0.805472 0.529364 0.181776
H14   H     H_    0.881444 0.210962 0.527636 0.124730
H15   H     H_    0.848637 0.807741 0.471822 0.171091
H16   H     H_    0.129372 0.221916 0.521022 0.131534
H17   H     H_    0.720408 0.423927 0.470418 0.129436
H18   H     H_    0.309986 0.607737 0.553689 0.137292
H19   H     H_    0.284408 0.431020 0.542970 0.138872
H20   H     H_    0.683003 0.617728 0.454385 0.147613
H21   H     H_    0.217271 0.939174 0.462287 0.138524
H22   H     H_    0.774393 0.081447 0.504396 0.115666
H23   H     H_    0.787987 0.943847 0.553080 0.140686
H24   H     H_    0.202492 0.096139 0.449816 0.135496
H25   H     H_    0.799713 0.392929 0.485492 0.140216
H26   H     H_    0.242770 0.633847 0.577194 0.141834
H27   H     H_    0.211403 0.401973 0.550529 0.134962
H28   H     H_    0.751904 0.639285 0.434747 0.147951
H29   H     H_    0.291233 0.914988 0.454159 0.134732
H30   H     H_    0.696212 0.112668 0.496367 0.135347
H31   H     H_    0.716009 0.922570 0.568761 0.139020
H32   H     H_    0.269271 0.127255 0.426737 0.139571
H33   H     H_    0.351340 0.841543 0.462798 0.125377
H34   H     H_    0.639855 0.191929 0.486096 0.152999
H35   H     H_    0.652438 0.853031 0.556933 0.130078
H36   H     H_    0.327079 0.204032 0.436373 0.153909
H37   H     H_    0.860568 0.314812 0.512928 0.146598
H38   H     H_    0.181467 0.706598 0.565241 0.159203
H39   H     H_    0.153304 0.325342 0.540023 0.123053
H40   H     H_    0.814262 0.709028 0.444000 0.156101
C113  C     C_R   0.391533 0.674325 0.173311 -0.137765
C114  C     C_R   0.604218 0.327170 0.827262 -0.152130
C115  C     C_R   0.621842 0.639201 0.866850 -0.148961
C116  C     C_R   0.386732 0.342233 0.150211 -0.161303
C117  C     C_R   0.885208 0.160316 0.155019 -0.120243
C118  C     C_R   0.121789 0.859332 0.869169 -0.154731
C119  C     C_R   0.105779 0.182571 0.812113 -0.149516
C120  C     C_R   0.902304 0.814296 0.196332 -0.172734
C121  C     C_R   0.385087 0.739568 0.061630 -0.297748
C122  C     C_R   0.603456 0.240982 0.905186 -0.296529
C123  C     C_R   0.632914 0.689641 0.994086 -0.297166
C124  C     C_R   0.384476 0.264990 0.056476 -0.293981
C125  C     C_R   0.876362 0.222656 0.038450 -0.295825
C126  C     C_R   0.125926 0.787782 0.971984 -0.291764
C127  C     C_R   0.109999 0.253738 0.915223 -0.301288
C128  C     C_R   0.907737 0.727353 0.124207 -0.301101
C129  C     C_R   0.402281 0.686343 0.108611 0.297948
C130  C     C_R   0.577393 0.278325 0.831057 0.326955
C131  C     C_R   0.607828 0.646337 0.928504 0.305015
C132  C     C_R   0.411460 0.295173 0.137294 0.329497
C133  C     C_R   0.898844 0.173347 0.094104 0.297991
C134  C     C_R   0.097600 0.815787 0.889437 0.315424
C135  C     C_R   0.090341 0.200999 0.868420 0.287847
C136  C     C_R   0.932321 0.768368 0.193995 0.334846
C137  C     C_R   0.364100 0.716235 0.188634 0.519577
C138  C     C_R   0.654687 0.338092 0.898515 0.479137
C139  C     C_R   0.661610 0.673870 0.875366 0.501440
C140  C     C_R   0.336519 0.358357 0.081012 0.480098
C141  C     C_R   0.848868 0.195953 0.155968 0.472900
C142  C     C_R   0.173973 0.872739 0.932103 0.514490
C143  C     C_R   0.140524 0.217825 0.805149 0.528165
C144  C     C_R   0.849905 0.817409 0.129485 0.469430
C145  C     C_R   0.334111 0.758778 0.123000 -0.105828
C146  C     C_R   0.683673 0.291755 0.954448 -0.103648
C147  C     C_R   0.695247 0.701746 0.955082 -0.100523
C148  C     C_R   0.305693 0.317877 0.013055 -0.107412
C149  C     C_R   0.816076 0.230586 0.082478 -0.092927
C150  C     C_R   0.205005 0.832288 0.001042 -0.119885
C151  C     C_R   0.171211 0.259099 0.871890 -0.095154
C152  C     C_R   0.824969 0.767690 0.081066 -0.086234
C153  C     C_R   0.349569 0.774627 0.066000 0.062004
C154  C     C_R   0.657024 0.246071 0.964951 0.082015
C155  C     C_R   0.676942 0.717238 0.007892 0.057524
C156  C     C_R   0.331445 0.274413 0.996272 0.081740
C157  C     C_R   0.834162 0.250757 0.031359 0.062864
C158  C     C_R   0.179623 0.793795 0.025840 0.083878
C159  C     C_R   0.151710 0.281392 0.920212 0.058725
C160  C     C_R   0.853641 0.726180 0.068510 0.072114
C161  C     C_R   0.286273 0.780395 0.105064 0.108559
C162  C     C_R   0.737186 0.286417 0.992022 0.073279
C163  C     C_R   0.746453 0.714217 0.983633 0.091605
C164  C     C_R   0.250947 0.315167 0.968374 0.083195
C165  C     C_R   0.764897 0.242215 0.055422 0.095268
C166  C     C_R   0.258641 0.823544 0.037635 0.077570
C167  C     C_R   0.222820 0.273110 0.899883 0.106747
C168  C     C_R   0.773203 0.756768 0.049470 0.081165
C169  C     C_R   0.761520 0.316472 0.956580 -0.121473
C170  C     C_R   0.261094 0.752457 0.140352 -0.155077
C171  C     C_R   0.224989 0.345623 0.000338 -0.148139
C172  C     C_R   0.773737 0.679657 0.957717 -0.154467
C173  C     C_R   0.282861 0.848504 0.998407 -0.144811
C174  C     C_R   0.738347 0.203877 0.077995 -0.149069
C175  C     C_R   0.750413 0.780349 0.091973 -0.105974
C176  C     C_R   0.249953 0.239168 0.873388 -0.138731
C177  C     C_R   0.808048 0.296471 0.971751 -0.161516
C178  C     C_R   0.208297 0.757940 0.099749 -0.147819
C179  C     C_R   0.176694 0.327819 0.978471 -0.154935
C180  C     C_R   0.827360 0.683473 0.003365 -0.170521
C181  C     C_R   0.326612 0.822738 0.009739 -0.143526
C182  C     C_R   0.684801 0.204210 0.030740 -0.172131
C183  C     C_R   0.704095 0.758360 0.074859 -0.168874
C184  C     C_R   0.303440 0.238500 0.922571 -0.159056
H41   H     H_    0.822587 0.315433 0.934961 0.144540
H42   H     H_    0.189293 0.730183 0.121605 0.127804
H43   H     H_    0.160666 0.347607 0.012387 0.144380
H44   H     H_    0.848138 0.652415 0.989133 0.143817
H45   H     H_    0.340419 0.838108 0.969955 0.140312
H46   H     H_    0.665209 0.169826 0.042341 0.148050
H47   H     H_    0.690074 0.772817 0.114676 0.147946
H48   H     H_    0.322894 0.206849 0.906380 0.130011
H49   H     H_    0.394842 0.750261 0.014457 0.192193
H50   H     H_    0.583224 0.204475 0.910932 0.188264
H51   H     H_    0.620708 0.698337 0.038449 0.197308
H52   H     H_    0.403550 0.230078 0.044643 0.187911
H53   H     H_    0.888347 0.235394 0.994982 0.194191
H54   H     H_    0.107055 0.755787 0.989014 0.187727
H55   H     H_    0.096983 0.269201 0.956090 0.192221
H56   H     H_    0.930147 0.693630 0.118282 0.189444
H57   H     H_    0.742451 0.350510 0.908728 0.236264
H58   H     H_    0.279713 0.720220 0.191866 0.182021
H59   H     H_    0.243274 0.378649 0.050418 0.229523
H60   H     H_    0.755235 0.645023 0.909727 0.213527
H61   H     H_    0.265899 0.883655 0.951045 0.223830
H62   H     H_    0.757647 0.168182 0.123002 0.199456
H63   H     H_    0.770826 0.810351 0.145968 0.232141
H64   H     H_    0.231604 0.207444 0.821558 0.192728
O1    O     O_3   0.673994 0.394734 0.915649 -0.630491
C185  C     C_3   0.678431 0.414976 0.993216 0.147209
H65   H     H_    0.710722 0.392071 0.052555 0.101057
H66   H     H_    0.641896 0.407711 0.989601 0.128615
C186  C     C_3   0.689616 0.480622 0.003182 -0.173750
H67   H     H_    0.726398 0.488591 0.008559 0.235340
H68   H     H_    0.657846 0.503632 0.943692 0.252192
C187  C     C_3   0.693994 0.505300 0.085133 -0.924499
H69   H     H_    0.657566 0.498108 0.081234 0.304704
H70   H     H_    0.701476 0.553226 0.089337 0.274989
H71   H     H_    0.726309 0.483881 0.145856 0.252860
O2    O     O_3   0.367592 0.715140 0.268235 -0.673582
C188  C     C_3   0.396955 0.763691 0.321068 0.179969
H72   H     H_    0.383856 0.775142 0.364856 0.116203
H73   H     H_    0.390750 0.804228 0.281802 0.050993
C189  C     C_3   0.454801 0.749119 0.378297 -0.309799
H74   H     H_    0.467564 0.732795 0.335828 0.206638
H75   H     H_    0.476731 0.789874 0.411062 0.165328
C190  C     C_3   0.467874 0.703631 0.449737 -0.872909
H76   H     H_    0.460972 0.721951 0.498865 0.245253
H77   H     H_    0.509135 0.691122 0.484515 0.241815
H78   H     H_    0.444155 0.663725 0.420217 0.262092
O3    O     O_3   0.319831 0.415178 0.077616 -0.624376
C191  C     C_3   0.320730 0.446386 0.011190 0.167563
H79   H     H_    0.293589 0.426905 0.944594 0.093574
H80   H     H_    0.360346 0.446246 0.025129 0.112775
C192  C     C_3   0.305187 0.510177 0.009562 -0.206817
H81   H     H_    0.332178 0.530272 0.075400 0.242970
H82   H     H_    0.308317 0.534841 0.959900 0.174221
C193  C     C_3   0.249989 0.515212 0.985550 -0.704977
H83   H     H_    0.222722 0.493848 0.920845 0.210369
H84   H     H_    0.239271 0.562212 0.980411 0.259399
H85   H     H_    0.246562 0.494277 0.037313 0.299036
O4    O     O_3   0.667838 0.680103 0.805807 -0.662309
C194  C     C_3   0.651496 0.736640 0.767438 0.193326
H86   H     H_    0.673934 0.748493 0.738896 0.126000
H87   H     H_    0.659454 0.771655 0.816356 0.087875
C195  C     C_3   0.594144 0.736035 0.692567 -0.299007
H88   H     H_    0.587406 0.703191 0.642063 0.213927
H89   H     H_    0.570905 0.723391 0.719271 0.208664
C196  C     C_3   0.576224 0.796226 0.648816 -0.995629
H90   H     H_    0.581108 0.829282 0.697783 0.276545
H91   H     H_    0.534826 0.794320 0.594175 0.277613
H92   H     H_    0.598685 0.810106 0.621213 0.255006
O5    O     O_3   0.192246 0.927433 0.928814 -0.637684
C197  C     C_3   0.205182 0.959416 0.005341 0.097338
H93   H     H_    0.243310 0.944649 0.062920 0.112619
H94   H     H_    0.175561 0.954060 0.021282 0.125124
C198  C     C_3   0.208344 0.024430 0.989415 -0.144159
H95   H     H_    0.237985 0.030886 0.974267 0.244615
H96   H     H_    0.170236 0.039206 0.932069 0.240802
C199  C     C_3   0.222480 0.061322 0.069912 -0.934800
H97   H     H_    0.192938 0.056207 0.085553 0.285821
H98   H     H_    0.224274 0.108316 0.055521 0.289794
H99   H     H_    0.260718 0.047846 0.128197 0.254766
O6    O     O_3   0.848157 0.199702 0.231536 -0.704903
C200  C     C_3   0.864805 0.256454 0.268320 0.168773
H100  H     H_    0.832148 0.288053 0.232669 0.119344
H101  H     H_    0.897444 0.272198 0.264324 0.108012
C201  C     C_3   0.883530 0.255227 0.365790 -0.292347
H102  H     H_    0.850892 0.244225 0.371510 0.191551
H103  H     H_    0.913824 0.220991 0.400971 0.196999
C202  C     C_3   0.905223 0.314741 0.409237 -1.016102
H104  H     H_    0.934163 0.330451 0.396321 0.278258
H105  H     H_    0.924418 0.310734 0.481920 0.266942
H106  H     H_    0.873644 0.347586 0.383062 0.273423
O7    O     O_3   0.823646 0.870170 0.107293 -0.626841
C203  C     C_3   0.826965 0.897946 0.041023 0.120400
H107  H     H_    0.797129 0.879361 0.975302 0.117039
H108  H     H_    0.865732 0.892568 0.051953 0.113643
C204  C     C_3   0.817353 0.963512 0.041952 -0.173083
H109  H     H_    0.779517 0.970332 0.033339 0.243607
H110  H     H_    0.848148 0.981840 0.107048 0.231042
C205  C     C_3   0.817571 0.996008 0.968659 -0.864513
H111  H     H_    0.855111 0.989788 0.976070 0.295828
H112  H     H_    0.811616 0.043651 0.972661 0.292534
H113  H     H_    0.786055 0.979625 0.902742 0.244138
O8    O     O_3   0.144642 0.210757 0.733692 -0.693147
C206  C     C_3   0.116159 0.255075 0.670083 0.136463
H114  H     H_    0.139992 0.270947 0.646170 0.127016
H115  H     H_    0.107505 0.294486 0.696301 0.094730
C207  C     C_3   0.065923 0.229193 0.592400 -0.308450
H116  H     H_    0.074480 0.189006 0.568198 0.194203
H117  H     H_    0.040538 0.216657 0.614889 0.193893
C208  C     C_3   0.037448 0.273045 0.516465 -0.991518
H118  H     H_    0.025063 0.311553 0.537644 0.274086
H119  H     H_    0.003003 0.251630 0.459549 0.278374
H120  H     H_    0.062416 0.288264 0.494480 0.264940
N33   N     N_R   0.525026 0.265392 0.760938 0.244256
O9    O     O_R   0.494476 0.239842 0.778735 -0.372636
O10   O     O_R   0.509897 0.271195 0.678581 -0.395143
N34   N     N_R   0.428689 0.644916 0.087666 0.254873
O11   O     O_R   0.459091 0.663329 0.064556 -0.300438
O12   O     O_R   0.416118 0.589678 0.077626 -0.394547
N35   N     N_R   0.462939 0.276904 0.204997 0.243771
O13   O     O_R   0.493083 0.255284 0.183309 -0.369722
O14   O     O_R   0.477260 0.273803 0.287213 -0.392075
N36   N     N_R   0.569957 0.609883 0.927372 0.252859
O15   O     O_R   0.539450 0.631867 0.948012 -0.290048
O16   O     O_R   0.571927 0.553191 0.921290 -0.379876
N37   N     N_R   0.045893 0.796856 0.825636 0.260547
O17   O     O_R   0.016067 0.781266 0.851390 -0.330326
O18   O     O_R   0.032381 0.783772 0.745769 -0.330161
N38   N     N_R   0.933441 0.136882 0.085759 0.254685
O19   O     O_R   0.964418 0.160252 0.067175 -0.298288
O20   O     O_R   0.927652 0.080176 0.080879 -0.366440
N39   N     N_R   0.986426 0.762193 0.260926 0.242866
O21   O     O_R   0.017019 0.739247 0.241162 -0.374922
O22   O     O_R   0.003934 0.771249 0.343763 -0.386959
N40   N     N_R   0.057270 0.165930 0.882467 0.251035
O23   O     O_R   0.023351 0.191057 0.892462 -0.332069
O24   O     O_R   0.067175 0.110408 0.901232 -0.341757
O25   O     O_3   0.662174 0.623274 0.660362 -0.636726
C209  C     C_3   0.711946 0.641187 0.684686 0.309480
H121  H     H_    0.734022 0.651839 0.756294 0.141677
H122  H     H_    0.711378 0.682972 0.653644 0.072642
C210  C     C_3   0.742232 0.592895 0.673384 -0.368391
H123  H     H_    0.750043 0.556759 0.720002 0.250119
H124  H     H_    0.719949 0.575080 0.605106 0.188343
C211  C     C_3   0.793728 0.615952 0.694141 -0.974992
H125  H     H_    0.787509 0.652482 0.648675 0.278114
H126  H     H_    0.814779 0.580133 0.685685 0.274239
H127  H     H_    0.817701 0.631826 0.763547 0.274534
O26   O     O_3   0.311617 0.440629 0.347006 -0.585024
C212  C     C_3   0.267209 0.459208 0.343382 0.322732
H128  H     H_    0.251963 0.498150 0.299488 0.164108
H129  H     H_    0.274534 0.474262 0.407593 0.041348
C213  C     C_3   0.225410 0.411950 0.299706 -0.303408
H130  H     H_    0.214286 0.404978 0.230657 0.237358
H131  H     H_    0.240195 0.369662 0.335346 0.216526
C214  C     C_3   0.177743 0.429816 0.298064 -1.003159
H132  H     H_    0.187769 0.436354 0.366478 0.268193
H133  H     H_    0.148230 0.394719 0.266168 0.292211
H134  H     H_    0.161214 0.471125 0.259825 0.269293
O27   O     O_3   0.314996 0.586425 0.348803 -0.632949
C215  C     C_3   0.280738 0.634683 0.314612 0.267297
H135  H     H_    0.264784 0.637528 0.243029 0.165118
H136  H     H_    0.299356 0.677722 0.341776 0.082424
C216  C     C_3   0.234618 0.622987 0.321409 -0.397909
H137  H     H_    0.209667 0.588801 0.272664 0.204432
H138  H     H_    0.247798 0.605527 0.387616 0.207104
C217  C     C_3   0.202163 0.678015 0.302627 -0.891347
H139  H     H_    0.226540 0.715250 0.343781 0.260393
H140  H     H_    0.172824 0.669380 0.317823 0.283852
H141  H     H_    0.181959 0.690252 0.231823 0.257621
O28   O     O_3   0.688255 0.438640 0.651753 -0.590097
C218  C     C_3   0.737201 0.428913 0.666639 0.275608
H142  H     H_    0.764263 0.459572 0.719649 0.134239
H143  H     H_    0.739060 0.441462 0.609832 0.047921
C219  C     C_3   0.757397 0.367015 0.702954 -0.266625
H144  H     H_    0.759343 0.360807 0.765380 0.251690
H145  H     H_    0.731168 0.333204 0.655736 0.212563
C220  C     C_3   0.811358 0.357680 0.723106 -1.006185
H146  H     H_    0.811749 0.365818 0.663313 0.276440
H147  H     H_    0.823872 0.311786 0.745433 0.292384
H148  H     H_    0.839120 0.387879 0.776472 0.271576
O29   O     O_3   0.187001 0.075936 0.653005 -0.636777
C221  C     C_3   0.222913 0.122500 0.689681 0.268621
H149  H     H_    0.237825 0.124788 0.760834 0.167323
H150  H     H_    0.205894 0.166375 0.662656 0.090376
C222  C     C_3   0.269658 0.108946 0.685450 -0.411348
H151  H     H_    0.293486 0.074290 0.734614 0.201868
H152  H     H_    0.257163 0.091646 0.619553 0.210661
C223  C     C_3   0.303277 0.163074 0.706129 -0.891733
H153  H     H_    0.280480 0.199496 0.660192 0.262248
H154  H     H_    0.335459 0.152316 0.698841 0.282227
H155  H     H_    0.319654 0.177661 0.775061 0.256299
O30   O     O_3   0.811981 0.952153 0.350023 -0.565734
C224  C     C_3   0.764203 0.957943 0.341375 0.353408
H156  H     H_    0.743948 0.995834 0.296919 0.146261
H157  H     H_    0.767764 0.969917 0.403621 0.035301
C225  C     C_3   0.729975 0.904286 0.295059 -0.317514
H158  H     H_    0.720894 0.901396 0.226728 0.243219
H159  H     H_    0.750264 0.863398 0.329930 0.218034
C226  C     C_3   0.679544 0.908517 0.289844 -1.008788
H160  H     H_    0.687237 0.911539 0.357137 0.273244
H161  H     H_    0.655940 0.868792 0.256903 0.291329
H162  H     H_    0.657374 0.947798 0.250902 0.270541
O31   O     O_3   0.812429 0.078245 0.348610 -0.617019
C227  C     C_3   0.784630 0.131095 0.312478 0.242360
H163  H     H_    0.787814 0.143825 0.257411 0.162748
H164  H     H_    0.799267 0.169059 0.357680 0.066028
C228  C     C_3   0.727732 0.121265 0.276365 -0.350221
H165  H     H_    0.710247 0.092717 0.216908 0.214370
H166  H     H_    0.724154 0.098746 0.326968 0.201028
C229  C     C_3   0.698162 0.179181 0.251433 -0.928168
H167  H     H_    0.712774 0.206705 0.311185 0.269994
H168  H     H_    0.656618 0.170339 0.221315 0.282541
H169  H     H_    0.702491 0.203747 0.203171 0.262081
O32   O     O_3   0.187573 0.931682 0.657916 -0.600817
C230  C     C_3   0.233591 0.952237 0.669073 0.303955
H170  H     H_    0.247886 0.988512 0.717610 0.170522
H171  H     H_    0.228784 0.971134 0.608377 0.050673
C231  C     C_3   0.274917 0.904234 0.710541 -0.302407
H172  H     H_    0.283996 0.893300 0.777455 0.234392
H173  H     H_    0.260671 0.863782 0.670267 0.218838
C232  C     C_3   0.324113 0.924082 0.718789 -1.007604
H174  H     H_    0.316130 0.934341 0.652469 0.270524
H175  H     H_    0.353299 0.888440 0.749127 0.292170
H176  H     H_    0.340044 0.963652 0.761354 0.268415
N41   N     N_R   0.573666 0.609884 0.340620 0.236112
O33   O     O_R   0.563455 0.660823 0.301735 -0.384591
O34   O     O_R   0.593070 0.569304 0.317321 -0.318244
N42   N     N_R   0.419070 0.433584 0.665302 0.248992
O35   O     O_R   0.392924 0.410254 0.694015 -0.350384
O36   O     O_R   0.456088 0.469924 0.715989 -0.359990
N43   N     N_R   0.430155 0.610052 0.662907 0.233672
O37   O     O_R   0.444580 0.662133 0.697375 -0.390571
O38   O     O_R   0.413414 0.573676 0.696586 -0.308547
N44   N     N_R   0.579764 0.431773 0.333775 0.251388
O39   O     O_R   0.604359 0.406191 0.303723 -0.346323
O40   O     O_R   0.544841 0.470775 0.284738 -0.360795
N45   N     N_R   0.077264 0.097731 0.337269 0.242663
O41   O     O_R   0.065040 0.149751 0.301555 -0.381014
O42   O     O_R   0.096965 0.060823 0.309391 -0.306789
N46   N     N_R   0.923491 0.904673 0.663113 0.242824
O43   O     O_R   0.942687 0.852035 0.684277 -0.332830
O44   O     O_R   0.906116 0.928010 0.706954 -0.317135
N47   N     N_R   0.920057 0.072478 0.665497 0.252614
O45   O     O_R   0.894077 0.097692 0.693166 -0.330904
O46   O     O_R   0.955629 0.034595 0.716636 -0.358207
N48   N     N_R   0.081370 0.933112 0.335068 0.253490
O47   O     O_R   0.109228 0.911800 0.308447 -0.342483
O48   O     O_R   0.041746 0.965711 0.281119 -0.364314
N49   N     N_R   0.332445 0.580982 0.215834 0.231961
O49   O     O_R   0.300393 0.612914 0.147368 -0.461989
O50   O     O_R   0.316874 0.530457 0.225426 -0.332630
N50   N     N_R   0.657971 0.381384 0.743539 0.236443
O51   O     O_R   0.695106 0.417354 0.794764 -0.327486
O52   O     O_R   0.668924 0.327458 0.736479 -0.465935
N51   N     N_R   0.667895 0.555553 0.789203 0.260033
O53   O     O_R   0.681220 0.525373 0.744577 -0.343142
O54   O     O_R   0.699348 0.557710 0.874757 -0.456926
N52   N     N_R   0.340501 0.383435 0.254331 0.249929
O55   O     O_R   0.299809 0.414654 0.201058 -0.330263
O56   O     O_R   0.334648 0.329645 0.271222 -0.421894
N53   N     N_R   0.832896 0.065056 0.207589 0.222773
O57   O     O_R   0.802630 0.080017 0.124790 -0.465411
O58   O     O_R   0.820742 0.019010 0.234232 -0.321383
N54   N     N_R   0.148766 0.869474 0.729686 0.254417
O59   O     O_R   0.196807 0.866057 0.795024 -0.385687
O60   O     O_R   0.130331 0.830573 0.666920 -0.404109
N55   N     N_R   0.166305 0.080701 0.785339 0.229074
O61   O     O_R   0.181108 0.028299 0.780390 -0.379154
O62   O     O_R   0.198057 0.113072 0.853053 -0.471906
N56   N     N_R   0.849177 0.871984 0.281018 0.230047
O63   O     O_R   0.806589 0.899608 0.225371 -0.336751
O64   O     O_R   0.847165 0.820416 0.309755 -0.471411

loop_
_geom_bond_atom_site_label_1
_geom_bond_atom_site_label_2
_geom_bond_distance
_ccdc_geom_bond_type
C184  H48   1.083227 S    
C216  H137  1.110955 S    
C121  C129  1.405219 A    
C185  C186  1.524403 S    
C224  H156  1.107859 S    
N55   O61   1.301231 A    
C51   C91   1.374676 A    
C62   C70   1.388993 A    
C198  H95   1.111129 S    
O5    C197  1.416689 S    
O2    C188  1.418592 S    
C28   C34   1.392109 A    
C159  C179  1.391128 A    
C17   N41   1.430124 S    
C50   C90   1.378188 A    
N4    N26   1.420864 A    
N6    N32   1.420868 A    
N47   O46   1.300369 A    
N31   Ni7   1.872920 S    
C173  C181  1.391485 A    
N35   O14   1.301319 A    
C14   N14   1.348429 A    
C100  C112  1.385388 A    
C49   C89   1.380983 A    
C101  C105  1.389214 A    
C221  C222  1.533362 S    
C189  C190  1.527108 S    
C104  C108  1.387418 A    
N54   O59   1.297882 A    
C222  H152  1.106188 S    
C161  C166  1.425689 A    
C136  N39   1.437532 S    
C3    N3    1.342569 A    
C195  H88   1.110970 S    
C103  C107  1.393328 A    
C4    H4    1.074646 S    
C27   C33   1.387186 A    
C134  N37   1.434223 S    
C5    H5    1.075565 S    
C150  C166  1.429915 A    
C49   C57   1.396073 A    
C126  C134  1.400383 A    
C7    H7    1.066114 S    
C41   C60   1.425228 S    
C8    H8    1.078027 S    
C9    C41   1.388651 A    
C172  H60   1.076990 S    
C38   C120  1.468500 S    
C17   N17   1.340813 A    
C50   H10   1.082274 S    
C10   C42   1.380252 A    
C174  H62   1.069179 S    
C174  C182  1.390728 A    
C168  C175  1.414408 A    
C162  C165  1.406319 A    
C67   C75   1.381989 A    
C194  H86   1.110952 S    
C214  H134  1.110900 S    
N1    Ni1   1.898937 S    
C199  H97   1.110903 S    
N38   O20   1.301234 A    
C208  H120  1.109678 S    
C169  C177  1.394506 A    
C64   C72   1.387671 A    
C220  H148  1.110744 S    
C11   N11   1.339678 A    
C188  H72   1.108650 S    
C203  C204  1.525758 S    
C30   N54   1.426997 S    
N36   O16   1.301181 A    
C122  C154  1.403537 A    
C97   C109  1.386153 A    
C10   O26   1.387770 S    
O7    C203  1.412882 S    
C148  C164  1.428141 A    
C124  C132  1.402958 A    
C195  C196  1.525680 S    
C202  H105  1.109700 S    
N44   O39   1.300782 A    
C126  C158  1.400746 A    
C200  C201  1.525694 S    
C77   C101  1.398717 A    
C48   C61   1.411749 S    
C187  H69   1.110754 S    
C211  H126  1.110372 S    
C231  H173  1.106377 S    
C16   N16   1.332410 A    
C176  C184  1.387940 A    
N11   N19   1.376300 A    
N37   O17   1.301372 A    
C224  C225  1.532986 S    
N16   Ni7   1.873658 S    
C149  C157  1.404334 A    
N35   O13   1.301350 A    
C82   C90   1.411149 A    
C198  C199  1.525646 S    
N46   O43   1.298967 A    
C172  C180  1.397423 A    
C7    C39   1.378442 A    
C188  C189  1.536743 S    
C69   H21   1.085121 S    
C221  H150  1.109483 S    
C193  H85   1.110489 S    
C162  C169  1.414685 A    
C18   N42   1.434160 S    
C151  C167  1.429630 A    
N10   Ni6   1.871286 S    
C199  H98   1.110734 S    
N50   O51   1.298436 A    
C140  O3    1.383770 S    
C55   C95   1.376519 A    
C166  C173  1.413805 A    
C186  C187  1.525700 S    
C231  C232  1.525522 S    
C50   C58   1.389568 A    
C164  C167  1.424311 A    
C29   N29   1.337832 A    
C213  H130  1.111778 S    
C208  H119  1.109042 S    
C145  C153  1.410005 A    
C124  C156  1.402885 A    
C107  H35   1.083600 S    
C210  H123  1.105839 S    
C197  C198  1.522776 S    
C229  H167  1.110086 S    
C11   C43   1.392508 A    
C201  H102  1.107985 S    
C206  C207  1.530511 S    
C74   C98   1.396908 A    
O29   C221  1.413988 S    
C217  H140  1.110348 S    
C3    H3    1.065989 S    
N32   Ni8   1.872923 S    
C99   H27   1.083782 S    
C81   C89   1.409318 A    
C78   C86   1.415467 A    
N43   O37   1.301237 A    
C163  C168  1.401106 A    
C125  H53   1.083757 S    
C204  H109  1.111777 S    
N56   O63   1.299390 A    
C194  H87   1.116002 S    
N9    N17   1.376300 A    
C138  C146  1.392851 A    
N19   Ni1   1.896122 S    
C121  H49   1.083990 S    
N34   O11   1.301301 A    
C218  H143  1.102398 S    
C108  H36   1.083865 S    
C55   H15   1.085795 S    
C19   C43   1.363770 A    
C14   O30   1.393331 S    
C202  H104  1.110528 S    
C199  H99   1.110804 S    
C24   N24   1.335771 A    
C45   C64   1.414715 S    
C115  C139  1.405372 A    
O25   C209  1.418270 S    
C202  H106  1.111086 S    
N8    N30   1.420864 A    
C95   C112  1.397629 A    
C47   C62   1.417842 S    
C113  C137  1.409378 A    
C216  H138  1.105750 S    
C68   H20   1.085322 S    
C186  H67   1.111123 S    
C119  C135  1.415053 A    
C57   C65   1.388208 A    
O26   C212  1.414317 S    
N55   O62   1.299550 A    
C117  C141  1.401952 A    
C110  H38   1.083921 S    
C6    C38   1.375987 A    
C6    H6    1.074671 S    
C205  H111  1.110836 S    
N2    N28   1.420868 A    
C16   C48   1.379135 A    
C191  H79   1.114424 S    
C76   C84   1.411145 A    
C63   C71   1.393329 A    
N48   O48   1.300480 A    
C27   N27   1.334234 A    
O8    C206  1.414027 S    
C153  C181  1.393512 A    
N12   Ni5   1.873658 S    
C80   C104  1.397389 A    
C187  H71   1.110781 S    
C28   N52   1.424620 S    
O30   C224  1.415168 S    
C211  H127  1.110935 S    
C180  H44   1.083496 S    
C3    C35   1.383424 A    
C181  H45   1.084068 S    
N12   N20   1.376302 A    
C171  C179  1.388623 A    
C167  C176  1.413872 A    
C20   N20   1.328171 A    
C87   C95   1.412261 A    
C53   C61   1.391154 A    
C21   N21   1.335298 A    
C54   H14   1.086103 S    
N53   O57   1.300188 A    
C196  H91   1.109602 S    
C123  C131  1.405235 A    
C132  N35   1.438255 S    
C25   N49   1.431995 S    
C72   H24   1.085324 S    
C52   C60   1.392955 A    
C140  C148  1.409181 A    
C141  C149  1.389356 A    
C213  C214  1.525557 S    
C204  H110  1.111709 S    
C83   C88   1.384626 A    
C210  C211  1.525514 S    
C56   C64   1.389267 A    
C197  H93   1.112891 S    
C9    O25   1.387465 S    
C92   C107  1.400459 A    
C193  H83   1.110826 S    
C12   O28   1.391966 S    
C201  C202  1.526938 S    
N28   Ni6   1.872923 S    
C11   O27   1.390232 S    
C152  C168  1.403650 A    
C116  C132  1.414579 A    
C232  H174  1.110705 S    
C114  C130  1.417237 A    
C126  H54   1.084262 S    
N44   O40   1.299521 A    
C25   N25   1.343299 A    
C203  H108  1.117921 S    
O1    C185  1.415153 S    
C5    N5    1.345571 A    
C171  H59   1.070386 S    
C225  H158  1.111261 S    
N41   O34   1.298376 A    
C12   N12   1.347184 A    
C36   C114  1.465589 S    
C18   N18   1.334235 A    
N26   Ni5   1.870427 S    
C51   H11   1.086099 S    
C215  H135  1.106132 S    
C49   H9    1.085541 S    
N40   O24   1.301449 A    
N14   Ni8   1.871286 S    
C178  H42   1.081638 S    
C209  H121  1.109694 S    
N11   Ni6   1.873655 S    
N51   O54   1.298831 A    
N25   Ni6   1.870427 S    
C192  C193  1.527522 S    
C155  C183  1.391263 A    
C32   C38   1.399547 A    
C32   N56   1.423131 S    
C223  H153  1.108582 S    
C59   C67   1.387613 A    
N10   N18   1.376298 A    
C149  C165  1.409943 A    
C103  H31   1.083644 S    
C98   C110  1.385430 A    
N4    Ni1   1.895147 S    
C1    N1    1.339458 A    
C146  C154  1.409759 A    
C191  C192  1.527215 S    
C190  H78   1.106180 S    
C25   C35   1.394673 A    
N45   O42   1.299182 A    
C46   C63   1.426471 S    
N3    Ni2   1.895143 S    
C78   C102  1.399022 A    
C142  O5    1.385739 S    
C29   C39   1.395093 A    
C7    N7    1.338034 A    
C19   N43   1.426154 S    
C120  C136  1.420258 A    
C204  C205  1.525611 S    
O32   C230  1.413740 S    
C124  H52   1.084073 S    
N33   O10   1.301246 A    
N13   Ni7   1.871286 S    
C83   C91   1.409525 A    
N52   O55   1.298555 A    
C154  C182  1.390761 A    
C65   C73   1.380515 A    
C227  H163  1.097188 S    
C142  C150  1.415562 A    
C212  H129  1.111589 S    
C222  H151  1.110650 S    
N27   Ni5   1.872920 S    
N6    Ni4   1.898937 S    
N7    Ni4   1.895143 S    
C195  H89   1.110807 S    
C54   C94   1.375653 A    
C69   C77   1.382850 A    
C137  C145  1.411712 A    
C143  O8    1.383059 S    
C71   C79   1.388048 A    
C212  H128  1.107039 S    
C164  C171  1.413223 A    
C12   C44   1.397589 A    
N20   Ni2   1.896123 S    
C230  H170  1.107101 S    
N17   Ni2   1.899838 S    
O28   C218  1.412112 S    
C230  C231  1.530742 S    
C61   C69   1.388435 A    
C102  H30   1.083712 S    
C76   C100  1.398051 A    
C169  H57   1.064934 S    
N5    N31   1.420865 A    
C127  H55   1.084146 S    
C214  H133  1.110290 S    
C79   C87   1.413019 A    
C232  H176  1.110844 S    
C80   C88   1.415688 A    
C220  H147  1.110418 S    
C145  C161  1.426219 A    
C6    N6    1.341763 A    
C175  H63   1.069542 S    
N42   O35   1.300632 A    
C176  H64   1.068097 S    
C131  N36   1.435265 S    
C55   C63   1.390881 A    
C185  H65   1.113825 S    
C219  H144  1.110144 S    
N23   Ni3   1.896122 S    
C71   H23   1.084919 S    
C122  H50   1.083827 S    
C215  C216  1.533994 S    
N15   N23   1.376300 A    
C214  H132  1.110524 S    
C143  C151  1.409445 A    
N16   N24   1.376302 A    
C226  H162  1.110806 S    
C16   O32   1.390336 S    
C24   C48   1.369915 A    
C8    C40   1.384959 A    
C200  H101  1.119279 S    
C127  C159  1.402903 A    
C187  H70   1.110802 S    
O4    C194  1.416800 S    
C125  C133  1.408719 A    
C192  H81   1.110274 S    
C100  H28   1.083945 S    
C141  O6    1.387796 S    
C101  H29   1.083736 S    
C224  H157  1.107584 S    
C223  H155  1.109223 S    
C198  H96   1.111166 S    
N46   O44   1.300409 A    
C207  H116  1.111134 S    
C188  H73   1.115275 S    
N49   O50   1.298411 A    
N1    N27   1.420865 A    
C26   C36   1.396616 A    
C190  H76   1.109707 S    
N2    Ni2   1.898937 S    
C111  H39   1.083237 S    
N51   O53   1.295573 A    
C15   O31   1.380548 S    
C112  H40   1.083939 S    
N50   O52   1.300817 A    
C65   H17   1.085162 S    
C226  H160  1.109458 S    
C219  C220  1.525536 S    
C213  H131  1.107409 S    
C228  H165  1.111585 S    
C123  C155  1.401172 A    
C86   C94   1.409254 A    
C219  H145  1.105525 S    
C106  H34   1.083702 S    
N18   Ni1   1.899840 S    
C121  C153  1.403186 A    
N14   N22   1.376298 A    
C227  C228  1.529099 S    
C222  C223  1.525657 S    
C40   C118  1.481205 S    
C22   N22   1.334602 A    
C201  H103  1.112160 S    
C177  H41   1.083825 S    
C206  H115  1.118135 S    
C160  C180  1.395263 A    
C96   C111  1.399297 A    
C125  C157  1.403516 A    
C217  H141  1.107894 S    
C31   N31   1.333994 A    
C90   C105  1.399347 A    
C67   H19   1.085077 S    
C156  C184  1.389475 A    
C212  C213  1.531206 S    
C33   C115  1.468328 S    
C157  C177  1.391735 A    
N56   O64   1.300707 A    
C54   C62   1.392383 A    
C82   C85   1.383779 A    
C119  C143  1.410196 A    
C94   C109  1.398460 A    
C117  C133  1.419469 A    
C229  H169  1.109050 S    
N34   O12   1.301329 A    
N5    Ni3   1.898937 S    
C30   C40   1.393977 A    
C68   C76   1.375142 A    
C75   C83   1.415738 A    
C161  C170  1.411089 A    
C73   C81   1.414571 A    
N38   O19   1.301240 A    
C20   C44   1.363116 A    
N9    Ni5   1.871286 S    
C207  H117  1.111044 S    
N39   O21   1.301316 A    
C72   C80   1.381294 A    
C84   C92   1.414185 A    
C51   C59   1.393230 A    
C165  C174  1.412024 A    
C85   C93   1.410332 A    
C43   C58   1.412482 S    
C1    C33   1.374904 A    
C60   C68   1.391303 A    
C228  H166  1.110404 S    
N36   O15   1.301241 A    
C75   C99   1.397839 A    
N22   Ni3   1.899840 S    
C88   C96   1.409572 A    
C53   H13   1.085996 S    
C19   N19   1.330413 A    
C205  H112  1.110689 S    
C191  H80   1.115153 S    
C89   C106  1.400529 A    
N3    N25   1.420866 A    
C13   O29   1.387605 S    
C207  C208  1.524445 S    
C179  H43   1.084198 S    
C138  O1    1.385528 S    
C81   C86   1.386922 A    
C93   C110  1.398390 A    
C211  H125  1.110074 S    
C28   N28   1.348370 A    
C232  H175  1.110301 S    
C231  H172  1.111852 S    
C13   N13   1.339744 A    
N37   O18   1.301371 A    
C139  O4    1.387870 S    
C139  C147  1.384745 A    
C24   N48   1.435222 S    
C205  H113  1.110871 S    
C23   C47   1.361779 A    
O3    C191  1.413150 S    
C221  H149  1.105452 S    
C39   C117  1.472280 S    
C2    N2    1.345646 A    
C196  H90   1.110701 S    
N7    N29   1.420866 A    
C206  H114  1.109237 S    
C18   C42   1.364968 A    
N29   Ni8   1.870427 S    
C99   C111  1.387678 A    
C128  C160  1.405576 A    
N47   O45   1.300830 A    
C114  C138  1.397827 A    
C97   H25   1.083836 S    
C98   H26   1.083886 S    
C58   C66   1.387091 A    
C31   N55   1.434409 S    
C118  C142  1.408830 A    
C173  H61   1.073989 S    
C144  C152  1.380843 A    
C147  C163  1.407754 A    
C197  H94   1.117817 S    
C210  H124  1.109343 S    
C182  H46   1.083887 S    
C152  C160  1.404644 A    
C146  C162  1.414579 A    
C151  C159  1.411563 A    
N49   O49   1.300395 A    
C29   N53   1.435314 S    
C217  H139  1.108379 S    
C52   C92   1.389021 A    
C8    N8    1.342911 A    
C229  H168  1.110142 S    
C26   N26   1.344117 A    
C1    H1    1.069006 S    
N42   O36   1.299833 A    
C193  H84   1.110093 S    
C56   C96   1.375338 A    
C14   C46   1.385689 A    
N41   O33   1.301887 A    
C2    C34   1.379572 A    
C66   H18   1.085681 S    
C218  C219  1.535001 S    
C79   C103  1.400868 A    
C215  H136  1.107543 S    
C17   C41   1.372640 A    
C128  C136  1.411978 A    
C170  H58   1.070634 S    
C30   N30   1.347902 A    
C53   C93   1.372601 A    
C122  C130  1.406382 A    
C127  C135  1.402992 A    
C116  C140  1.406947 A    
C10   N10   1.335517 A    
C44   C57   1.423814 S    
C209  H122  1.100931 S    
C216  C217  1.525606 S    
C34   C116  1.476063 S    
C129  N34   1.436296 S    
C192  H82   1.111434 S    
C4    C36   1.372139 A    
C20   N44   1.434702 S    
C120  C144  1.395100 A    
C144  O7    1.381920 S    
C223  H154  1.110256 S    
C228  C229  1.526630 S    
O27   C215  1.412963 S    
C123  H51   1.083820 S    
C189  H75   1.111331 S    
C190  H77   1.110301 S    
C21   C45   1.361179 A    
C52   H12   1.083893 S    
C115  C131  1.419760 A    
N48   O47   1.300637 A    
C56   H16   1.080017 S    
C209  C210  1.536476 S    
C130  N33   1.438192 S    
C113  C129  1.415973 A    
O31   C227  1.413300 S    
C225  C226  1.525436 S    
C77   C85   1.415301 A    
N21   Ni4   1.899838 S    
N43   O38   1.299060 A    
C42   C59   1.414396 S    
O6    C200  1.416675 S    
C37   C119  1.483004 S    
C70   H22   1.085078 S    
N33   O9    1.301337 A    
N52   O56   1.300473 A    
C35   C113  1.481227 S    
N54   O60   1.300822 A    
C189  H74   1.110759 S    
C227  H164  1.103420 S    
N53   O58   1.296711 A    
C135  N40   1.435370 S    
C196  H92   1.109956 S    
C73   C97   1.396974 A    
C150  C158  1.412280 A    
C15   C47   1.392902 A    
C104  H32   1.083821 S    
C133  N38   1.435000 S    
C21   N45   1.426745 S    
C2    H2    1.073362 S    
N8    Ni3   1.895147 S    
C23   N23   1.325960 A    
C31   C37   1.399983 A    
C27   N51   1.434801 S    
C128  H56   1.083528 S    
C163  C172  1.418306 A    
C13   C45   1.385304 A    
C137  O2    1.388496 S    
C225  H159  1.105513 S    
C230  H171  1.112721 S    
C4    N4    1.339890 A    
C74   C82   1.414595 A    
C147  C155  1.407088 A    
C23   N47   1.435943 S    
C194  C195  1.532343 S    
N30   Ni7   1.870427 S    
N13   N21   1.376300 A    
C186  H68   1.110393 S    
C208  H118  1.110468 S    
N39   O22   1.301293 A    
C220  H146  1.108205 S    
C175  C183  1.391917 A    
C105  H33   1.083895 S    
C91   C108  1.399410 A    
C84   C87   1.389284 A    
C183  H47   1.083866 S    
C203  H107  1.113026 S    
C15   N15   1.344034 A    
C158  C178  1.389931 A    
C185  H66   1.116881 S    
C32   N32   1.340296 A    
C109  H37   1.080609 S    
N15   Ni8   1.873655 S    
C148  C156  1.411129 A    
C22   N46   1.425252 S    
C218  H142  1.108144 S    
C66   C74   1.376992 A    
N24   Ni4   1.896123 S    
C102  C106  1.391173 A    
C9    N9    1.346736 A    
C226  H161  1.110342 S    
N40   O23   1.301231 A    
C70   C78   1.386464 A    
C200  H100  1.113821 S    
N45   O41   1.301471 A    
C5    C37   1.395072 A    
C170  C178  1.386421 A    
C26   N50   1.418943 S    
C22   C46   1.358416 A    
C118  C134  1.413315 A    
