data_mof_unit_47890.cif
_audit_creation_date              2012-12-11T14:44:30-0500
_audit_creation_method            fapswitch 2.2
_symmetry_space_group_name_H-M    P1
_symmetry_Int_Tables_number       1
_space_group_crystal_system       triclinic
_cell_length_a                    19.985644
_cell_length_b                    7.212312
_cell_length_c                    19.740312
_cell_angle_alpha                 90.595161
_cell_angle_beta                  98.548226
_cell_angle_gamma                 89.449002
_cell_volume                      2813.5668026

loop_
_atom_site_label
_atom_site_type_symbol
_atom_type_description
_atom_site_fract_x
_atom_site_fract_y
_atom_site_fract_z
_atom_type_partial_charge
O1    O     O_R   0.673210 0.377390 0.686390 -0.537863
O2    O     O_R   0.326790 0.622610 0.313610 -0.537089
O3    O     O_R   0.826790 0.877390 0.813610 -0.538328
O4    O     O_R   0.173210 0.122610 0.186390 -0.536017
O5    O     O_R   0.810750 0.706450 0.681250 -0.539315
O6    O     O_R   0.189250 0.293550 0.318750 -0.537451
O7    O     O_R   0.689250 0.206450 0.818750 -0.512149
O8    O     O_R   0.310750 0.793550 0.181250 -0.544717
C1    C     C_R   0.830072 0.536626 0.664311 0.698291
C2    C     C_R   0.169920 0.463374 0.335683 0.705998
C3    C     C_R   0.669246 0.039734 0.835172 0.738135
C4    C     C_R   0.330540 0.960084 0.164507 0.704724
O9    O     O_R   0.672750 0.707060 0.678240 -0.538382
O10   O     O_R   0.327250 0.292940 0.321760 -0.536870
O11   O     O_R   0.827250 0.207060 0.821760 -0.535776
O12   O     O_R   0.172750 0.792940 0.178240 -0.538137
O13   O     O_R   0.687800 0.877990 0.810580 -0.545687
O14   O     O_R   0.312200 0.122010 0.189420 -0.537155
O15   O     O_R   0.812200 0.377990 0.689420 -0.545982
O16   O     O_R   0.187800 0.622010 0.310580 -0.543670
C5    C     C_R   0.648283 0.539892 0.661294 0.698628
C6    C     C_R   0.351713 0.460124 0.338703 0.700140
C7    C     C_R   0.851769 0.039907 0.838717 0.702152
C8    C     C_R   0.148239 0.960092 0.161274 0.702185
O17   O     O_3   0.755100 0.544060 0.793420 -0.365829
O18   O     O_3   0.244900 0.455940 0.206580 -0.374694
O19   O     O_3   0.744900 0.044060 0.706580 -0.382691
O20   O     O_3   0.255100 0.955940 0.293420 -0.376205
V1    V     V_3+5 0.749050 0.818670 0.741950 1.403429
V2    V     V_3+5 0.250950 0.181330 0.258050 1.401264
V3    V     V_3+5 0.750950 0.318670 0.758050 1.427860
V4    V     V_3+5 0.249050 0.681330 0.241950 1.383129
C9    C     C_R   0.087363 0.957101 0.107391 -0.117708
C10   C     C_R   0.912655 0.042888 0.892591 -0.115381
C11   C     C_R   0.412876 0.458047 0.392187 -0.106484
C12   C     C_R   0.587205 0.542197 0.607690 -0.114913
C13   C     C_R   0.008222 0.219903 0.953026 0.221300
C14   C     C_R   0.991803 0.780074 0.046950 0.221259
C15   C     C_R   0.488581 0.715308 0.550571 0.219605
C16   C     C_R   0.512096 0.286529 0.448781 0.189719
C17   C     C_R   0.954468 0.199988 0.898912 -0.181698
C18   C     C_R   0.045552 0.799997 0.101067 -0.184004
C19   C     C_R   0.542806 0.695455 0.604281 -0.175151
C20   C     C_R   0.457474 0.305269 0.395432 -0.197557
C21   C     C_R   0.926238 0.901771 0.941097 -0.225900
C22   C     C_R   0.073787 0.098207 0.058880 -0.226339
C23   C     C_R   0.575975 0.404778 0.556619 -0.225578
C24   C     C_R   0.424146 0.595669 0.443180 -0.221803
C25   C     C_R   0.979379 0.919537 0.996885 0.086431
C26   C     C_R   0.020648 0.080437 0.003089 0.086858
C27   C     C_R   0.522356 0.422399 0.501271 0.098039
C28   C     C_R   0.478227 0.579218 0.498132 0.090647
C29   C     C_R   0.579095 0.875335 0.885396 -0.280678
C30   C     C_R   0.419955 0.125079 0.113365 -0.244584
C31   C     C_R   0.923150 0.669915 0.609327 -0.241300
C32   C     C_R   0.076830 0.330090 0.390655 -0.241119
C33   C     C_R   0.620024 0.032811 0.885170 -0.079239
C34   C     C_R   0.379376 0.966646 0.113925 -0.126858
C35   C     C_R   0.878359 0.522671 0.613498 -0.123579
C36   C     C_R   0.121621 0.477337 0.386485 -0.124942
C37   C     C_R   0.612914 0.180215 0.931941 0.142065
C38   C     C_R   0.386534 0.819899 0.066337 0.136302
C39   C     C_R   0.881340 0.364756 0.569811 0.134996
C40   C     C_R   0.118623 0.635277 0.430157 0.136154
C41   C     C_R   0.564307 0.168329 0.977522 0.044645
C42   C     C_R   0.434544 0.834033 0.020657 0.095867
C43   C     C_R   0.930098 0.355865 0.524675 0.099678
C44   C     C_R   0.069865 0.644165 0.475291 0.099118
C45   C     C_R   0.523613 0.008370 0.976428 0.040201
C46   C     C_R   0.475113 0.993945 0.021783 0.012641
C47   C     C_R   0.975333 0.504335 0.522370 0.012569
C48   C     C_R   0.024634 0.495689 0.477599 0.012658
C49   C     C_R   0.531354 0.862207 0.930242 0.094071
C50   C     C_R   0.467360 0.139511 0.068108 0.094619
C51   C     C_R   0.971409 0.661608 0.564624 0.094554
C52   C     C_R   0.028562 0.338411 0.435348 0.096121
C53   C     C_R   0.555400 0.312121 0.024408 -0.195507
C54   C     C_R   0.443103 0.690406 0.973701 -0.149988
C55   C     C_R   0.934979 0.200209 0.481862 -0.160489
C56   C     C_R   0.064980 0.799826 0.518101 -0.155790
C57   C     C_R   0.507547 0.297773 0.068891 -0.168914
C58   C     C_R   0.490908 0.704404 0.929240 -0.211495
C59   C     C_R   0.983598 0.191759 0.437907 -0.202187
C60   C     C_R   0.016367 0.808267 0.562061 -0.200085
H1    H     H_    0.106203 0.218545 0.063646 0.164669
H2    H     H_    0.893822 0.781432 0.936330 0.164938
H3    H     H_    0.389127 0.711721 0.441009 0.159275
H4    H     H_    0.610530 0.287605 0.559155 0.161168
H5    H     H_    0.054983 0.690662 0.138602 0.126650
H6    H     H_    0.945034 0.309328 0.861380 0.125747
H7    H     H_    0.449536 0.198672 0.356033 0.123750
H8    H     H_    0.550818 0.802104 0.643656 0.123516
N1    N     N_3   0.049729 0.382704 0.957603 -0.657440
H9    H     H_    0.096688 0.343008 0.944645 0.217191
H10   H     H_    0.029310 0.481108 0.921616 0.238762
N2    N     N_3   0.950296 0.617271 0.042373 -0.657322
H11   H     H_    0.903320 0.656990 0.055285 0.214758
H12   H     H_    0.970689 0.518920 0.078394 0.238052
N3    N     N_3   0.444050 0.873603 0.549273 -0.670018
H13   H     H_    0.452635 0.956891 0.508486 0.248038
H14   H     H_    0.455984 0.954113 0.593710 0.232729
N4    N     N_3   0.556642 0.128307 0.450186 -0.688468
H15   H     H_    0.602748 0.174710 0.437967 0.227291
H16   H     H_    0.538017 0.031798 0.412307 0.226514
H17   H     H_    0.583720 0.762318 0.849686 0.141773
H18   H     H_    0.415391 0.237905 0.149168 0.134543
H19   H     H_    0.921401 0.790843 0.642156 0.135602
H20   H     H_    0.078587 0.209151 0.357833 0.135259
N5    N     N_3   0.656263 0.338384 0.933837 -0.648111
H21   H     H_    0.683963 0.350885 0.982912 0.222342
H22   H     H_    0.626364 0.457156 0.922998 0.225523
N6    N     N_3   0.344779 0.657977 0.062068 -0.682023
H23   H     H_    0.293879 0.698315 0.056317 0.241719
H24   H     H_    0.357581 0.579625 0.106398 0.247133
N7    N     N_3   0.834396 0.214807 0.568866 -0.681875
H25   H     H_    0.845374 0.140571 0.614380 0.252149
H26   H     H_    0.785054 0.267994 0.563488 0.234267
N8    N     N_3   0.165549 0.785261 0.431087 -0.676174
H27   H     H_    0.214897 0.732115 0.436472 0.240692
H28   H     H_    0.154563 0.859461 0.385566 0.251536
H29   H     H_    0.585023 0.437407 0.027202 0.136458
H30   H     H_    0.413220 0.565433 0.971216 0.174708
H31   H     H_    0.901547 0.083126 0.482301 0.171435
H32   H     H_    0.098409 0.916917 0.517659 0.173507
H33   H     H_    0.501972 0.411342 0.104071 0.126625
H34   H     H_    0.496355 0.590802 0.894041 0.132483
H35   H     H_    0.986048 0.069696 0.405843 0.133256
H36   H     H_    0.013918 0.930329 0.594126 0.134602

loop_
_geom_bond_atom_site_label_1
_geom_bond_atom_site_label_2
_ccdc_geom_bond_type
C34   C38   A    
C55   C59   A    
O1    C5    A    
N1    H9    S    
C32   C52   A    
C31   C35   A    
O19   V1    S    
O13   V1    S    
O3    C7    A    
C48   C52   A    
O15   V3    S    
N6    H24   S    
C14   C25   A    
O7    C3    A    
C6    C11   S    
C9    C18   A    
C40   C44   A    
O9    V1    S    
C14   C18   A    
N5    H22   S    
C30   C34   A    
O4    C8    A    
C51   C60   A    
N7    H25   S    
O1    V3    S    
C40   N8    S    
C12   C23   A    
O2    V4    S    
C33   C37   A    
O3    V1    S    
C46   C50   A    
C32   H20   S    
N8    H27   S    
C1    O15   A    
C58   H34   S    
C2    O16   A    
N7    H26   S    
N2    H12   S    
O2    C6    A    
C45   C49   A    
O14   V2    S    
C53   C57   A    
C16   C20   A    
C56   C60   A    
C22   H1    S    
C31   C51   A    
O11   C7    A    
C17   H6    S    
C37   N5    S    
O12   C8    A    
C30   C50   A    
C9    C22   A    
C45   C46   A    
C10   C17   A    
C60   H36   S    
O10   V2    S    
C11   C24   A    
C52   C59   A    
N6    H23   S    
O5    V1    S    
C42   C54   A    
C39   C43   A    
O7    V3    S    
C38   C42   A    
O9    C5    A    
C27   C28   A    
O8    V4    S    
C41   C53   A    
C57   H33   S    
C5    C12   S    
C53   H29   S    
C30   H18   S    
O18   V4    S    
C15   C19   A    
C55   H31   S    
C32   C36   A    
C31   H19   S    
C44   C48   A    
C1    C35   S    
C2    C36   S    
O5    C1    A    
C37   C41   A    
C54   C58   A    
C15   N3    S    
N3    H13   S    
C21   C25   A    
O8    C4    A    
C7    C10   S    
N2    H11   S    
C24   H3    S    
C13   N1    S    
C10   C21   A    
N4    H16   S    
C11   C20   A    
C20   H7    S    
O6    V2    S    
C50   C57   A    
C14   N2    S    
C44   C56   A    
C49   C58   A    
O16   V4    S    
C3    O13   A    
C29   C33   A    
N3    H14   S    
O17   V3    S    
C29   C49   A    
C8    C9    S    
C59   H35   S    
O6    C2    A    
C23   C27   A    
O11   V3    S    
O12   V4    S    
C16   C27   A    
C22   C26   A    
C35   C39   A    
C19   H8    S    
C36   C40   A    
C18   H5    S    
C23   H4    S    
O10   C6    A    
O20   V2    S    
C21   H2    S    
C4    C34   S    
C47   C48   A    
N5    H21   S    
C47   C51   A    
C13   C26   A    
C42   C46   A    
C39   N7    S    
C41   C45   A    
C15   C28   A    
C43   C47   A    
C13   C17   A    
N4    H15   S    
C54   H30   S    
N8    H28   S    
C56   H32   S    
C16   N4    S    
C29   H17   S    
C24   C28   A    
C38   N6    S    
N1    H10   S    
C25   C26   A    
C4    O14   A    
C12   C19   A    
C3    C33   S    
C43   C55   A    
O4    V2    S    
