data_mof_unit_58158.cif
_audit_creation_date              2012-12-10T17:37:45-0500
_audit_creation_method            fapswitch 2.2
_symmetry_space_group_name_H-M    P1
_symmetry_Int_Tables_number       1
_space_group_crystal_system       triclinic
_cell_length_a                    12.327077
_cell_length_b                    13.135164
_cell_length_c                    17.324213
_cell_angle_alpha                 105.149141
_cell_angle_beta                  74.869887
_cell_angle_gamma                 116.482255
_cell_volume                      2389.39332837

loop_
_atom_site_label
_atom_site_type_symbol
_atom_type_description
_atom_site_fract_x
_atom_site_fract_y
_atom_site_fract_z
_atom_type_partial_charge
C1    C     C_R   0.144157 0.714005 0.508823 0.775181
C2    C     C_R   0.886643 0.522933 0.796515 -0.197902
C3    C     C_R   0.970474 0.559026 0.161324 -0.200555
C4    C     C_R   0.956823 0.550064 0.241459 -0.209208
C5    C     C_R   0.108860 0.468305 0.203679 -0.239961
C6    C     C_R   0.122902 0.475812 0.122329 0.191160
C7    C     C_R   0.051821 0.521065 0.101169 0.166715
C8    C     C_2   0.959370 0.496657 0.985440 -0.243398
C9    C     C_2   0.060492 0.528137 0.016653 -0.223905
C10   C     C_R   0.025649 0.504528 0.263118 -0.058203
C11   C     C_R   0.723013 0.974255 0.377092 -0.217734
C12   C     C_R   0.987007 0.502433 0.652067 0.788171
C13   C     C_R   0.775347 0.162459 0.463270 -0.083626
C14   C     C_R   0.182250 0.915642 0.573325 -0.190989
C15   C     C_R   0.262062 0.029808 0.593248 -0.148325
C16   C     C_R   0.386540 0.066737 0.560511 -0.183144
C17   C     C_R   0.433313 0.990305 0.503872 0.090062
C18   C     C_R   0.348729 0.877264 0.477290 0.081938
C19   C     C_R   0.560733 0.022279 0.471857 0.073637
C20   C     C_R   0.598910 0.944749 0.409794 0.130322
C21   C     C_R   0.512636 0.839298 0.378632 -0.229428
C22   C     C_R   0.389288 0.806763 0.410871 -0.195371
C23   C     C_R   0.856370 0.285524 0.484510 0.808416
C24   C     C_R   0.651480 0.128640 0.499601 -0.293015
C25   C     C_R   0.812321 0.082887 0.401652 0.158815
C26   C     C_R   0.225049 0.837727 0.517229 -0.102546
C27   C     C_R   0.639697 0.672250 0.631675 -0.303509
C28   C     C_R   0.254348 0.357021 0.386593 0.051754
C29   C     C_R   0.353527 0.325415 0.362238 -0.258452
C30   C     C_R   0.450949 0.378242 0.405523 -0.188528
C31   C     C_R   0.450950 0.464858 0.473672 -0.005357
C32   C     C_R   0.346391 0.493740 0.496689 0.291832
C33   C     C_R   0.550824 0.524582 0.519227 -0.038461
C34   C     C_R   0.013838 0.498671 0.348056 0.782441
C35   C     C_R   0.544002 0.611870 0.586195 0.177567
C36   C     C_R   0.441979 0.638914 0.607410 -0.286554
C37   C     C_R   0.345706 0.581375 0.563752 -0.190574
C38   C     C_R   0.658196 0.502351 0.501483 0.017538
C39   C     C_R   0.742284 0.646249 0.611087 0.066897
C40   C     C_R   0.979092 0.500375 0.737281 -0.028907
C41   C     C_R   0.063421 0.473541 0.759757 -0.209293
C42   C     C_R   0.056539 0.470697 0.840309 -0.155295
C43   C     C_R   0.966170 0.496242 0.899811 0.193133
C44   C     C_R   0.879951 0.520222 0.877433 -0.171926
Cu1   Cu    Cu3+1 0.900140 0.524980 0.518800 0.933193
Cu2   Cu    Cu3+1 0.099860 0.475020 0.481200 0.920762
H1    H     H_    0.134531 0.454087 0.715168 0.159588
H2    H     H_    0.540571 0.781534 0.328761 0.141753
H3    H     H_    0.749844 0.913779 0.329064 0.129483
H4    H     H_    0.627955 0.188602 0.549048 0.156398
H5    H     H_    0.087544 0.887435 0.603808 0.147504
H6    H     H_    0.442891 0.156132 0.579580 0.129847
H7    H     H_    0.227967 0.089386 0.636465 0.140009
H8    H     H_    0.326096 0.726472 0.381736 0.170363
H9    H     H_    0.816331 0.692542 0.646030 0.118306
H10   H     H_    0.893439 0.580242 0.286542 0.160896
H11   H     H_    0.436472 0.705914 0.658455 0.153060
H12   H     H_    0.635131 0.739225 0.682905 0.134911
H13   H     H_    0.671012 0.437348 0.451823 0.124583
H14   H     H_    0.181214 0.317838 0.351446 0.138316
H15   H     H_    0.525454 0.350632 0.383789 0.135781
H16   H     H_    0.355272 0.260265 0.309208 0.143705
H17   H     H_    0.272882 0.609666 0.584588 0.207716
H18   H     H_    0.161888 0.432651 0.220470 0.149564
H19   H     H_    0.150469 0.555406 0.978937 0.149309
H20   H     H_    0.808817 0.538629 0.922739 0.121628
H21   H     H_    0.917726 0.596561 0.146378 0.138849
H22   H     H_    0.819871 0.542882 0.780483 0.150197
H23   H     H_    0.869404 0.471367 0.023632 0.150897
H24   H     H_    0.121111 0.447121 0.855556 0.126698
N1    N     N_R   0.749710 0.562810 0.547300 -0.179577
N2    N     N_R   0.249640 0.437820 0.453210 -0.203556
O1    O     O_R   0.025490 0.682370 0.523640 -0.578377
O2    O     O_R   0.194150 0.640180 0.491890 -0.599194
O3    O     O_R   0.905900 0.523560 0.631310 -0.586588
O4    O     O_R   0.074570 0.481370 0.599560 -0.604065
O5    O     O_R   0.805850 0.359820 0.508110 -0.583668
O6    O     O_R   0.974510 0.317630 0.476360 -0.580604
O7    O     O_R   0.925430 0.518630 0.400440 -0.586431
O8    O     O_R   0.094100 0.476440 0.368690 -0.599533
C45   C     C_3   0.210760 0.431697 0.059996 -0.433267
C46   C     C_3   0.141665 0.314761 0.011107 -0.825997
H25   H     H_    0.083715 0.250974 0.052314 0.253160
H26   H     H_    0.082401 0.321416 0.975898 0.257330
H27   H     H_    0.208660 0.283291 0.967929 0.236483
H28   H     H_    0.270611 0.495022 0.018891 0.188994
H29   H     H_    0.273571 0.421241 0.090226 0.196959
C47   C     C_3   0.941487 0.111191 0.354764 -0.402778
C48   C     C_3   0.964144 0.175867 0.286643 -0.830094
H30   H     H_    0.954563 0.258651 0.311660 0.253276
H31   H     H_    0.058000 0.193432 0.251319 0.225447
H32   H     H_    0.896894 0.122883 0.244771 0.249675
H33   H     H_    0.010771 0.158539 0.395309 0.216968
H34   H     H_    0.955439 0.030602 0.326498 0.190707

loop_
_geom_bond_atom_site_label_1
_geom_bond_atom_site_label_2
_ccdc_geom_bond_type
Cu1   N1    S    
C41   C42   A    
C44   H20   S    
C35   C36   A    
C18   C26   A    
C8    C43   S    
Cu2   O4    S    
C45   C46   S    
C22   H8    S    
Cu1   Cu2   S    
C8    H23   S    
C1    O2    A    
C15   H7    S    
C36   C37   A    
C3    C7    A    
C30   C31   A    
C11   C25   A    
C15   C16   A    
C42   H24   S    
C13   C23   S    
Cu1   O1    S    
C34   O8    A    
C47   H33   S    
C39   H9    S    
C31   C32   A    
C2    C44   A    
C8    C9    D    
C31   C33   A    
C48   H31   S    
Cu2   N2    S    
C45   H28   S    
C21   H2    S    
C47   C48   S    
C6    C45   S    
C21   C22   A    
C4    H10   S    
C13   C25   A    
C28   N2    A    
C37   H17   S    
C28   H14   S    
C24   H4    S    
C47   H34   S    
C11   C20   A    
Cu1   O7    S    
C36   H11   S    
C27   C39   A    
Cu2   O6    S    
C16   C17   A    
C27   C35   A    
C25   C47   S    
C23   O5    A    
C5    H18   S    
C12   C40   S    
C43   C44   A    
C29   C30   A    
C11   H3    S    
C34   O7    A    
C14   H5    S    
C17   C18   A    
C41   H1    S    
C10   C34   S    
C32   C37   A    
C14   C26   A    
C48   H32   S    
C45   H29   S    
C40   C41   A    
C46   H26   S    
C12   O4    A    
C1    C26   S    
C12   O3    A    
C42   C43   A    
C4    C10   A    
C3    C4    A    
Cu2   O2    S    
C7    C9    S    
C29   H16   S    
C28   C29   A    
C18   C22   A    
C3    H21   S    
C16   H6    S    
C27   H12   S    
C6    C7    A    
C46   H27   S    
C2    H22   S    
C33   C38   A    
Cu1   O3    S    
C1    O1    A    
C19   C20   A    
C19   C24   A    
C5    C10   A    
Cu2   O8    S    
C5    C6    A    
C33   C35   A    
C23   O6    A    
C9    H19   S    
C38   H13   S    
C17   C19   A    
C2    C40   A    
C20   C21   A    
C13   C24   A    
C46   H25   S    
C30   H15   S    
C39   N1    A    
C14   C15   A    
Cu1   O5    S    
C48   H30   S    
C38   N1    A    
C32   N2    A    
