data_mof_unit_39380.cif
_audit_creation_date              2012-12-10T19:45:49-0500
_audit_creation_method            fapswitch 2.2
_symmetry_space_group_name_H-M    P1
_symmetry_Int_Tables_number       1
_space_group_crystal_system       triclinic
_cell_length_a                    10.924406
_cell_length_b                    14.748393
_cell_length_c                    15.084894
_cell_angle_alpha                 64.559102
_cell_angle_beta                  104.534414
_cell_angle_gamma                 102.61103
_cell_volume                      2107.46806198

loop_
_atom_site_label
_atom_site_type_symbol
_atom_type_description
_atom_site_fract_x
_atom_site_fract_y
_atom_site_fract_z
_atom_type_partial_charge
C1    C     C_R   0.475179 0.120442 0.312828 0.850439
C2    C     C_R   0.518075 0.880032 0.686693 0.849396
C3    C     C_R   0.872034 0.993720 0.505537 -0.105086
C4    C     C_R   0.132073 0.995869 0.512240 -0.114295
C5    C     C_R   0.911839 0.924833 0.479120 0.033391
C6    C     C_R   0.095274 0.054686 0.552366 0.033937
C7    C     C_R   0.441664 0.189990 0.207035 -0.134270
C8    C     C_R   0.518916 0.812631 0.792457 -0.143753
C9    C     C_R   0.313092 0.220258 0.041992 0.369318
C10   C     C_R   0.549173 0.791096 0.964830 0.452440
C11   C     C_R   0.362941 0.153869 0.137329 -0.189353
C12   C     C_R   0.548878 0.853188 0.864479 -0.220390
C13   C     C_R   0.473994 0.294743 0.179161 -0.248900
C14   C     C_R   0.484297 0.708197 0.820838 -0.243567
C15   C     C_R   0.430890 0.364107 0.082040 0.052767
C16   C     C_R   0.479854 0.642774 0.921286 0.039332
C17   C     C_R   0.356743 0.325332 0.011002 -0.003464
C18   C     C_R   0.519425 0.684547 0.994687 0.024182
C19   C     C_R   0.460121 0.471067 0.053467 0.106098
C20   C     C_R   0.439056 0.536754 0.950719 0.085393
C21   C     C_R   0.373374 0.494868 0.881007 -0.196097
C22   C     C_R   0.503656 0.514564 0.124539 -0.234725
C23   C     C_R   0.263937 0.997981 0.504962 0.811407
C24   C     C_R   0.737602 0.998317 0.501139 0.825517
C25   C     C_R   0.330629 0.392169 0.911086 -0.140194
C26   C     C_R   0.528687 0.618876 0.095565 -0.144573
C27   C     C_R   0.692101 0.277955 0.679185 -0.277848
C28   C     C_R   0.307392 0.721474 0.321223 -0.235686
C29   C     C_R   0.674875 0.201362 0.645403 0.580206
C30   C     C_R   0.322748 0.796905 0.356392 0.581130
C31   C     C_R   0.519978 0.286614 0.507344 -0.074253
C32   C     C_R   0.482858 0.714712 0.490856 -0.053881
C33   C     C_R   0.543898 0.370083 0.536292 0.007454
C34   C     C_R   0.459189 0.631237 0.461769 0.000762
C35   C     C_R   0.627625 0.361059 0.626509 0.103286
C36   C     C_R   0.373756 0.639485 0.372464 0.082543
C37   C     C_R   0.487874 0.461291 0.480340 0.125014
C38   C     C_R   0.516170 0.540395 0.517178 0.128055
C39   C     C_R   0.596340 0.524461 0.609918 -0.136413
C40   C     C_R   0.406304 0.476708 0.388164 -0.224456
C41   C     C_R   0.649740 0.435780 0.663853 -0.073707
C42   C     C_R   0.350114 0.564280 0.335532 -0.111463
C43   C     C_R   0.363760 0.103820 0.747684 -0.169530
C44   C     C_R   0.699812 0.776056 0.337014 -0.210316
C45   C     C_R   0.277862 0.054763 0.691847 -0.103077
C46   C     C_R   0.743950 0.854751 0.369519 -0.092614
C47   C     C_R   0.187371 0.107260 0.611556 0.050553
C48   C     C_R   0.831378 0.838767 0.458653 0.052845
C49   C     C_R   0.179159 0.207732 0.592497 -0.232534
C50   C     C_R   0.870542 0.742263 0.515480 -0.299940
C51   C     C_R   0.261269 0.256420 0.650969 0.479474
C52   C     C_R   0.836368 0.666541 0.478432 0.484567
C53   C     C_R   0.356802 0.204856 0.728114 0.137346
C54   C     C_R   0.751133 0.683873 0.387583 0.117089
C55   C     C_R   0.965246 0.057278 0.542594 -0.188994
C56   C     C_R   0.039993 0.931892 0.477534 -0.199488
Cu1   Cu    Cu3+1 0.466270 0.918260 0.475690 1.011786
Cu2   Cu    Cu3+1 0.533730 0.081740 0.524310 1.008398
H1    H     H_    0.347306 0.540578 0.802645 0.178948
H2    H     H_    0.512199 0.469711 0.203704 0.143415
H3    H     H_    0.710481 0.426062 0.735430 0.146367
H4    H     H_    0.285880 0.572610 0.265537 0.159311
H5    H     H_    0.555408 0.718188 0.552873 0.144931
H6    H     H_    0.449385 0.284030 0.444065 0.147859
H7    H     H_    0.760305 0.274300 0.746474 0.197317
H8    H     H_    0.236641 0.723313 0.255705 0.203954
H9    H     H_    0.618074 0.578324 0.644008 0.125788
H10   H     H_    0.383827 0.422680 0.354249 0.129820
H11   H     H_    0.434570 0.062314 0.807524 0.191809
H12   H     H_    0.630268 0.788509 0.269817 0.235648
H13   H     H_    0.283114 0.975971 0.710389 0.129410
H14   H     H_    0.714563 0.928929 0.323001 0.158432
H15   H     H_    0.106866 0.247820 0.532789 0.188745
H16   H     H_    0.941072 0.730447 0.583084 0.198854
H17   H     H_    0.937066 0.105608 0.569264 0.222223
H18   H     H_    0.068379 0.882637 0.452227 0.233771
H19   H     H_    0.281937 0.365451 0.853834 0.220354
H20   H     H_    0.557654 0.647106 0.153707 0.192061
H21   H     H_    0.464908 0.679005 0.763660 0.172008
H22   H     H_    0.536524 0.320705 0.233670 0.167786
H23   H     H_    0.572820 0.934046 0.842228 0.234004
H24   H     H_    0.334748 0.073585 0.158406 0.251939
N1    N     N_R   0.584450 0.204570 0.560790 -0.245684
N2    N     N_R   0.415550 0.795430 0.439210 -0.246374
O1    O     O_R   0.455540 0.022090 0.338120 -0.542842
O2    O     O_R   0.544460 0.977910 0.661880 -0.541966
O3    O     O_R   0.512510 0.160150 0.379180 -0.600310
O4    O     O_R   0.487490 0.839850 0.620820 -0.600732
O5    O     O_R   0.291160 0.930970 0.479480 -0.522107
O6    O     O_R   0.708840 0.069030 0.520520 -0.524101
O7    O     O_R   0.348130 0.069020 0.520540 -0.599087
O8    O     O_R   0.651870 0.930980 0.479460 -0.607015
N3    N     N_3   0.445869 0.254270 0.786365 -0.542963
H25   H     H_    0.516894 0.208842 0.832950 0.230225
H26   H     H_    0.397048 0.262434 0.833080 0.266983
N4    N     N_3   0.721935 0.610889 0.344064 -0.510286
H27   H     H_    0.623103 0.595998 0.326977 0.202019
H28   H     H_    0.756746 0.643593 0.277102 0.272686
S1    S     S_3+6 0.183562 0.168117 0.972366 0.031218
O9    O     O_2   0.100539 0.246261 0.896914 -0.264000
O10   O     O_2   0.233891 0.120299 0.920952 -0.280558
O11   O     O_3   0.092755 0.078320 0.051390 -0.468235
H29   H     H_    0.025665 0.049659 0.009260 0.419938
S2    S     S_3+6 0.585780 0.851007 0.049291 -0.028352
O12   O     O_2   0.482064 0.815847 0.110433 -0.346205
O13   O     O_2   0.711225 0.822742 0.115699 -0.304085
O14   O     O_3   0.597066 0.977689 0.988637 -0.519010
H30   H     H_    0.615060 0.003758 0.041761 0.381003
S3    S     S_3+6 0.199416 0.877166 0.292521 0.031645
O15   O     O_2   0.180889 0.897367 0.183792 -0.258297
O16   O     O_2   0.079463 0.816012 0.329393 -0.294730
O17   O     O_3   0.214592 0.989673 0.299119 -0.540376
H31   H     H_    0.131116 0.015008 0.265753 0.379621
S4    S     S_3+6 0.786254 0.111695 0.719984 0.028551
O18   O     O_2   0.916652 0.169018 0.706014 -0.247899
O19   O     O_2   0.776214 0.080420 0.827085 -0.282840
O20   O     O_3   0.779578 0.005191 0.703758 -0.538829
H32   H     H_    0.851696 0.970918 0.752579 0.368395
S5    S     S_3+6 0.232792 0.378067 0.629561 0.035439
O21   O     O_2   0.346479 0.433729 0.672987 -0.350727
O22   O     O_2   0.198589 0.438509 0.519437 -0.240850
O23   O     O_3   0.108545 0.363800 0.682998 -0.432003
H33   H     H_    0.126813 0.419564 0.706162 0.386655
S6    S     S_3+6 0.918692 0.559388 0.540231 0.041322
O24   O     O_2   0.847841 0.472294 0.513769 -0.260963
O25   O     O_2   0.047155 0.587355 0.509904 -0.186040
O26   O     O_3   0.939428 0.526364 0.664073 -0.579283
H34   H     H_    0.920182 0.451713 0.693500 0.375034

loop_
_geom_bond_atom_site_label_1
_geom_bond_atom_site_label_2
_ccdc_geom_bond_type
C1    O3    A    
C29   S4    S    
N3    H25   S    
C56   H18   S    
Cu1   O8    S    
C45   H13   S    
C5    C56   A    
C36   C42   A    
C19   C20   A    
C18   C26   A    
C41   H3    S    
C6    C55   A    
Cu2   O3    S    
S2    O13   D    
S4    O18   D    
C39   C41   A    
C15   C19   A    
C26   H20   S    
Cu1   O5    S    
C25   H19   S    
C29   N1    A    
C37   C40   A    
C46   H14   S    
S3    O16   D    
C22   H2    S    
C38   C39   A    
C27   C29   A    
Cu2   N1    S    
Cu2   O2    S    
C31   N1    A    
S2    O12   D    
C3    C55   A    
C43   C53   A    
C44   C46   A    
C49   C51   A    
N4    H28   S    
C51   S5    S    
O14   H30   S    
C23   O5    A    
C44   H12   S    
C14   C16   A    
Cu2   O7    S    
C42   H4    S    
C54   N4    S    
C16   C20   A    
C55   H17   S    
C40   C42   A    
C13   H22   S    
C43   H11   S    
C1    C7    S    
C4    C56   A    
C3    C24   S    
C24   O8    A    
O17   H31   S    
C52   C54   A    
C7    C11   A    
C45   C47   A    
C11   H24   S    
C1    O1    A    
C32   N2    A    
C5    C48   S    
C46   C48   A    
C6    C47   S    
C30   S3    S    
C53   N3    S    
C19   C22   A    
C4    C6    A    
S3    O17   S    
C4    C23   S    
C27   C35   A    
C33   C37   A    
C51   C53   A    
C32   C34   A    
C28   H8    S    
C37   C38   A    
C27   H7    S    
C43   C45   A    
C50   C52   A    
S1    O9    D    
C8    C12   A    
N4    H27   S    
C31   C33   A    
Cu1   N2    S    
C16   C18   A    
C14   H21   S    
C2    O4    A    
C48   C50   A    
C9    C11   A    
C50   H16   S    
S5    O22   D    
C10   C12   A    
Cu2   O6    S    
S6    O26   S    
C9    C17   A    
S1    O10   D    
C13   C15   A    
C40   H10   S    
C49   H15   S    
O26   H34   S    
S6    O25   D    
S5    O23   S    
C15   C17   A    
C21   C25   A    
C8    C14   A    
C34   C38   A    
C39   H9    S    
C31   H6    S    
C2    C8    S    
C32   H5    S    
C3    C5    A    
C24   O6    A    
S4    O19   D    
S5    O21   D    
C21   H1    S    
C47   C49   A    
C9    S1    S    
Cu1   O4    S    
C17   C25   A    
C10   S2    S    
O20   H32   S    
C52   S6    S    
Cu1   Cu2   S    
C10   C18   A    
C28   C30   A    
C33   C35   A    
C34   C36   A    
Cu1   O1    S    
C12   H23   S    
C2    O2    A    
C23   O7    A    
C30   N2    A    
O11   H29   S    
C35   C41   A    
S4    O20   S    
C44   C54   A    
C7    C13   A    
S1    O11   S    
C20   C21   A    
C28   C36   A    
N3    H26   S    
C22   C26   A    
O23   H33   S    
S3    O15   D    
S2    O14   S    
S6    O24   D    
