data_mof_unit_49632.cif
_audit_creation_date              2012-12-11T15:44:52-0500
_audit_creation_method            fapswitch 2.2
_symmetry_space_group_name_H-M    P1
_symmetry_Int_Tables_number       1
_space_group_crystal_system       triclinic
_cell_length_a                    6.931228
_cell_length_b                    16.801775
_cell_length_c                    17.19475
_cell_angle_alpha                 100.281544
_cell_angle_beta                  88.78817
_cell_angle_gamma                 91.427592
_cell_volume                      1969.39817996

loop_
_atom_site_label
_atom_site_type_symbol
_atom_type_description
_atom_site_fract_x
_atom_site_fract_y
_atom_site_fract_z
_atom_type_partial_charge
O1    O     O_R   0.494370 0.415690 0.413450 -0.511289
O2    O     O_R   0.819420 0.429360 0.578420 -0.515979
O3    O     O_R   0.994280 0.584310 0.586550 -0.516779
C1    C     C_R   0.647367 0.412694 0.604173 0.804205
O4    O     O_R   0.823790 0.406230 0.413570 -0.507336
O5    O     O_R   0.998670 0.561000 0.420530 -0.546905
C2    C     C_R   0.655286 0.383642 0.384181 0.781467
O6    O     O_R   0.489970 0.439000 0.579470 -0.553265
O7    O     O_3   0.662300 0.550810 0.502470 -0.378148
V1    V     V_3+5 0.935380 0.490570 0.499540 1.642406
O8    O     O_R   0.328650 0.570640 0.421580 -0.542851
C3    C     C_R   0.161293 0.587947 0.396395 0.841928
O9    O     O_R   0.324290 0.593770 0.586430 -0.525475
C4    C     C_R   0.155083 0.616217 0.615757 0.808966
V2    V     V_3+5 0.435930 0.509430 0.500460 1.588370
O10   O     O_3   0.159140 0.449190 0.497530 -0.351314
C5    C     C_R   0.297041 0.742304 0.699863 0.365023
C6    C     C_R   0.283826 0.808281 0.762787 0.307706
C7    C     C_R   0.117541 0.818401 0.812600 -0.357670
C8    C     C_R   0.959322 0.763566 0.794500 0.367840
C9    C     C_R   0.973451 0.696948 0.732272 0.281994
C10   C     C_R   0.142712 0.685231 0.684029 -0.345365
C11   C     C_R   0.154675 0.640924 0.335458 -0.244762
C12   C     C_R   0.106617 0.863436 0.167803 -0.204353
C13   C     C_R   0.039945 0.854313 0.306281 0.482234
C14   C     C_R   0.037656 0.896913 0.243128 -0.287736
C15   C     C_R   0.174361 0.783547 0.154360 0.414037
C16   C     C_R   0.167710 0.737988 0.216335 -0.091018
C17   C     C_R   0.108397 0.773389 0.294492 -0.060876
C18   C     C_R   0.118651 0.725019 0.355499 0.323633
C19   C     C_R   0.174384 0.606074 0.255517 0.360241
C20   C     C_R   0.206322 0.655207 0.199180 -0.216458
H1    H     H_    0.243711 0.625866 0.140008 0.187180
H2    H     H_    0.982203 0.957749 0.253129 0.173382
C21   C     C_R   0.625702 0.359519 0.664784 -0.188930
C22   C     C_R   0.640071 0.135871 0.831594 -0.153542
C23   C     C_R   0.810614 0.167791 0.715045 -0.159677
C24   C     C_R   0.780649 0.117234 0.770679 0.400473
C25   C     C_R   0.532093 0.206313 0.835056 -0.212817
C26   C     C_R   0.563086 0.257919 0.779024 0.014309
C27   C     C_R   0.699535 0.236929 0.716666 -0.076844
C28   C     C_R   0.721293 0.285075 0.656637 0.405706
C29   C     C_R   0.494201 0.380476 0.727984 -0.304761
C30   C     C_R   0.462042 0.330637 0.784738 0.432726
H3    H     H_    0.414088 0.435797 0.733058 0.164576
H4    H     H_    0.921611 0.152243 0.669970 0.183621
H5    H     H_    0.427921 0.221890 0.882919 0.181570
C31   C     C_R   0.786929 0.255100 0.299850 0.370895
C32   C     C_R   0.773606 0.192499 0.234253 -0.202308
H6    H     H_    0.883205 0.146707 0.225344 0.189078
C33   C     C_R   0.620343 0.187045 0.181369 -0.246867
C34   C     C_R   0.479357 0.247395 0.194339 0.356442
C35   C     C_R   0.490190 0.309973 0.260695 0.345687
C36   C     C_R   0.644221 0.315307 0.314636 -0.306566
O11   O     O_R   0.774880 0.061150 0.920630 -0.517695
O12   O     O_R   0.440980 0.093710 0.086500 -0.515853
O13   O     O_R   0.266190 0.938890 0.079390 -0.536601
C37   C     C_R   0.609971 0.117753 0.113957 0.764988
O14   O     O_R   0.445420 0.070740 0.921670 -0.527814
O15   O     O_R   0.270660 0.915760 0.913380 -0.525753
C38   C     C_R   0.617363 0.085694 0.894552 0.817061
O16   O     O_R   0.770400 0.084270 0.086640 -0.550284
O17   O     O_3   0.602590 0.949210 0.997500 -0.374761
V3    V     V_3+5 0.329470 0.009420 0.000470 1.600185
O18   O     O_R   0.940650 0.906250 0.913470 -0.510677
C39   C     C_R   0.109018 0.885226 0.882991 0.837206
O19   O     O_R   0.936210 0.929220 0.078300 -0.563129
C40   C     C_R   0.103024 0.912656 0.104057 0.706560
V4    V     V_3+5 0.828930 0.990510 0.999490 1.565096
O20   O     O_3   0.105680 0.050790 0.002500 -0.357789
O21   O     O_3   0.470126 0.730798 0.658318 -0.496575
C41   C     C_3   0.468893 0.770505 0.592596 0.150800
H7    H     H_    0.392984 0.829358 0.604800 0.171519
H8    H     H_    0.399596 0.730390 0.542260 0.147640
C42   C     C_3   0.676060 0.786919 0.568472 -0.474880
H9    H     H_    0.754390 0.729098 0.554515 0.229476
H10   H     H_    0.678019 0.816132 0.515404 0.227117
H11   H     H_    0.750146 0.827623 0.617379 0.259587
O22   O     O_3   0.254229 0.749962 0.081654 -0.562956
C43   C     C_3   0.107640 0.723287 0.026322 0.078492
H12   H     H_    0.131026 0.755768 0.976046 0.098254
H13   H     H_    0.957624 0.735342 0.049729 0.094659
C44   C     C_3   0.123080 0.632565 0.994933 -0.778894
H14   H     H_    0.035880 0.597763 0.032751 0.201438
H15   H     H_    0.068233 0.617201 0.933912 0.189124
H16   H     H_    0.274910 0.613113 0.993780 0.235270
O23   O     O_3   0.831162 0.259515 0.588735 -0.553816
C45   C     C_3   0.735488 0.194356 0.538996 0.098190
H17   H     H_    0.693196 0.143663 0.569761 0.137148
H18   H     H_    0.838766 0.168945 0.491364 0.214877
C46   C     C_3   0.557635 0.221248 0.500366 -0.663630
H19   H     H_    0.594217 0.275249 0.474388 0.209460
H20   H     H_    0.506777 0.171971 0.452868 0.220186
H21   H     H_    0.438916 0.235794 0.544612 0.210868
O24   O     O_3   0.324385 0.351322 0.843834 -0.547121
C47   C     C_3   0.404926 0.410173 0.904103 0.077395
H22   H     H_    0.424474 0.469121 0.883585 0.129762
H23   H     H_    0.546547 0.390925 0.923361 0.122980
C48   C     C_3   0.268529 0.421895 0.975520 -0.671698
H24   H     H_    0.247023 0.363828 0.997194 0.258210
H25   H     H_    0.330449 0.467667 0.023719 0.187984
H26   H     H_    0.126689 0.442862 0.959206 0.219045
Cl1   Cl    Cl    0.918395 0.028819 0.759019 -0.581360
Cl2   Cl    Cl    0.983271 0.252257 0.362796 -0.597365
Cl3   Cl    Cl    0.292607 0.249020 0.125674 -0.634083
Cl4   Cl    Cl    0.474584 0.881388 0.772038 -0.517746
Cl5   Cl    Cl    0.309264 0.382715 0.272974 -0.538664
O25   O     O_3   0.780245 0.780270 0.830127 -0.476940
C49   C     C_3   0.753576 0.738961 0.894215 0.190057
H27   H     H_    0.809487 0.777352 0.948330 0.082796
H28   H     H_    0.823284 0.679008 0.884666 0.099924
C50   C     C_3   0.539659 0.725031 0.907949 -0.609931
H29   H     H_    0.475249 0.686348 0.855324 0.227972
H30   H     H_    0.520640 0.694577 0.959725 0.175767
H31   H     H_    0.465341 0.783703 0.920464 0.229310
Cl6   Cl    Cl    0.775208 0.627247 0.720150 -0.622475
Cl7   Cl    Cl    0.093505 0.765622 0.456990 -0.689071
O26   O     O_3   0.148154 0.523825 0.230790 -0.516528
C51   C     C_3   0.955117 0.509697 0.205140 0.123650
H32   H     H_    0.922666 0.544334 0.157561 0.092423
H33   H     H_    0.851705 0.527019 0.255501 0.113720
C52   C     C_3   0.921314 0.420522 0.171410 -0.560175
H34   H     H_    0.932608 0.383855 0.218577 0.260628
H35   H     H_    0.774209 0.411014 0.146547 0.156311
H36   H     H_    0.028897 0.400075 0.123767 0.252223
Cl8   Cl    Cl    0.935342 0.905785 0.394883 -0.556902

loop_
_geom_bond_atom_site_label_1
_geom_bond_atom_site_label_2
_ccdc_geom_bond_type
C37   O16   A    
O23   C45   S    
O24   C47   S    
C27   C28   A    
C7    C8    A    
C12   C15   A    
C1    O6    A    
C50   H30   S    
C35   C36   A    
C31   C36   A    
C3    C11   S    
O14   V3    S    
C17   C18   A    
C16   C17   A    
C23   C24   A    
C12   C14   A    
C15   O22   S    
C9    Cl6   S    
C13   Cl8   S    
O5    C3    A    
V2    O10   S    
C31   Cl2   S    
C47   C48   S    
O25   C49   S    
C7    C39   S    
C6    C7    A    
C32   H6    S    
C21   C28   A    
O26   C51   S    
O8    V2    S    
C14   H2    S    
O17   V4    S    
C32   C33   A    
C47   H23   S    
O12   V3    S    
O1    V2    S    
V3    O20   S    
C21   C29   A    
O7    V1    S    
C1    C21   S    
O15   C39   A    
O9    C4    A    
C41   C42   S    
C50   H29   S    
C51   H33   S    
C13   C17   A    
O14   C38   A    
O19   C40   A    
C11   C18   A    
C16   C20   A    
C41   H8    S    
C49   C50   S    
C46   H19   S    
O4    C2    A    
C41   H7    S    
C13   C14   A    
O17   V3    S    
C22   C25   A    
C33   C34   A    
O16   V4    S    
O19   V4    S    
C11   C19   A    
O2    C1    A    
C42   H9    S    
C6    Cl4   S    
C19   O26   S    
C24   Cl1   S    
C46   H20   S    
C42   H10   S    
C35   Cl5   S    
C44   H14   S    
C45   C46   S    
O8    C3    A    
C47   H22   S    
C48   H26   S    
C5    C6    A    
C33   C37   S    
C8    C9    A    
C29   H3    S    
O11   V4    S    
O3    C4    A    
C43   H13   S    
C26   C27   A    
C48   H25   S    
C45   H18   S    
C34   Cl3   S    
C5    O21   S    
O6    V2    S    
O9    V2    S    
C29   C30   A    
O13   C40   A    
C52   H35   S    
C22   C38   S    
O2    V1    S    
C25   C26   A    
C34   C35   A    
O13   V3    S    
C25   H5    S    
C51   C52   S    
C31   C32   A    
C44   H15   S    
O1    C2    A    
C19   C20   A    
C43   H12   S    
O5    V1    S    
C51   H32   S    
C52   H34   S    
C18   Cl7   S    
C5    C10   A    
C48   H24   S    
O15   V3    S    
C20   H1    S    
C4    C10   S    
C52   H36   S    
C49   H28   S    
O7    V2    S    
O4    V1    S    
C30   O24   S    
V1    O10   S    
C49   H27   S    
C46   H21   S    
O18   V4    S    
O11   C38   A    
C22   C24   A    
C43   C44   S    
O12   C37   A    
C23   C27   A    
V4    O20   S    
C42   H11   S    
C12   C40   S    
O22   C43   S    
C26   C30   A    
C44   H16   S    
O21   C41   S    
C45   H17   S    
O18   C39   A    
C15   C16   A    
O3    V1    S    
C28   O23   S    
C2    C36   S    
C23   H4    S    
C9    C10   A    
C50   H31   S    
C8    O25   S    
