data_mof_unit_31318.cif
_audit_creation_date              2012-12-10T21:07:43-0500
_audit_creation_method            fapswitch 2.2
_symmetry_space_group_name_H-M    P1
_symmetry_Int_Tables_number       1
_space_group_crystal_system       triclinic
_cell_length_a                    8.600646
_cell_length_b                    17.462887
_cell_length_c                    16.716958
_cell_angle_alpha                 90.174537
_cell_angle_beta                  98.356145
_cell_angle_gamma                 90.491931
_cell_volume                      2483.98569138

loop_
_atom_site_label
_atom_site_type_symbol
_atom_type_description
_atom_site_fract_x
_atom_site_fract_y
_atom_site_fract_z
_atom_type_partial_charge
C1    C     C_R   0.516268 0.353215 0.501077 0.851943
C2    C     C_R   0.492443 0.647483 0.499561 0.852408
C3    C     C_1   0.608151 0.965424 0.523859 -0.033213
C4    C     C_1   0.616874 0.033188 0.522450 -0.031537
C5    C     C_R   0.377604 0.466487 0.823301 -0.413112
C6    C     C_R   0.617393 0.531868 0.174767 -0.412749
C7    C     C_R   0.381570 0.464723 0.739613 0.835527
C8    C     C_R   0.619972 0.532095 0.258976 0.829844
C9    C     C_R   0.620146 0.535234 0.756756 -0.150449
C10   C     C_R   0.372883 0.469502 0.244459 -0.139249
C11   C     C_R   0.624005 0.536928 0.841882 -0.070474
C12   C     C_R   0.362641 0.469201 0.159073 -0.058007
C13   C     C_R   0.498301 0.502731 0.875613 0.015533
C14   C     C_R   0.489348 0.500050 0.123545 0.005870
C15   C     C_1   0.493588 0.501451 0.963055 -0.032593
C16   C     C_1   0.490558 0.501022 0.035846 -0.037898
C17   C     C_R   0.201034 0.498827 0.479318 0.890082
C18   C     C_R   0.798865 0.499106 0.520732 0.868281
C19   C     C_2   0.037580 0.492689 0.468248 0.280183
C20   C     C_2   0.962405 0.501284 0.532258 0.255638
C21   C     C_R   0.519156 0.848549 0.583665 -0.025964
C22   C     C_R   0.587787 0.147812 0.438769 -0.023483
C23   C     C_R   0.472870 0.771167 0.573829 -0.068833
C24   C     C_R   0.566116 0.227582 0.432920 -0.081392
C25   C     C_R   0.493393 0.731936 0.501221 -0.160258
C26   C     C_R   0.560535 0.271331 0.504689 -0.158152
C27   C     C_R   0.533937 0.774051 0.434623 -0.022367
C28   C     C_R   0.602953 0.235684 0.581182 -0.015746
C29   C     C_R   0.582857 0.849751 0.446595 -0.238645
C30   C     C_R   0.621582 0.156925 0.585298 -0.225551
C31   C     C_R   0.580213 0.885568 0.520603 0.071587
C32   C     C_R   0.610517 0.113704 0.515252 0.072697
H1    H     H_    0.614908 0.882621 0.396315 0.158370
H2    H     H_    0.648576 0.129158 0.643654 0.150918
H3    H     H_    0.281680 0.438287 0.847302 0.167876
H4    H     H_    0.714226 0.557916 0.149591 0.174337
H5    H     H_    0.714060 0.562058 0.730031 0.169307
H6    H     H_    0.278904 0.444486 0.272554 0.182772
N1    N     N_R   0.500040 0.500030 0.707230 -0.132759
N2    N     N_R   0.499960 0.499970 0.292770 -0.141818
O1    O     O_R   0.500000 0.389130 0.566570 -0.584379
O2    O     O_R   0.500000 0.610870 0.433430 -0.592607
O3    O     O_R   0.499990 0.389100 0.433480 -0.617920
O4    O     O_R   0.500010 0.610900 0.566520 -0.612635
O5    O     O_R   0.271750 0.500010 0.550980 -0.527573
O6    O     O_R   0.728250 0.499990 0.449020 -0.530740
O7    O     O_R   0.271740 0.499980 0.417890 -0.614910
O8    O     O_R   0.728260 0.500020 0.582110 -0.617929
Zn1   Zn    Zn3+2 0.500010 0.500020 0.588860 1.026083
Zn2   Zn    Zn3+2 0.499990 0.499980 0.411140 1.021955
F1    F     F_    0.964697 0.475277 0.392261 -0.650141
F2    F     F_    0.035326 0.515816 0.608875 -0.657726
C33   C     C_R   0.495953 0.892386 0.657354 0.120522
C34   C     C_R   0.626380 0.918781 0.711026 -0.165629
C35   C     C_R   0.604607 0.961124 0.779577 -0.145871
C36   C     C_R   0.452792 0.977422 0.794866 -0.116416
C37   C     C_R   0.322464 0.951514 0.741545 -0.135317
C38   C     C_R   0.343719 0.909311 0.672830 -0.131176
H7    H     H_    0.744493 0.906489 0.699703 0.123699
H8    H     H_    0.705418 0.981350 0.820819 0.125417
H9    H     H_    0.436152 0.010227 0.847950 0.119420
H10   H     H_    0.204971 0.964330 0.753329 0.123640
H11   H     H_    0.241940 0.890026 0.631587 0.123615
C39   C     C_R   0.590159 0.099650 0.365448 0.125195
C40   C     C_R   0.461783 0.051677 0.337375 -0.163062
C41   C     C_R   0.466116 0.004600 0.269955 -0.148644
C42   C     C_R   0.598213 0.005310 0.230128 -0.120047
C43   C     C_R   0.726168 0.053133 0.257649 -0.140264
C44   C     C_R   0.722549 0.100077 0.325250 -0.133552
H12   H     H_    0.359192 0.050495 0.368045 0.127947
H13   H     H_    0.367339 0.967378 0.248756 0.131745
H14   H     H_    0.601519 0.968723 0.178037 0.122689
H15   H     H_    0.828462 0.053558 0.226823 0.124033
H16   H     H_    0.822842 0.136397 0.346548 0.121371
C45   C     C_R   0.392334 0.733824 0.636702 0.151888
C46   C     C_R   0.470258 0.724232 0.715911 -0.107459
C47   C     C_R   0.391006 0.691845 0.775060 -0.156175
C48   C     C_R   0.234590 0.668012 0.755463 -0.112256
C49   C     C_R   0.156594 0.677015 0.676786 -0.048199
C50   C     C_R   0.235070 0.709569 0.617450 -0.162822
H17   H     H_    0.591718 0.742139 0.731786 0.121514
H18   H     H_    0.450812 0.685206 0.836122 0.131273
H19   H     H_    0.173679 0.642814 0.801269 0.136458
H20   H     H_    0.034932 0.659253 0.661914 0.161646
H21   H     H_    0.173020 0.716727 0.556791 0.109697
C51   C     C_R   0.565492 0.263639 0.352558 0.145093
C52   C     C_R   0.699538 0.303726 0.335992 -0.092913
C53   C     C_R   0.708668 0.329549 0.257748 -0.118749
C54   C     C_R   0.585074 0.314781 0.195496 -0.140716
C55   C     C_R   0.450397 0.275925 0.211809 -0.136869
C56   C     C_R   0.440006 0.250744 0.290152 -0.124111
H22   H     H_    0.797988 0.313422 0.383318 0.136350
H23   H     H_    0.812420 0.360056 0.245141 0.161738
H24   H     H_    0.593449 0.333785 0.134710 0.125929
H25   H     H_    0.354679 0.264527 0.163613 0.137507
H26   H     H_    0.336643 0.219249 0.301762 0.121871
C57   C     C_R   0.511715 0.744569 0.350167 0.153264
C58   C     C_R   0.363104 0.717561 0.314303 -0.105453
C59   C     C_R   0.337867 0.695463 0.232942 -0.153113
C60   C     C_R   0.459596 0.701508 0.186294 -0.147312
C61   C     C_R   0.607507 0.728505 0.221233 -0.114685
C62   C     C_R   0.633743 0.749989 0.302799 -0.095573
H27   H     H_    0.266605 0.714298 0.349244 0.118550
H28   H     H_    0.223529 0.674300 0.205858 0.132563
H29   H     H_    0.439668 0.684738 0.123208 0.129665
H30   H     H_    0.701882 0.732762 0.185077 0.120493
H31   H     H_    0.748614 0.771370 0.328876 0.121040
C63   C     C_R   0.649405 0.278822 0.657345 0.132083
C64   C     C_R   0.567089 0.269042 0.723300 -0.116820
C65   C     C_R   0.617262 0.307335 0.796179 -0.150174
C66   C     C_R   0.750115 0.354915 0.803658 -0.171897
C67   C     C_R   0.833153 0.364439 0.738447 -0.102265
C68   C     C_R   0.783308 0.326456 0.665523 -0.083461
H32   H     H_    0.464561 0.231923 0.718169 0.133313
H33   H     H_    0.553122 0.300259 0.846824 0.132030
H34   H     H_    0.788004 0.384911 0.859742 0.142500
H35   H     H_    0.936383 0.401027 0.744323 0.181036
H36   H     H_    0.849367 0.333701 0.615556 0.121909
F3    F     F_    0.267838 0.425708 0.691133 -0.639377
F4    F     F_    0.741393 0.566716 0.306464 -0.629037
C69   C     C_R   0.762689 0.570884 0.893987 0.134720
C70   C     C_R   0.915288 0.547302 0.885114 -0.165798
C71   C     C_R   0.045432 0.574824 0.937531 -0.122734
C72   C     C_R   0.025097 0.627019 0.998507 -0.107283
C73   C     C_R   0.874545 0.652281 0.006749 -0.154840
C74   C     C_R   0.743952 0.624758 0.954589 -0.144476
H37   H     H_    0.933681 0.506503 0.838733 0.131344
H38   H     H_    0.162058 0.555389 0.931084 0.140677
H39   H     H_    0.126003 0.647949 0.039249 0.117260
H40   H     H_    0.858865 0.692992 0.053808 0.120670
H41   H     H_    0.628357 0.645140 0.961970 0.117948
C75   C     C_R   0.219397 0.436257 0.110021 0.134627
C76   C     C_R   0.230576 0.381207 0.049485 -0.156487
C77   C     C_R   0.094942 0.347553 0.007032 -0.159742
C78   C     C_R   0.947172 0.367864 0.025022 -0.117435
C79   C     C_R   0.934482 0.422923 0.084282 -0.117387
C80   C     C_R   0.069557 0.457083 0.126649 -0.151557
H42   H     H_    0.343988 0.362611 0.036485 0.122787
H43   H     H_    0.104564 0.304775 0.961064 0.131962
H44   H     H_    0.842392 0.340442 0.993680 0.117549
H45   H     H_    0.819858 0.438395 0.097893 0.138181
H46   H     H_    0.057216 0.499491 0.172682 0.150325

loop_
_geom_bond_atom_site_label_1
_geom_bond_atom_site_label_2
_ccdc_geom_bond_type
O4    Zn1   S    
C21   C33   S    
C35   C36   A    
C61   C62   A    
C27   C29   A    
C66   C67   A    
C80   H46   S    
C57   C58   A    
C37   C38   A    
C71   C72   A    
C33   C34   A    
C63   C64   A    
C21   C31   A    
C60   H29   S    
C79   H45   S    
C73   C74   A    
C22   C32   A    
C47   H18   S    
C17   O5    A    
C51   C56   A    
C67   H35   S    
C58   H27   S    
C29   H1    S    
C9    N1    A    
C36   C37   A    
C18   C20   S    
C10   N2    A    
C42   H14   S    
C70   H37   S    
C65   C66   A    
C56   H26   S    
C53   H23   S    
C73   H40   S    
C1    O3    A    
C41   H13   S    
C2    O4    A    
C75   C76   A    
C66   H34   S    
C45   C50   A    
C5    C13   A    
C57   C62   A    
C59   H28   S    
C76   H42   S    
C48   H19   S    
C35   H8    S    
C11   C69   S    
C18   O6    A    
O1    Zn1   S    
C67   C68   A    
O7    Zn2   S    
C34   H7    S    
C44   H16   S    
C78   H44   S    
C15   C16   T    
C30   H2    S    
C42   C43   A    
C38   H11   S    
C7    F3    S    
C78   C79   A    
C46   C47   A    
C23   C45   S    
C77   H43   S    
C5    C7    A    
C48   C49   A    
C43   C44   A    
C6    C8    A    
C37   H10   S    
C75   C80   A    
C47   C48   A    
C49   C50   A    
C63   C68   A    
C45   C46   A    
C50   H21   S    
C6    C14   A    
C76   C77   A    
C59   C60   A    
O5    Zn1   S    
C9    H5    S    
C62   H31   S    
C39   C44   A    
C3    C31   S    
C9    C11   A    
C69   C70   A    
C4    C32   S    
C10   C12   A    
C64   H32   S    
O2    Zn2   S    
C1    O1    A    
O8    Zn1   S    
N1    Zn1   S    
C12   C14   A    
C58   C59   A    
C13   C15   S    
C1    C26   S    
C14   C16   S    
C55   C56   A    
C3    C4    T    
C8    F4    S    
C61   H30   S    
C34   C35   A    
C27   C57   S    
C12   C75   S    
C51   C52   A    
C17   O7    A    
C24   C26   A    
C79   C80   A    
C18   O8    A    
C46   H17   S    
C54   H24   S    
C33   C38   A    
O3    Zn2   S    
C77   C78   A    
C25   C27   A    
O6    Zn2   S    
C26   C28   A    
C10   H6    S    
C39   C40   A    
C19   C20   D    
C21   C23   A    
C43   H15   S    
C69   C74   A    
C29   C31   A    
C64   C65   A    
C30   C32   A    
C11   C13   A    
C71   H38   S    
C49   H20   S    
C74   H41   S    
C2    O2    A    
N2    Zn2   S    
C5    H3    S    
C28   C30   A    
C60   C61   A    
C17   C19   S    
C6    H4    S    
C72   H39   S    
C41   C42   A    
C2    C25   S    
C22   C24   A    
C23   C25   A    
C28   C63   S    
C22   C39   S    
C68   H36   S    
C19   F1    S    
C53   C54   A    
C52   C53   A    
C20   F2    S    
C40   C41   A    
C70   C71   A    
C7    N1    A    
C36   H9    S    
C8    N2    A    
C54   C55   A    
C52   H22   S    
C24   C51   S    
C65   H33   S    
C55   H25   S    
C40   H12   S    
C72   C73   A    
