data_mof_unit_59756.cif
_audit_creation_date              2013-03-05T16:01:04-0500
_audit_creation_method            fapswitch 2.2
_symmetry_space_group_name_H-M    P1
_symmetry_Int_Tables_number       1
_space_group_crystal_system       triclinic
_cell_length_a                    8.361194
_cell_length_b                    12.836529
_cell_length_c                    18.657539
_cell_angle_alpha                 99.285114
_cell_angle_beta                  91.463202
_cell_angle_gamma                 98.450409
_cell_volume                      1952.30800901

loop_
_atom_site_label
_atom_site_type_symbol
_atom_site_description
_atom_site_fract_x
_atom_site_fract_y
_atom_site_fract_z
_atom_type_partial_charge
P1    P     P_3+3 0.041040 0.394770 0.336330 0.458859
O1    O     O_2   0.873090 0.425890 0.325140 -0.389390
O2    O     O_3   0.122420 0.434370 0.414380 -0.357962
O3    O     O_3   0.659500 0.627100 0.368810 -0.328108
O4    O     O_2   0.770201 0.541765 0.244374 -0.403734
O5    O     O_3   0.032351 0.256426 0.324497 -0.608187
O6    O     O_3   0.674488 0.722883 0.241469 -0.573661
C1    C     C_3   0.517369 0.827726 0.181970 -0.788174
H1    H     H_    0.620959 0.889554 0.175122 0.269939
H2    H     H_    0.504224 0.765179 0.133309 0.227876
P2    P     P_3+3 0.672880 0.754030 0.556100 0.474795
P3    P     P_3+3 0.134434 0.824361 0.409533 0.481325
O7    O     O_2   0.848200 0.768190 0.534530 -0.389367
O8    O     O_3   0.081160 0.685950 0.404810 -0.372356
O9    O     O_2   0.993015 0.881422 0.439052 -0.378603
O10   O     O_3   0.683469 0.799746 0.650134 -0.562346
O11   O     O_3   0.163066 0.855634 0.321922 -0.567443
C2    C     C_3   0.039812 0.802235 0.270817 0.538952
H3    H     H_    0.929170 0.776360 0.298200 0.193134
C3    C     C_3   0.002425 0.882095 0.220594 -0.089390
H4    H     H_    0.894289 0.917649 0.239093 0.096953
C4    C     C_3   0.293573 0.793760 0.647690 0.201688
H5    H     H_    0.380682 0.741473 0.625712 0.129610
H6    H     H_    0.237224 0.823430 0.601966 0.087204
C5    C     C_3   0.380305 0.886752 0.702536 -0.098212
H7    H     H_    0.469109 0.858769 0.737193 0.126507
H8    H     H_    0.294230 0.921291 0.739927 0.127529
Ba1   Ba    Ba6+2 0.852780 0.548340 0.465070 1.576992
C6    C     C_3   0.887649 0.199293 0.340516 0.631783
H9    H     H_    0.813447 0.249579 0.375190 0.116021
C7    C     C_3   0.798230 0.146858 0.268631 -0.801817
H10   H     H_    0.737211 0.205741 0.245739 0.220612
H11   H     H_    0.707749 0.078792 0.277021 0.305931
H12   H     H_    0.883608 0.115946 0.228744 0.226973
C8    C     C_3   0.781083 0.749059 0.690679 0.644823
H13   H     H_    0.867190 0.707183 0.657205 0.116200
C9    C     C_3   0.874775 0.832985 0.751724 -0.404995
H14   H     H_    0.962302 0.794770 0.780565 0.186891
H15   H     H_    0.789886 0.862860 0.792357 0.201517
P4    P     P_3+3 0.148670 0.605320 0.663680 0.450885
O12   O     O_2   0.316610 0.574140 0.674900 -0.376329
O13   O     O_3   0.067290 0.565720 0.585630 -0.374460
O14   O     O_3   0.530210 0.372990 0.631200 -0.336852
O15   O     O_3   0.169941 0.743495 0.684093 -0.622573
P5    P     P_3+3 0.061503 0.176583 0.595914 0.499930
O16   O     O_3   0.611340 0.366290 0.463630 -0.389589
O17   O     O_3   0.108550 0.314140 0.595200 -0.383533
O18   O     O_2   0.190896 0.123489 0.552411 -0.335626
O19   O     O_3   0.097886 0.155766 0.684906 -0.490863
Ba2   Ba    Ba6+2 0.337060 0.451750 0.534940 1.581971
P6    P     P_3+3 0.632318 0.601452 0.273745 0.452061
C10   C     C_3   0.544493 0.781645 0.251227 0.798666
H16   H     H_    0.429306 0.733325 0.261894 -0.043282
H17   H     H_    0.404541 0.863696 0.184641 0.268251
O20   O     O_3   0.578370 0.633800 0.536380 -0.394323
C11   C     C_3   0.429113 0.254317 0.310673 0.249885
H18   H     H_    0.365557 0.310072 0.347275 0.096804
H19   H     H_    0.523700 0.303520 0.284803 0.037517
C12   C     C_3   0.303205 0.189597 0.252622 -0.048673
H20   H     H_    0.222264 0.130854 0.277851 0.150763
H21   H     H_    0.230167 0.244906 0.232149 0.087841
P7    P     P_3+3 0.520064 0.230109 0.441962 0.454713
O21   O     O_2   0.341510 0.231850 0.465510 -0.357802
O22   O     O_3   0.501496 0.184400 0.347628 -0.546147
H22   H     H_    0.104682 0.949306 0.225908 0.153571
C13   C     C_3   0.052053 0.241310 0.732914 0.529163
H23   H     H_    0.140917 0.314901 0.733155 0.144590
H24   H     H_    0.929066 0.256284 0.717606 -0.027873
C14   C     C_3   0.049999 0.215331 0.809623 -1.021460
H25   H     H_    0.169653 0.196444 0.825931 0.288551
H26   H     H_    0.022838 0.284793 0.848349 0.231188
H27   H     H_    0.954981 0.146205 0.812434 0.253590
P8    P     P_3+3 0.557002 0.392949 0.726063 0.450265
C15   C     C_3   0.587009 0.213441 0.764929 0.430802
H28   H     H_    0.702946 0.257337 0.790602 0.019650
O23   O     O_2   0.445156 0.473121 0.755660 -0.387393
O24   O     O_3   0.468592 0.278230 0.757691 -0.501085
H29   H     H_    0.612476 0.174601 0.710276 0.160929
H30   H     H_    0.520995 0.176848 0.870498 0.231274
C16   C     C_3   0.526639 0.133979 0.814145 -0.865292
H31   H     H_    0.610277 0.074444 0.814745 0.233303
H32   H     H_    0.403354 0.092914 0.795287 0.266542
C17   C     C_R   0.995127 0.446798 0.047879 -0.027027
C18   C     C_R   0.891849 0.397959 0.095767 0.082508
C19   C     C_R   0.727016 0.360928 0.073328 0.251138
C20   C     C_R   0.668987 0.373213 0.004490 -0.219303
C21   C     C_R   0.771547 0.419885 0.956732 0.075385
C22   C     C_R   0.935060 0.456465 0.977896 0.031059
C23   C     C_R   0.712574 0.427316 0.887221 -0.237871
C24   C     C_R   0.817597 0.462010 0.835083 -0.019763
C25   C     C_R   0.979892 0.505811 0.857223 -0.002628
C26   C     C_R   0.037935 0.502962 0.929055 0.003154
C27   C     C_R   0.767131 0.449538 0.760847 0.131538
C28   C     C_R   0.876219 0.484351 0.710766 -0.504179
C29   C     C_R   0.029527 0.541709 0.733267 0.268263
C30   C     C_R   0.084037 0.551821 0.807787 -0.070059
C31   C     C_R   0.158748 0.484999 0.069504 0.014278
C32   C     C_R   0.218049 0.480290 0.140771 0.025076
C33   C     C_R   0.112421 0.437621 0.190838 -0.057129
C34   C     C_R   0.954476 0.389809 0.165316 -0.130105
H33   H     H_    0.542897 0.344884 0.987538 0.147393
H34   H     H_    0.835745 0.474384 0.654177 0.183272
H35   H     H_    0.585309 0.400546 0.873427 0.183216
H36   H     H_    0.877784 0.348609 0.200272 0.164460
C35   C     C_R   0.239971 0.603399 0.834579 -0.131686
C36   C     C_R   0.301515 0.593474 0.903729 0.127067
C37   C     C_R   0.200334 0.542517 0.951083 0.017257
C38   C     C_R   0.261461 0.532025 0.020738 0.033547
C39   C     C_R   0.464391 0.631313 0.925656 -0.164044
C40   C     C_R   0.526347 0.617519 0.993335 -0.166621
C41   C     C_R   0.425590 0.568683 0.041477 0.094146
C42   C     C_R   0.381710 0.521292 0.162468 -0.024877
C43   C     C_R   0.485692 0.559071 0.110698 -0.245237
C44   C     C_R   0.434246 0.527791 0.236155 0.155765
C45   C     C_R   0.326239 0.493405 0.286186 -0.519813
C46   C     C_R   0.167061 0.447481 0.265229 0.240963
H37   H     H_    0.317895 0.647775 0.801284 0.158789
H38   H     H_    0.544910 0.669658 0.889834 0.135269
H39   H     H_    0.653051 0.646126 0.008306 0.188519
H40   H     H_    0.613096 0.585528 0.124476 0.214185
H41   H     H_    0.367391 0.502537 0.342649 0.182594
C47   C     C_R   0.760243 0.181922 0.529814 -0.465446
C48   C     C_R   0.423580 0.811882 0.481064 -0.512291
C49   C     C_R   0.389975 0.988161 0.460878 -0.009555
C50   C     C_R   0.327672 0.880601 0.458385 0.262593
C51   C     C_R   0.579146 0.849676 0.511481 0.351688
C52   C     C_R   0.644035 0.960988 0.517467 0.043899
C53   C     C_R   0.547793 0.030331 0.489995 -0.019649
C54   C     C_R   0.611597 0.140023 0.493162 0.263922
C55   C     C_R   0.856112 0.116121 0.557047 0.156305
C56   C     C_R   0.799731 0.006007 0.550202 -0.074962
H42   H     H_    0.315205 0.036634 0.437161 0.169868
H43   H     H_    0.877533 0.957709 0.571914 0.162431
H44   H     H_    0.807420 0.265743 0.532600 0.168356
H45   H     H_    0.374252 0.728129 0.476664 0.168563
N1    N     N_R   0.584055 0.869029 0.312126 0.200138
O25   O     O_R   0.498898 0.946605 0.320790 -0.416287
O26   O     O_R   0.701579 0.869009 0.358979 -0.438238
N2    N     N_R   0.459644 0.969394 0.665793 0.222445
O27   O     O_R   0.615351 0.995350 0.673664 -0.483490
O28   O     O_R   0.374483 0.028826 0.635553 -0.383496
C57   C     C_3   0.932523 0.112728 0.381100 -0.873336
H46   H     H_    0.008109 0.150376 0.430728 0.250116
H47   H     H_    0.822347 0.063968 0.396155 0.254517
H48   H     H_    0.003773 0.059037 0.347080 0.250187
C58   C     C_3   0.669513 0.669717 0.725523 -0.982870
H49   H     H_    0.625742 0.599455 0.683468 0.290780
H50   H     H_    0.732828 0.646958 0.772061 0.208501
H51   H     H_    0.564253 0.705101 0.747460 0.244004
C59   C     C_3   0.966348 0.929258 0.724047 -0.676704
H52   H     H_    0.054756 0.974996 0.767197 0.229317
H53   H     H_    0.029452 0.904799 0.674113 0.251813
H54   H     H_    0.883122 0.983754 0.711767 0.283761
N3    N     N_R   0.373877 0.132578 0.190434 0.251665
O29   O     O_R   0.311183 0.130292 0.125552 -0.385060
O30   O     O_R   0.464864 0.062026 0.200001 -0.374692
C60   C     C_3   0.609887 0.308733 0.121325 -0.911464
H55   H     H_    0.609107 0.360983 0.174568 0.234378
H56   H     H_    0.484459 0.294304 0.097097 0.276278
H57   H     H_    0.645148 0.231179 0.129023 0.270598
C61   C     C_3   0.096278 0.702703 0.228897 -0.815052
H58   H     H_    0.194524 0.724414 0.192947 0.219941
H59   H     H_    0.140424 0.655554 0.267687 0.231426
H60   H     H_    0.995592 0.651887 0.194352 0.271228
N4    N     N_R   0.976357 0.834569 0.143648 0.258941
O31   O     O_R   0.078359 0.864912 0.096822 -0.347068
O32   O     O_R   0.847657 0.766167 0.120762 -0.414406

loop_
_geom_bond_atom_site_label_1
_geom_bond_atom_site_label_2
_geom_bond_distance
_ccdc_geom_bond_type
O14   P8    1.750700 S    
C13   H24   1.112102 S    
C21   C22   1.403373 A    
N4    O31   1.301001 A    
C45   H41   1.082452 S    
P2    O7    1.522903 D    
C29   C30   1.431664 A    
C57   H48   1.109780 S    
P8    C27   1.857473 S    
C9    C59   1.525831 S    
C30   C35   1.412206 A    
C53   C54   1.421791 A    
C42   C44   1.418245 A    
C61   H58   1.106121 S    
P4    O15   1.734506 S    
C19   C20   1.402092 A    
C3    N4    1.463900 S    
Ba1   O16   2.850876 S    
C9    H14   1.111912 S    
O16   P7    1.779272 S    
C17   C18   1.413519 A    
C4    H6    1.109887 S    
O2    Ba1   2.957936 S    
C8    C9    1.543352 S    
O6    C10   1.410763 S    
P1    O1    1.533601 D    
O10   C8    1.394660 S    
C2    C61   1.529929 S    
C48   C50   1.382472 A    
C13   C14   1.520988 S    
C36   C37   1.409311 A    
C45   C46   1.392910 A    
C43   H40   1.080598 S    
C34   H36   1.072025 S    
C11   H18   1.110664 S    
C49   H42   1.078357 S    
C2    H3    1.102604 S    
C14   H26   1.108455 S    
C40   C41   1.405213 A    
C47   H44   1.082674 S    
P7    O22   1.758438 S    
C61   H59   1.104400 S    
C25   C30   1.422483 A    
C31   C38   1.412280 A    
Ba1   Ba2   4.621680 S    
Ba1   O20   2.943211 S    
C60   H55   1.106040 S    
C4    O15   1.388308 S    
C7    H10   1.104731 S    
C1    H1    1.110292 S    
C15   O24   1.400589 S    
P3    O11   1.758951 S    
P1    Ba1   3.422037 S    
C37   C38   1.418142 A    
C7    H11   1.102793 S    
O7    Ba1   2.915367 S    
P1    C46   1.865301 S    
C6    H9    1.106148 S    
C1    C10   1.530414 S    
C47   C54   1.393932 A    
N3    O30   1.295591 A    
C49   C53   1.409933 A    
P4    O13   1.565513 S    
C17   C22   1.417618 A    
P5    C55   1.854847 S    
N4    O32   1.299649 A    
C15   C16   1.520847 S    
C23   H35   1.080093 S    
Ba2   O21   2.915602 S    
P7    C54   1.847903 S    
C35   H37   1.077341 S    
C28   C29   1.398871 A    
C19   C60   1.501821 S    
C42   C43   1.412131 A    
O3    Ba1   2.788759 S    
O2    Ba2   2.800777 S    
C39   H38   1.083500 S    
C31   C32   1.420777 A    
O17   Ba2   2.791677 S    
C58   H50   1.106054 S    
P5    O17   1.754007 S    
C12   H21   1.107224 S    
P6    C44   1.842579 S    
C32   C42   1.415872 A    
C15   H28   1.102394 S    
O3    P6    1.753562 S    
P1    O5    1.744251 S    
C18   C34   1.412139 A    
C22   C26   1.411080 A    
C3    H22   1.111961 S    
P2    C51   1.842275 S    
C18   C19   1.419306 A    
C16   H32   1.107315 S    
O19   C13   1.406685 S    
C1    H17   1.108435 S    
C33   C46   1.430071 A    
C20   C21   1.395903 A    
C16   H31   1.110244 S    
C48   C51   1.391858 A    
P3    C50   1.825395 S    
C5    H7    1.107817 S    
C59   H54   1.101229 S    
C48   H45   1.082660 S    
P1    O2    1.565513 S    
C8    C58   1.515114 S    
C14   H27   1.109613 S    
P7    O21   1.569232 D    
C58   H51   1.106479 S    
P2    O10   1.753530 S    
C26   C37   1.404280 A    
C33   C34   1.408118 A    
P3    O9    1.547774 D    
P5    O19   1.749866 S    
C6    C7    1.523284 S    
C11   O22   1.408961 S    
O11   C2    1.404394 S    
C7    H12   1.111743 S    
C41   C43   1.404362 A    
C27   C28   1.401141 A    
C12   N3    1.455741 S    
N3    O29   1.301026 A    
O13   Ba2   2.958852 S    
N1    O26   1.298464 A    
P4    O12   1.533930 D    
C4    C5    1.520336 S    
P3    O8    1.754354 S    
C60   H57   1.108554 S    
C21   C23   1.398308 A    
C17   C31   1.409131 A    
C10   N1    1.455717 S    
P8    O23   1.537667 D    
C59   H53   1.106507 S    
P4    C29   1.874524 S    
C52   C53   1.428023 A    
O12   Ba2   2.845047 S    
C25   C26   1.421572 A    
C61   H60   1.106729 S    
P2    O20   1.607848 S    
C10   H16   1.107225 S    
C24   C27   1.414500 A    
C58   H49   1.105904 S    
P5    O18   1.541686 D    
C5    N2    1.444465 S    
C57   H46   1.107369 S    
C1    H2    1.102148 S    
N1    O25   1.298869 A    
C56   H43   1.076003 S    
C40   H39   1.082881 S    
N2    O27   1.294010 A    
C11   C12   1.538150 S    
O14   Ba2   2.788090 S    
C44   C45   1.393043 A    
C5    H8    1.104907 S    
C35   C36   1.408526 A    
O16   Ba2   2.942292 S    
Ba2   O20   2.850236 S    
C59   H52   1.108509 S    
C38   C41   1.406669 A    
C55   C56   1.406876 A    
O6    P6    1.751829 S    
C9    H15   1.113199 S    
C39   C40   1.399952 A    
N2    O28   1.298228 A    
C24   C25   1.414332 A    
P2    Ba1   3.459651 S    
C51   C52   1.437373 A    
P4    Ba2   3.422649 S    
C6    C57   1.525909 S    
Ba1   O13   2.800116 S    
C11   H19   1.108334 S    
C13   H23   1.112039 S    
C2    C3    1.554305 S    
C14   H25   1.109870 S    
C52   C56   1.423404 A    
H30   C16   1.110858 S    
C12   H20   1.108594 S    
O5    C6    1.385432 S    
C3    H4    1.109627 S    
C28   H34   1.082159 S    
C60   H56   1.109115 S    
C32   C33   1.420434 A    
C15   H29   1.100872 S    
P8    O24   1.745263 S    
C4    H5    1.104193 S    
O4    P6    1.540385 D    
O1    Ba1   2.844707 S    
C8    H13   1.107126 S    
O8    Ba1   2.791021 S    
C23   C24   1.408610 A    
C20   H33   1.084860 S    
C47   C55   1.389538 A    
C57   H47   1.104430 S    
C49   C50   1.395178 A    
C36   C39   1.403896 A    
