data_mof_unit_38195.cif
_audit_creation_date              2013-03-05T15:47:07-0500
_audit_creation_method            fapswitch 2.2
_symmetry_space_group_name_H-M    P1
_symmetry_Int_Tables_number       1
_space_group_crystal_system       triclinic
_cell_length_a                    10.261414
_cell_length_b                    10.620029
_cell_length_c                    13.419431
_cell_angle_alpha                 93.193013
_cell_angle_beta                  99.384694
_cell_angle_gamma                 94.024444
_cell_volume                      1435.91857629

loop_
_atom_site_label
_atom_site_type_symbol
_atom_site_description
_atom_site_fract_x
_atom_site_fract_y
_atom_site_fract_z
_atom_type_partial_charge
O1    O     O_R   0.935190 0.693030 0.507870 -0.636552
O2    O     O_R   0.064810 0.306970 0.492130 -0.613828
O3    O     O_R   0.142080 0.658430 0.482770 -0.584930
O4    O     O_R   0.857920 0.341570 0.517230 -0.586635
C1    C     C_R   0.052589 0.734028 0.497815 0.941977
C2    C     C_R   0.951720 0.266998 0.511869 0.978252
O5    O     O_R   0.969700 0.527180 0.651960 -0.652262
O6    O     O_R   0.030300 0.472820 0.348040 -0.632406
O7    O     O_R   0.176600 0.492580 0.626860 -0.579171
O8    O     O_R   0.823400 0.507420 0.373140 -0.616551
C3    C     C_R   0.092798 0.516352 0.687491 0.914388
C4    C     C_R   0.906953 0.481347 0.313363 0.883870
Zn1   Zn    Zn3+2 0.861850 0.523100 0.516760 0.959178
Zn2   Zn    Zn3+2 0.138150 0.476900 0.483240 0.991008
C5    C     C_R   0.140896 0.529742 0.798327 -0.142136
C6    C     C_R   0.857251 0.453338 0.204915 -0.111744
C7    C     C_R   0.142405 0.612522 0.972849 -0.063190
C8    C     C_R   0.837436 0.325372 0.044733 -0.066606
C9    C     C_R   0.078496 0.595458 0.870031 -0.026505
C10   C     C_R   0.904880 0.358538 0.144872 -0.095062
C11   C     C_R   0.262956 0.483815 0.829619 -0.157811
C12   C     C_R   0.741868 0.507011 0.167786 -0.176740
C13   C     C_R   0.333172 0.507393 0.927451 0.091368
C14   C     C_R   0.665883 0.463958 0.075286 0.077179
C15   C     C_R   0.268145 0.563027 0.003125 -0.050976
C16   C     C_R   0.723506 0.388880 0.006270 0.121749
C17   C     C_R   0.466473 0.474160 0.951039 0.094103
C18   C     C_R   0.532887 0.494106 0.051278 0.039523
C19   C     C_R   0.462168 0.533045 0.127550 -0.183255
C20   C     C_R   0.537980 0.426337 0.877034 -0.255120
C21   C     C_R   0.331464 0.564735 0.105886 -0.034695
C22   C     C_R   0.663302 0.381711 0.902902 -0.026623
H1    H     H_    0.709547 0.581624 0.214009 0.162836
H2    H     H_    0.302478 0.428052 0.774496 0.203575
H3    H     H_    0.504875 0.529800 0.206475 0.171068
H4    H     H_    0.501022 0.425465 0.797182 0.171811
C23   C     C_2   0.083540 0.870041 0.511567 -0.444696
C24   C     C_2   0.936882 0.134821 0.534280 -0.281074
C25   C     C_2   0.030309 0.939677 0.579526 -0.126883
C26   C     C_2   0.042473 0.075844 0.577471 0.030580
H5    H     H_    0.841649 0.081917 0.508417 0.160855
H6    H     H_    0.142141 0.915269 0.460977 0.184835
H7    H     H_    0.582490 0.434103 0.421162 0.177577
H8    H     H_    0.411980 0.609983 0.536080 0.177259
N1    N     N_2   0.322180 0.446120 0.460900 -0.162374
N2    N     N_2   0.677820 0.553880 0.539100 -0.175965
C27   C     C_2   0.427924 0.521467 0.497442 0.036246
C28   C     C_2   0.569720 0.498106 0.483986 -0.025384
C29   C     C_2   0.261829 0.583602 0.193813 0.328534
H9    H     H_    0.157460 0.554314 0.187394 0.081195
O9    O     O_2   0.321218 0.630364 0.275233 -0.567877
C30   C     C_2   0.730329 0.342988 0.817030 0.480785
H10   H     H_    0.671302 0.307661 0.744980 0.100185
O10   O     O_2   0.850534 0.356505 0.823368 -0.601522
C31   C     C_2   0.017939 0.287983 0.188897 0.335568
H11   H     H_    0.112442 0.338112 0.220233 0.068307
O11   O     O_2   0.005446 0.173080 0.191409 -0.554542
C32   C     C_2   0.949352 0.649153 0.838122 0.465644
H12   H     H_    0.868214 0.592564 0.791340 0.117281
O12   O     O_2   0.932229 0.757890 0.864213 -0.499808
C33   C     C_2   0.083370 0.692694 0.045331 0.462196
H13   H     H_    0.144317 0.768596 0.091953 0.089631
O13   O     O_2   0.968065 0.671666 0.055972 -0.534362
C34   C     C_2   0.876275 0.213105 0.988569 0.613489
H14   H     H_    0.980155 0.197327 0.991546 0.090242
O14   O     O_2   0.792340 0.134744 0.941943 -0.514358
C35   C     C_2   0.170148 0.139766 0.630040 0.482248
H15   H     H_    0.261081 0.093320 0.630159 0.070668
O15   O     O_2   0.173443 0.239714 0.679713 -0.579483
C36   C     C_2   0.969422 0.885615 0.662327 0.513079
H16   H     H_    0.983561 0.789365 0.681119 0.041549
O16   O     O_2   0.905463 0.949784 0.711918 -0.491910
C37   C     C_2   0.670781 0.634408 0.626356 0.502804
H17   H     H_    0.744107 0.713578 0.647615 0.084677
O17   O     O_2   0.590561 0.610806 0.682100 -0.620396
C38   C     C_2   0.333900 0.321068 0.420220 0.516504
H18   H     H_    0.252940 0.274840 0.365631 0.068369
O18   O     O_2   0.427113 0.260430 0.451750 -0.608765

loop_
_geom_bond_atom_site_label_1
_geom_bond_atom_site_label_2
_geom_bond_distance
_ccdc_geom_bond_type
C15   C21   1.423889 A    
C24   C26   1.353930 D    
C31   H11   1.081780 S    
C16   C22   1.419079 A    
C1    C23   1.451960 S    
C37   H17   1.081176 S    
C8    C16   1.428535 A    
O5    C3    1.290816 A    
N1    C38   1.428028 S    
O1    C1    1.282563 A    
C18   C19   1.407984 A    
C38   O18   1.222072 D    
Zn1   N2    2.005783 S    
C32   O12   1.220860 D    
O4    Zn1   1.925827 S    
C23   H6    1.087242 S    
C33   O13   1.221387 D    
C22   C30   1.488449 S    
C7    C33   1.486699 S    
C3    C5    1.484325 S    
C4    C6    1.467967 S    
C29   O9    1.221366 D    
C26   C35   1.481662 S    
O6    Zn2   1.961645 S    
C2    C24   1.454652 S    
C36   H16   1.080319 S    
C13   C17   1.426464 A    
H7    C28   1.083806 S    
H8    C27   1.083622 S    
C6    C10   1.417336 A    
C17   C20   1.419989 A    
C37   O17   1.221788 D    
O2    C2    1.280884 A    
C21   C29   1.487176 S    
C10   C31   1.484662 S    
C30   O10   1.220189 D    
Zn2   N1    2.005783 S    
N1    C27   1.311132 D    
C9    C32   1.487585 S    
N2    C28   1.311376 D    
C35   H15   1.085445 S    
C38   H18   1.082604 S    
C24   H5    1.087057 S    
O4    C2    1.296945 A    
C25   C26   1.444911 S    
C11   H2    1.070096 S    
C32   H12   1.079708 S    
C35   O15   1.216943 D    
C34   O14   1.221271 D    
C5    C9    1.418379 A    
O7    Zn2   1.898663 S    
C27   C28   1.530567 S    
C5    C11   1.385662 A    
O6    C4    1.286652 A    
O7    C3    1.304219 A    
O3    Zn2   1.925826 S    
O8    C4    1.299276 A    
C31   O11   1.220934 D    
C12   C14   1.388847 A    
O1    Zn1   1.923547 S    
C30   H10   1.085894 S    
C12   H1    1.082527 S    
C6    C12   1.381662 A    
C14   C18   1.413587 A    
C14   C16   1.416211 A    
O3    C1    1.294030 A    
O8    Zn1   1.898661 S    
C19   H3    1.081574 S    
C20   H4    1.076118 S    
C7    C15   1.433250 A    
C34   H14   1.085300 S    
C11   C13   1.391033 A    
C19   C21   1.394174 A    
C20   C22   1.398979 A    
C8    C34   1.487600 S    
C7    C9    1.423731 A    
C25   C36   1.483829 S    
C8    C10   1.420769 A    
C13   C15   1.426559 A    
C33   H13   1.085257 S    
O2    Zn2   1.923548 S    
O5    Zn1   1.961645 S    
C23   C25   1.349446 D    
C29   H9    1.082276 S    
C17   C18   1.402780 A    
C36   O16   1.221770 D    
N2    C37   1.425614 S    
