data_mof_unit_10218.cif
_audit_creation_date              2012-12-10T18:57:03-0500
_audit_creation_method            fapswitch 2.2
_symmetry_space_group_name_H-M    P1
_symmetry_Int_Tables_number       1
_space_group_crystal_system       triclinic
_cell_length_a                    10.734865
_cell_length_b                    9.878109
_cell_length_c                    10.672324
_cell_angle_alpha                 89.515823
_cell_angle_beta                  91.20185
_cell_angle_gamma                 88.964662
_cell_volume                      1131.21720056

loop_
_atom_site_label
_atom_site_type_symbol
_atom_type_description
_atom_site_fract_x
_atom_site_fract_y
_atom_site_fract_z
_atom_type_partial_charge
C1    C     C_R   0.260043 0.501301 0.501927 0.922533
C2    C     C_R   0.739489 0.498787 0.500190 0.918902
C3    C     C_R   0.565236 0.070022 0.589727 0.527508
C4    C     C_R   0.436391 0.074562 0.409439 0.533056
C5    C     C_R   0.565555 0.925879 0.589913 0.008260
C6    C     C_R   0.437081 0.930727 0.408568 -0.035837
C7    C     C_R   0.498043 0.500390 0.260099 0.861335
C8    C     C_R   0.503494 0.499685 0.739447 0.934407
C9    C     C_R   0.431307 0.596984 0.059710 -0.044664
C10   C     C_R   0.437367 0.598753 0.931214 -0.145806
C11   C     C_R   0.501910 0.501040 0.127918 -0.064726
C12   C     C_R   0.508888 0.501756 0.871071 -0.022875
C13   C     C_R   0.583686 0.411564 0.068058 -0.164985
C14   C     C_R   0.586650 0.411305 0.938438 -0.185447
C15   C     C_3   0.300908 0.627246 0.912301 0.604242
C16   C     C_3   0.291897 0.620348 0.054052 0.540923
C17   C     C_R   0.067527 0.406060 0.578308 0.084881
C18   C     C_R   0.938004 0.403992 0.576924 -0.006189
C19   C     C_R   0.871601 0.497020 0.499895 -0.089653
C20   C     C_R   0.127076 0.504234 0.505718 -0.089065
C21   C     C_R   0.930837 0.593817 0.426859 0.074685
C22   C     C_R   0.058651 0.601769 0.434087 -0.020701
H1    H     H_    0.642589 0.340683 0.121257 0.160299
H2    H     H_    0.646620 0.339595 0.891114 0.189939
N1    N     N_R   0.500000 0.857200 0.500000 -0.118162
N2    N     N_R   0.500000 0.142810 0.500000 -0.183938
O1    O     O_R   0.316770 0.614620 0.499990 -0.637694
O2    O     O_R   0.683230 0.614620 0.500010 -0.597168
O3    O     O_R   0.316800 0.385290 0.500000 -0.565469
O4    O     O_R   0.683200 0.385290 0.500000 -0.587947
O5    O     O_R   0.500000 0.614690 0.316780 -0.595419
O6    O     O_R   0.500000 0.614690 0.683220 -0.627760
O7    O     O_R   0.500020 0.385360 0.316780 -0.571137
O8    O     O_R   0.499980 0.385360 0.683220 -0.555248
Zn1   Zn    Zn3+2 0.500000 0.653120 0.500000 0.978435
Zn2   Zn    Zn3+2 0.500000 0.346880 0.500000 1.071779
N3    N     N_3   0.273274 0.761473 0.857954 -0.398002
H3    H     H_    0.290980 0.757140 0.762091 0.199524
H4    H     H_    0.334004 0.832730 0.896072 0.186321
N4    N     N_3   0.221866 0.503719 0.097328 -0.397093
H5    H     H_    0.126973 0.528374 0.088016 0.216169
H6    H     H_    0.240711 0.488689 0.192880 0.158551
F1    F     F_    0.238786 0.525363 0.849538 -0.685306
F2    F     F_    0.253402 0.741010 0.106827 -0.708115
N5    N     N_3   0.139196 0.311921 0.655351 -0.390254
H7    H     H_    0.119167 0.213531 0.626970 0.178143
H8    H     H_    0.113679 0.323126 0.748670 0.238266
N6    N     N_3   0.873020 0.311018 0.655401 -0.394484
H9    H     H_    0.899920 0.212102 0.632948 0.210481
H10   H     H_    0.897135 0.329125 0.749065 0.188627
N7    N     N_3   0.860252 0.683488 0.344309 -0.427345
H11   H     H_    0.876673 0.783335 0.370956 0.215689
H12   H     H_    0.891662 0.670322 0.253039 0.205883
N8    N     N_3   0.115871 0.710043 0.367836 -0.438838
H13   H     H_    0.185849 0.670351 0.312248 0.246974
H14   H     H_    0.153682 0.776371 0.433565 0.216700
F3    F     F_    0.631121 0.136328 0.679089 -0.663228
F4    F     F_    0.371990 0.145225 0.319054 -0.641082
N9    N     N_3   0.636311 0.851549 0.683133 -0.369778
H15   H     H_    0.729407 0.879813 0.677259 0.201506
H16   H     H_    0.604332 0.880003 0.771125 0.201647
N10   N     N_3   0.374559 0.862178 0.309377 -0.337908
H17   H     H_    0.283857 0.901951 0.301624 0.241776
H18   H     H_    0.419388 0.886468 0.226325 0.243879

loop_
_geom_bond_atom_site_label_1
_geom_bond_atom_site_label_2
_ccdc_geom_bond_type
C4    N2    A    
N8    H14   S    
O7    Zn2   S    
N3    H3    S    
C13   C14   A    
C7    O7    A    
C9    C10   A    
C16   F2    S    
N10   H18   S    
O4    Zn2   S    
C8    C12   S    
C1    O1    A    
C6    N10   S    
N6    H10   S    
C17   C18   A    
C15   F1    S    
N9    H15   S    
C22   N8    S    
C8    O8    A    
N5    H7    S    
C7    C11   S    
C9    C11   A    
O3    Zn2   S    
N10   H17   S    
C10   C12   A    
O1    Zn1   S    
C16   N4    S    
C5    N1    A    
C3    F3    S    
C1    O3    A    
N4    H5    S    
C19   C21   A    
C9    C16   S    
C20   C22   A    
C18   C19   A    
O8    Zn2   S    
C10   C15   S    
N5    H8    S    
C17   N5    S    
O5    Zn1   S    
N9    H16   S    
C6    N1    A    
C7    O5    A    
C2    O4    A    
C5    N9    S    
N7    H12   S    
C14   H2    S    
C15   C16   S    
C8    O6    A    
O6    Zn1   S    
C11   C13   A    
C21   N7    S    
C13   H1    S    
N3    H4    S    
C4    C6    A    
N2    Zn2   S    
N1    Zn1   S    
N8    H13   S    
N6    H9    S    
C1    C20   S    
C2    O2    A    
C4    F4    S    
C2    C19   S    
C21   C22   A    
C17   C20   A    
C3    N2    A    
C15   N3    S    
N7    H11   S    
O2    Zn1   S    
C12   C14   A    
N4    H6    S    
C3    C5    A    
C18   N6    S    
