data_mof_unit_36831.cif
_audit_creation_date              2012-12-11T16:27:24-0500
_audit_creation_method            fapswitch 2.2
_symmetry_space_group_name_H-M    P1
_symmetry_Int_Tables_number       1
_space_group_crystal_system       triclinic
_cell_length_a                    21.713459
_cell_length_b                    6.917687
_cell_length_c                    14.882783
_cell_angle_alpha                 89.999916
_cell_angle_beta                  106.117602
_cell_angle_gamma                 90.0
_cell_volume                      2147.62825935

loop_
_atom_site_label
_atom_site_type_symbol
_atom_type_description
_atom_site_fract_x
_atom_site_fract_y
_atom_site_fract_z
_atom_type_partial_charge
O1    O     O_R   0.835850 0.638310 0.002120 -0.550777
O2    O     O_R   0.164150 0.361690 0.997880 -0.550777
O3    O     O_R   0.664150 0.138310 0.997880 -0.550777
O4    O     O_R   0.335850 0.861690 0.002120 -0.550776
O5    O     O_R   0.717530 0.306070 0.861970 -0.559055
O6    O     O_R   0.282470 0.693930 0.138030 -0.559055
O7    O     O_R   0.782470 0.806070 0.138030 -0.559056
O8    O     O_R   0.217530 0.193930 0.861970 -0.559056
C1    C     C_R   0.704696 0.477313 0.824793 0.698706
C2    C     C_R   0.295304 0.522687 0.175207 0.698708
C3    C     C_R   0.795304 0.977313 0.175207 0.698707
C4    C     C_R   0.204696 0.022687 0.824793 0.698706
O9    O     O_R   0.838690 0.308440 0.993250 -0.522019
O10   O     O_R   0.161310 0.691560 0.006750 -0.522019
O11   O     O_R   0.661310 0.808440 0.006750 -0.522019
O12   O     O_R   0.338690 0.191560 0.993250 -0.522019
O13   O     O_R   0.786170 0.140510 0.130090 -0.518157
O14   O     O_R   0.213830 0.859490 0.869910 -0.518157
O15   O     O_R   0.713830 0.640510 0.869910 -0.518157
O16   O     O_R   0.286170 0.359490 0.130090 -0.518157
C5    C     C_R   0.865541 0.477474 0.999212 0.788355
C6    C     C_R   0.134459 0.522526 0.000788 0.788354
C7    C     C_R   0.634459 0.977474 0.000788 0.788354
C8    C     C_R   0.365541 0.022526 0.999212 0.788356
O17   O     O_3   0.732630 0.472520 0.044740 -0.373495
O18   O     O_3   0.267370 0.527480 0.955260 -0.373495
O19   O     O_3   0.767370 0.972520 0.955260 -0.373495
O20   O     O_3   0.232630 0.027480 0.044740 -0.373495
V1    V     V_3+5 0.753220 0.196740 0.991700 1.463283
V2    V     V_3+5 0.246780 0.803260 0.008300 1.463283
V3    V     V_3+5 0.746780 0.696740 0.008300 1.463283
V4    V     V_3+5 0.253220 0.303260 0.991700 1.463283
C9    C     C_R   0.529505 0.853031 0.836774 0.353195
C10   C     C_R   0.470494 0.146970 0.163225 0.353197
C11   C     C_R   0.970494 0.353030 0.163226 0.353195
C12   C     C_R   0.029505 0.646970 0.836774 0.353196
C13   C     C_R   0.480022 0.780711 0.763068 -0.195378
C14   C     C_R   0.519978 0.219289 0.236932 -0.195380
C15   C     C_R   0.019978 0.280711 0.236932 -0.195378
C16   C     C_R   0.980022 0.719289 0.763068 -0.195378
C17   C     C_R   0.417169 0.779019 0.767114 0.344736
C18   C     C_R   0.582831 0.220980 0.232886 0.344737
C19   C     C_R   0.082831 0.279020 0.232887 0.344737
C20   C     C_R   0.917169 0.720980 0.767113 0.344736
C21   C     C_R   0.402493 0.858139 0.845131 -0.258348
C22   C     C_R   0.597507 0.141860 0.154869 -0.258348
C23   C     C_R   0.097507 0.358140 0.154869 -0.258348
C24   C     C_R   0.902493 0.641860 0.845131 -0.258348
C25   C     C_R   0.450960 0.930606 0.922499 -0.028287
C26   C     C_R   0.549039 0.069394 0.077501 -0.028287
C27   C     C_R   0.049039 0.430606 0.077501 -0.028286
C28   C     C_R   0.950960 0.569394 0.922499 -0.028286
C29   C     C_R   0.516296 0.922452 0.920225 -0.018691
C30   C     C_R   0.483704 0.077548 0.079775 -0.018691
C31   C     C_R   0.983704 0.422452 0.079775 -0.018691
C32   C     C_R   0.016296 0.577548 0.920225 -0.018692
C33   C     C_R   0.434459 0.011034 0.000791 -0.127338
C34   C     C_R   0.565541 0.988966 0.999209 -0.127339
C35   C     C_R   0.065541 0.511034 0.999209 -0.127338
C36   C     C_R   0.934459 0.488966 0.000791 -0.127338
H1    H     H_    0.491025 0.724682 0.701584 0.156450
H2    H     H_    0.508975 0.275319 0.298415 0.156448
H3    H     H_    0.008975 0.224682 0.298416 0.156449
H4    H     H_    0.991025 0.775318 0.701584 0.156450
H5    H     H_    0.352538 0.861878 0.843872 0.103589
H6    H     H_    0.647461 0.138121 0.156128 0.103590
H7    H     H_    0.147461 0.361879 0.156128 0.103589
H8    H     H_    0.852538 0.638121 0.843872 0.103590
C37   C     C_R   0.176503 0.011134 0.723639 -0.030438
C38   C     C_R   0.823497 0.988866 0.276361 -0.030438
C39   C     C_R   0.323497 0.511133 0.276361 -0.030438
C40   C     C_R   0.676503 0.488867 0.723639 -0.030437
C41   C     C_R   0.187144 0.930168 0.570939 -0.143803
C42   C     C_R   0.812856 0.069832 0.429061 -0.143804
C43   C     C_R   0.312856 0.430170 0.429061 -0.143803
C44   C     C_R   0.687144 0.569830 0.570939 -0.143804
C45   C     C_R   0.215034 0.968228 0.665350 -0.199775
C46   C     C_R   0.784966 0.031771 0.334650 -0.199775
C47   C     C_R   0.284966 0.468230 0.334650 -0.199775
C48   C     C_R   0.715034 0.531770 0.665350 -0.199774
C49   C     C_R   0.110079 0.027104 0.686434 -0.203947
C50   C     C_R   0.889921 0.972896 0.313566 -0.203948
C51   C     C_R   0.389921 0.527103 0.313566 -0.203950
C52   C     C_R   0.610079 0.472897 0.686434 -0.203948
C53   C     C_R   0.080824 0.000816 0.589720 0.068524
C54   C     C_R   0.919176 0.999184 0.410280 0.068524
C55   C     C_R   0.419176 0.500815 0.410280 0.068522
C56   C     C_R   0.580824 0.499184 0.589720 0.068524
C57   C     C_R   0.120385 0.941465 0.533251 0.130903
C58   C     C_R   0.879615 0.058535 0.466749 0.130903
C59   C     C_R   0.379615 0.441466 0.466749 0.130903
C60   C     C_R   0.620385 0.558534 0.533250 0.130903
C61   C     C_R   0.013593 0.025214 0.547994 0.044337
C62   C     C_R   0.986407 0.974786 0.452006 0.044337
C63   C     C_R   0.486407 0.525213 0.452006 0.044337
C64   C     C_R   0.513593 0.474787 0.547995 0.044337
C65   C     C_R   0.027127 0.898732 0.401351 -0.201032
C66   C     C_R   0.972873 0.101268 0.598649 -0.201032
C67   C     C_R   0.472873 0.398733 0.598649 -0.201032
C68   C     C_R   0.527127 0.601267 0.401351 -0.201032
C69   C     C_R   0.092966 0.888416 0.440476 -0.123371
C70   C     C_R   0.907034 0.111584 0.559524 -0.123371
C71   C     C_R   0.407034 0.388418 0.559524 -0.123371
C72   C     C_R   0.592965 0.611582 0.440476 -0.123371
H9    H     H_    0.122620 0.834978 0.398043 0.142118
H10   H     H_    0.877380 0.165021 0.601957 0.142118
H11   H     H_    0.377380 0.334981 0.601957 0.142119
H12   H     H_    0.622620 0.665019 0.398043 0.142119
H13   H     H_    0.917670 0.949367 0.264739 0.107141
H14   H     H_    0.082330 0.050633 0.735261 0.107141
H15   H     H_    0.582330 0.449369 0.735262 0.107141
H16   H     H_    0.417670 0.550630 0.264738 0.107143
H17   H     H_    0.733512 0.040661 0.306391 0.112207
H18   H     H_    0.266488 0.959339 0.693609 0.112208
H19   H     H_    0.766488 0.540659 0.693609 0.112207
H20   H     H_    0.233512 0.459342 0.306391 0.112207
H21   H     H_    0.217715 0.889260 0.527571 0.131281
H22   H     H_    0.782285 0.110740 0.472429 0.131281
H23   H     H_    0.282285 0.389263 0.472429 0.131281
H24   H     H_    0.717715 0.610737 0.527571 0.131281
H25   H     H_    0.009505 0.846604 0.330597 0.121499
H26   H     H_    0.990495 0.153395 0.669403 0.121499
H27   H     H_    0.490495 0.346607 0.669404 0.121499
H28   H     H_    0.509505 0.653393 0.330596 0.121499
O21   O     O_3   0.629023 0.299988 0.306767 -0.649523
H29   H     H_    0.669464 0.313174 0.288779 0.279063
O22   O     O_3   0.370977 0.700011 0.693233 -0.649523
H30   H     H_    0.330536 0.686826 0.711222 0.279063
O23   O     O_3   0.870977 0.799988 0.693232 -0.649523
H31   H     H_    0.830536 0.813173 0.711221 0.279063
O24   O     O_3   0.129023 0.200012 0.306768 -0.649523
H32   H     H_    0.169464 0.186828 0.288779 0.279063
O25   O     O_3   0.591020 0.843869 0.827521 -0.554809
C73   C     C_3   0.599223 0.993482 0.767593 -0.203217
H33   H     H_    0.590334 0.136775 0.795352 0.112502
H34   H     H_    0.567975 0.973153 0.695120 0.126566
H35   H     H_    0.649592 0.991145 0.764169 0.177004
O26   O     O_3   0.408980 0.156133 0.172478 -0.554809
C74   C     C_3   0.400777 0.006527 0.232410 -0.203217
H36   H     H_    0.432021 0.026869 0.304884 0.126570
H37   H     H_    0.409670 0.863230 0.204657 0.112498
H38   H     H_    0.350407 0.008857 0.235828 0.177004
O27   O     O_3   0.908980 0.343867 0.172479 -0.554809
C75   C     C_3   0.900777 0.493479 0.232407 -0.203216
H39   H     H_    0.909666 0.636774 0.204648 0.112502
H40   H     H_    0.932024 0.473150 0.304881 0.126566
H41   H     H_    0.850408 0.491142 0.235831 0.177003
O28   O     O_3   0.091020 0.656132 0.827521 -0.554809
C76   C     C_3   0.099223 0.506519 0.767593 -0.203217
H42   H     H_    0.067975 0.526846 0.695120 0.126566
H43   H     H_    0.090335 0.363225 0.795353 0.112503
H44   H     H_    0.149592 0.508858 0.764169 0.177003

loop_
_geom_bond_atom_site_label_1
_geom_bond_atom_site_label_2
_ccdc_geom_bond_type
O17   V3    S    
C7    C34   S    
C51   C55   A    
C4    C37   S    
C56   C64   A    
O1    C5    A    
C61   C62   A    
C29   C34   A    
C55   C59   A    
O19   V1    S    
O13   V1    S    
C37   C45   A    
C17   O22   S    
O3    C7    A    
C63   C64   A    
C1    C40   S    
C68   C72   A    
O15   V3    S    
C73   H35   S    
C39   C47   A    
C3    C38   S    
O4    V2    S    
O7    C3    A    
C44   H24   S    
O9    V1    S    
O7    V3    S    
C22   H6    S    
C76   H43   S    
O4    C8    A    
C74   H38   S    
C38   C46   A    
O27   C75   S    
C64   C67   A    
O1    V3    S    
C25   C33   A    
O2    V4    S    
C18   C22   A    
O3    V1    S    
C58   C70   A    
C65   H25   S    
C28   C36   A    
C18   O21   S    
C28   C32   A    
C53   C61   A    
C1    O15   A    
C56   C60   A    
C2    O16   A    
C8    C33   S    
C55   C63   A    
O2    C6    A    
O14   V2    S    
C54   C62   A    
C16   C20   A    
C39   C51   A    
C43   C59   A    
C2    C39   S    
O11   C7    A    
O12   C8    A    
C31   C36   A    
O17   V1    S    
O10   V2    S    
C75   H41   S    
O20   V4    S    
C23   H7    S    
C12   O28   S    
O5    V1    S    
C9    C29   A    
C42   H22   S    
C69   H9    S    
C41   H21   S    
C11   C31   A    
C52   H15   S    
C50   H13   S    
C44   C48   A    
C12   C16   A    
C43   H23   S    
O28   C76   S    
C5    C36   S    
C75   H40   S    
C67   C71   A    
C54   C58   A    
C76   H44   S    
C6    C35   S    
C53   C57   A    
C63   C68   A    
C23   C27   A    
C62   C65   A    
C20   O23   S    
C66   C70   A    
O19   V3    S    
C10   O26   S    
C9    C13   A    
C68   H28   S    
C26   C34   A    
C11   C15   A    
O5    C1    A    
C12   C32   A    
C9    O25   S    
C48   H19   S    
C21   C25   A    
O8    C4    A    
O9    C5    A    
C26   C30   A    
C24   H8    S    
C40   C52   A    
C44   C60   A    
O6    V2    S    
O18   V2    S    
C21   H5    S    
O25   C73   S    
C46   H17   S    
C27   C35   A    
O22   H30   S    
C72   H12   S    
C67   H27   S    
O23   H31   S    
O16   V4    S    
C66   H26   S    
C3    O13   A    
C17   C21   A    
C57   C69   A    
C10   C14   A    
C52   C56   A    
C59   C71   A    
C75   H39   S    
O6    C2    A    
C13   H1    S    
C74   H36   S    
O11   V3    S    
C73   H33   S    
O18   V4    S    
O12   V4    S    
C15   H3    S    
C22   C26   A    
C16   H4    S    
C32   C35   A    
C42   C58   A    
C19   O24   S    
C41   C57   A    
C40   C48   A    
C50   C54   A    
C76   H42   S    
C74   H37   S    
C10   C30   A    
O10   C6    A    
O21   H29   S    
O8    V4    S    
C19   C23   A    
C25   C29   A    
O20   V2    S    
C73   H34   S    
C70   H10   S    
C27   C31   A    
C13   C17   A    
C45   H18   S    
C38   C50   A    
C65   C69   A    
C37   C49   A    
O26   C74   S    
C60   C72   A    
C14   C18   A    
C20   C24   A    
C24   C28   A    
C49   H14   S    
C15   C19   A    
C42   C46   A    
C4    O14   A    
C41   C45   A    
C51   H16   S    
C71   H11   S    
C47   H20   S    
C43   C47   A    
C61   C66   A    
C49   C53   A    
O24   H32   S    
C11   O27   S    
C14   H2    S    
C30   C33   A    
