data_mof_unit_53301.cif
_audit_creation_date              2012-12-10T18:11:02-0500
_audit_creation_method            fapswitch 2.2
_symmetry_space_group_name_H-M    P1
_symmetry_Int_Tables_number       1
_space_group_crystal_system       triclinic
_cell_length_a                    10.753597
_cell_length_b                    9.498211
_cell_length_c                    10.698359
_cell_angle_alpha                 89.798578
_cell_angle_beta                  93.244769
_cell_angle_gamma                 89.89328
_cell_volume                      1090.96878954

loop_
_atom_site_label
_atom_site_type_symbol
_atom_type_description
_atom_site_fract_x
_atom_site_fract_y
_atom_site_fract_z
_atom_type_partial_charge
C1    C     C_R   0.260120 0.499988 0.500010 0.773072
C2    C     C_3   0.491964 0.501188 0.123509 -0.142534
C3    C     C_3   0.066337 0.556665 0.373296 -0.395960
C4    C     C_3   0.079397 0.596201 0.605869 -0.376929
C5    C     C_3   0.921865 0.559094 0.373046 -0.016363
C6    C     C_3   0.935487 0.594847 0.608300 -0.013772
C7    C     C_3   0.073176 0.348299 0.520777 -0.387082
C8    C     C_3   0.122420 0.500064 0.500059 0.102445
C9    C     C_3   0.878446 0.498974 0.500378 0.161460
C10   C     C_3   0.930811 0.347042 0.519455 -0.363249
C11   C     C_3   0.623113 0.083573 0.553080 0.172681
C12   C     C_3   0.622948 0.915197 0.553934 0.178077
C13   C     C_3   0.400831 0.082967 0.578345 -0.199295
C14   C     C_3   0.400464 0.916661 0.577954 -0.192329
C15   C     C_3   0.478364 0.083763 0.374781 -0.232250
C16   C     C_3   0.478653 0.917198 0.374712 -0.263017
C17   C     C_R   0.494521 0.500297 0.259775 0.820586
C18   C     C_R   0.739871 0.499702 0.500415 0.763688
C19   C     C_R   0.502911 0.499789 0.740848 0.810267
C20   C     C_3   0.590880 0.578685 0.051851 -0.235569
C21   C     C_3   0.387086 0.556517 0.032189 -0.252038
C22   C     C_3   0.486715 0.633310 0.957563 -0.171052
C23   C     C_3   0.502733 0.499516 0.878145 -0.079132
C24   C     C_3   0.605779 0.445303 0.972120 0.106205
C25   C     C_3   0.403539 0.423884 0.951501 0.113414
C26   C     C_3   0.506606 0.369520 0.044337 0.660592
Cu1   Cu    Cu3+1 0.499860 0.642410 0.500060 0.889383
Cu2   Cu    Cu3+1 0.499860 0.357590 0.500060 0.905873
H1    H     H_    0.479031 0.742667 0.920963 0.155236
H2    H     H_    0.893529 0.275775 0.444245 0.169111
H3    H     H_    0.901182 0.300929 0.608491 0.164895
H4    H     H_    0.695514 0.115633 0.488179 0.103553
H5    H     H_    0.695851 0.882422 0.489952 0.100040
H6    H     H_    0.410377 0.121457 0.675942 0.155053
H7    H     H_    0.408681 0.876307 0.675469 0.152361
H8    H     H_    0.388116 0.123125 0.331971 0.177715
H9    H     H_    0.388544 0.878351 0.331745 0.164135
H10   H     H_    0.551744 0.121227 0.313603 0.205779
H11   H     H_    0.552051 0.879809 0.313474 0.160592
H12   H     H_    0.308069 0.120622 0.541006 0.138504
H13   H     H_    0.307826 0.880449 0.539495 0.137546
H14   H     H_    0.667204 0.644582 0.094202 0.158147
H15   H     H_    0.297139 0.601498 0.059201 0.147514
H16   H     H_    0.099473 0.490079 0.296312 0.170343
H17   H     H_    0.124756 0.561610 0.696889 0.168567
H18   H     H_    0.100713 0.665234 0.356504 0.140046
H19   H     H_    0.110780 0.706267 0.590603 0.141035
H20   H     H_    0.890780 0.670916 0.364969 0.139237
H21   H     H_    0.901731 0.704522 0.591014 0.145704
H22   H     H_    0.103567 0.277031 0.445846 0.166396
H23   H     H_    0.112082 0.305986 0.612047 0.163998
N1    N     N_3   0.500250 0.143650 0.502780 -0.139823
N2    N     N_3   0.500250 0.856350 0.502780 -0.130606
O1    O     O_R   0.317570 0.620260 0.500070 -0.595641
O2    O     O_R   0.317570 0.379740 0.500070 -0.595998
O3    O     O_R   0.499850 0.620240 0.316900 -0.590574
O4    O     O_R   0.499850 0.379760 0.316900 -0.557842
O5    O     O_R   0.682190 0.620260 0.500030 -0.611162
O6    O     O_R   0.682190 0.379740 0.500030 -0.599685
O7    O     O_R   0.499910 0.620280 0.683200 -0.594870
O8    O     O_R   0.499910 0.379720 0.683200 -0.583557
C27   C     C_3   0.669482 0.146622 0.680996 -0.796199
H24   H     H_    0.765282 0.110438 0.707579 0.176316
H25   H     H_    0.682453 0.259911 0.678827 0.264153
H26   H     H_    0.607466 0.120996 0.757129 0.237507
C28   C     C_3   0.668245 0.852027 0.683256 -0.782363
H27   H     H_    0.681419 0.738614 0.683198 0.270906
H28   H     H_    0.763910 0.887635 0.710318 0.181980
H29   H     H_    0.605766 0.878946 0.758509 0.219586
C29   C     C_3   0.733956 0.382234 0.957570 -0.899950
H30   H     H_    0.760681 0.315899 0.040390 0.263159
H31   H     H_    0.734641 0.316368 0.873541 0.237240
H32   H     H_    0.803383 0.467556 0.952972 0.238051
C30   C     C_3   0.297010 0.334160 0.896923 -0.850614
H33   H     H_    0.237300 0.300440 0.972782 0.234411
H34   H     H_    0.240397 0.395937 0.826402 0.210840
H35   H     H_    0.334820 0.239624 0.851899 0.237751
F1    F     F_    0.515582 0.232578 0.088280 -0.703161
C31   C     C_3   0.864842 0.483350 0.256340 -0.895263
H36   H     H_    0.899627 0.373673 0.250376 0.242904
H37   H     H_    0.761926 0.481296 0.256522 0.237230
H38   H     H_    0.890555 0.540539 0.170857 0.232900
C32   C     C_3   0.896153 0.553052 0.739264 -0.942521
H39   H     H_    0.940949 0.452925 0.771377 0.251635
H40   H     H_    0.924600 0.636486 0.807442 0.240000
H41   H     H_    0.793879 0.540631 0.740059 0.230581

loop_
_geom_bond_atom_site_label_1
_geom_bond_atom_site_label_2
_ccdc_geom_bond_type
C7    C10   S    
C28   H28   S    
C22   H1    S    
C1    C8    S    
C4    C8    S    
C11   C27   S    
C6    C9    S    
Cu1   O1    S    
C24   C29   S    
C7    C8    S    
Cu2   O4    S    
C26   F1    S    
C30   H34   S    
C24   C26   S    
Cu1   O7    S    
C28   H29   S    
C15   C16   S    
C25   C30   S    
C16   N2    S    
C13   H12   S    
C27   H25   S    
C11   N1    S    
C21   H15   S    
C10   H3    S    
C18   O5    A    
C20   C24   S    
C30   H35   S    
C23   C24   S    
C29   H30   S    
C5    C31   S    
C9    C10   S    
C12   N2    S    
C16   H9    S    
Cu2   O8    S    
C28   H27   S    
C13   C14   S    
C2    C17   S    
C29   H32   S    
Cu2   O2    S    
C4    H17   S    
C5    H20   S    
C3    H16   S    
C30   H33   S    
C2    C20   S    
C4    C6    S    
C3    C8    S    
C14   H7    S    
C31   H37   S    
Cu1   O3    S    
C25   C26   S    
C12   C28   S    
C19   C23   S    
C1    O1    A    
C15   H10   S    
C5    C9    S    
C27   H24   S    
C13   N1    S    
C10   H2    S    
C32   H39   S    
C14   N2    S    
C2    C21   S    
C2    C26   S    
C15   N1    S    
C17   O3    A    
C18   O6    A    
C14   H13   S    
C32   H40   S    
C20   C22   S    
C11   H4    S    
C15   H8    S    
Cu2   O6    S    
C21   C25   S    
C6    C32   S    
C27   H26   S    
C7    H22   S    
C3    C5    S    
Cu1   O5    S    
C31   H38   S    
C20   H14   S    
C11   C12   S    
Cu1   N2    S    
C19   O7    A    
C3    H18   S    
C1    O2    A    
C7    H23   S    
C13   H6    S    
Cu2   N1    S    
C19   O8    A    
C23   C25   S    
C6    H21   S    
C16   H11   S    
C31   H36   S    
C9    C18   S    
C32   H41   S    
Cu1   Cu2   S    
C22   C23   S    
C29   H31   S    
C12   H5    S    
C21   C22   S    
C17   O4    A    
C4    H19   S    
