data_mof_unit_9290.cif
_audit_creation_date              2012-12-10T18:34:34-0500
_audit_creation_method            fapswitch 2.2
_symmetry_space_group_name_H-M    P1
_symmetry_Int_Tables_number       1
_space_group_crystal_system       triclinic
_cell_length_a                    15.030297
_cell_length_b                    15.421664
_cell_length_c                    15.716406
_cell_angle_alpha                 89.574383
_cell_angle_beta                  104.855752
_cell_angle_gamma                 81.888563
_cell_volume                      3482.32400519

loop_
_atom_site_label
_atom_site_type_symbol
_atom_type_description
_atom_site_fract_x
_atom_site_fract_y
_atom_site_fract_z
_atom_type_partial_charge
C1    C     C_R   0.441365 0.662185 0.487323 0.868335
C2    C     C_R   0.540893 0.104441 0.462159 0.082222
C3    C     C_R   0.342880 0.935717 0.454984 0.151125
C4    C     C_R   0.628035 0.073899 0.446234 0.143047
C5    C     C_R   0.493918 0.960268 0.433555 0.084216
C6    C     C_R   0.470615 0.050059 0.448167 0.075152
C7    C     C_R   0.378082 0.082466 0.449357 -0.253172
C8    C     C_R   0.580914 0.931738 0.415700 -0.241161
C9    C     C_R   0.315066 0.025825 0.452237 -0.232254
C10   C     C_R   0.646069 0.988394 0.420507 -0.229812
C11   C     C_R   0.841858 0.640301 0.626053 -0.420693
C12   C     C_R   0.558535 0.337537 0.510380 0.866046
C13   C     C_R   0.160702 0.355455 0.377791 -0.434178
C14   C     C_R   0.752270 0.618046 0.605443 0.643034
C15   C     C_R   0.248611 0.381717 0.394830 0.635844
C16   C     C_R   0.501177 0.500350 0.662061 0.885838
C17   C     C_R   0.498785 0.499632 0.337935 0.892887
C18   C     C_R   0.794061 0.509548 0.509936 -0.169587
C19   C     C_R   0.204951 0.491557 0.488046 -0.163762
C20   C     C_R   0.885447 0.530002 0.527640 -0.007120
C21   C     C_R   0.114295 0.469419 0.471479 -0.003063
C22   C     C_R   0.907839 0.597547 0.586503 0.118407
C23   C     C_R   0.285418 0.879131 0.475437 -0.281123
C24   C     C_R   0.093284 0.399750 0.415010 0.123509
C25   C     C_R   0.954779 0.486209 0.489554 0.099896
C26   C     C_R   0.044930 0.512792 0.509655 0.102577
C27   C     C_R   0.063028 0.581344 0.567760 -0.241892
C28   C     C_R   0.937346 0.416359 0.432886 -0.246936
C29   C     C_R   0.995929 0.622259 0.605800 -0.189700
C30   C     C_R   0.005532 0.374023 0.396660 -0.188283
C31   C     C_3   0.454064 0.576640 0.016205 -0.167063
C32   C     C_3   0.544568 0.422551 0.983518 -0.163964
C33   C     C_3   0.543858 0.565233 0.984001 -0.161133
C34   C     C_R   0.696407 0.129055 0.457274 -0.283596
C35   C     C_3   0.454767 0.433952 0.015749 -0.165961
C36   C     C_1   0.503435 0.501058 0.751728 -0.174961
C37   C     C_1   0.496281 0.498729 0.248232 -0.196742
C38   C     C_3   0.411803 0.511765 0.948224 -0.163774
C39   C     C_3   0.586823 0.487428 0.051479 -0.161129
C40   C     C_3   0.501604 0.500366 0.917793 0.207514
C41   C     C_3   0.497048 0.498840 0.081930 0.209930
C42   C     C_1   0.503444 0.501040 0.827176 -0.079837
C43   C     C_1   0.495719 0.498446 0.172663 -0.088826
C44   C     C_R   0.403654 0.755358 0.474565 -0.092940
C45   C     C_R   0.317243 0.789282 0.489892 0.230036
C46   C     C_R   0.592391 0.244811 0.501325 -0.104641
C47   C     C_3   0.294978 0.330611 0.271699 0.063565
C48   C     C_3   0.306726 0.234248 0.248647 -0.346865
C49   C     C_3   0.287711 0.224760 0.149300 -0.962371
C50   C     C_3   0.666765 0.748503 0.629276 0.080395
C51   C     C_3   0.693580 0.796469 0.714835 -0.371362
C52   C     C_3   0.668208 0.895634 0.697673 -0.938847
C53   C     C_3   0.808243 0.272509 0.578113 -0.756074
C54   C     C_3   0.300178 0.718449 0.620290 -0.787611
C55   C     C_R   0.679059 0.215039 0.483861 0.219139
C56   C     C_R   0.457285 0.811200 0.447415 -0.356859
C57   C     C_R   0.527744 0.187283 0.495702 -0.283832
C58   C     C_R   0.431164 0.902076 0.442222 0.098701
H1    H     H_    0.580358 0.618859 0.968951 0.134991
H2    H     H_    0.581725 0.359625 0.968083 0.132820
H3    H     H_    0.658341 0.477402 0.095836 0.133976
H4    H     H_    0.340296 0.521801 0.903843 0.134145
H5    H     H_    0.246118 0.052594 0.457546 0.146510
H6    H     H_    0.712047 0.964248 0.406795 0.144330
H7    H     H_    0.466171 0.208983 0.517528 0.179268
H8    H     H_    0.522515 0.782007 0.436391 0.160619
H9    H     H_    0.219095 0.905491 0.487320 0.133946
H10   H     H_    0.763077 0.105690 0.444561 0.136212
H11   H     H_    0.352661 0.151619 0.448377 0.174623
H12   H     H_    0.418258 0.380357 0.030883 0.129323
H13   H     H_    0.600456 0.866324 0.396597 0.143512
H14   H     H_    0.013168 0.674183 0.650549 0.141293
H15   H     H_    0.989307 0.320499 0.353765 0.139293
H16   H     H_    0.343833 0.364113 0.245500 0.178342
H17   H     H_    0.223425 0.363436 0.237662 0.112269
H18   H     H_    0.378998 0.202754 0.280750 0.240671
H19   H     H_    0.257981 0.199764 0.273994 0.216297
H20   H     H_    0.215202 0.254344 0.115932 0.263203
H21   H     H_    0.297013 0.154166 0.134904 0.269164
H22   H     H_    0.336937 0.257449 0.122835 0.259810
H23   H     H_    0.228336 0.542606 0.530484 0.169615
H24   H     H_    0.590562 0.765846 0.602298 0.186052
H25   H     H_    0.699437 0.773234 0.579310 0.111647
H26   H     H_    0.656235 0.774890 0.761937 0.232997
H27   H     H_    0.769473 0.780389 0.745437 0.213759
H28   H     H_    0.592101 0.913585 0.668524 0.269197
H29   H     H_    0.706042 0.918943 0.651861 0.269419
H30   H     H_    0.687837 0.928918 0.760717 0.262483
H31   H     H_    0.785049 0.260689 0.443656 0.208018
H32   H     H_    0.849848 0.206769 0.598627 0.226021
H33   H     H_    0.766935 0.292040 0.626054 0.253223
H34   H     H_    0.769680 0.460384 0.465326 0.170349
H35   H     H_    0.856619 0.320804 0.578756 0.236031
H36   H     H_    0.194605 0.755050 0.507180 0.216731
H37   H     H_    0.292355 0.780616 0.654793 0.232850
H38   H     H_    0.374618 0.688657 0.638126 0.239991
H39   H     H_    0.260265 0.672127 0.643211 0.224284
H40   H     H_    0.859945 0.690335 0.672654 0.152230
H41   H     H_    0.145611 0.300417 0.336786 0.151617
H42   H     H_    0.128751 0.605077 0.586068 0.137669
H43   H     H_    0.871759 0.391890 0.415476 0.138427
H44   H     H_    0.416906 0.639564 0.031643 0.133515
N1    N     N_R   0.731710 0.552730 0.549140 -0.133372
N2    N     N_R   0.268290 0.447270 0.450860 -0.131962
N3    N     N_2   0.747793 0.271054 0.490341 -0.299025
N4    N     N_2   0.265568 0.734971 0.525892 -0.296089
O1    O     O_R   0.383110 0.605620 0.475230 -0.590322
O2    O     O_3   0.686344 0.656375 0.646699 -0.618036
O3    O     O_R   0.616890 0.394380 0.524770 -0.594727
O4    O     O_R   0.531900 0.639510 0.506760 -0.608072
O5    O     O_R   0.468100 0.360490 0.493240 -0.570288
O6    O     O_R   0.425620 0.483070 0.607460 -0.618747
O7    O     O_R   0.574380 0.516930 0.392540 -0.618226
O8    O     O_R   0.574400 0.516960 0.638990 -0.566358
O9    O     O_R   0.425600 0.483040 0.361010 -0.598296
O10   O     O_3   0.319665 0.335940 0.364527 -0.625272
Zn1   Zn    Zn3+2 0.400660 0.477370 0.478940 0.980170
Zn2   Zn    Zn3+2 0.599340 0.522630 0.521060 0.977591

loop_
_geom_bond_atom_site_label_1
_geom_bond_atom_site_label_2
_ccdc_geom_bond_type
C21   C26   A    
C37   C43   T    
C23   C45   A    
C22   C29   A    
C27   C29   A    
C48   H18   S    
C36   C42   T    
O4    Zn2   S    
C2    C57   A    
C17   O7    A    
C39   C41   S    
C44   C45   A    
C25   C28   A    
C50   H24   S    
C26   C27   A    
C33   C39   S    
C5    C58   A    
C55   N3    S    
C11   H40   S    
C19   C21   A    
C17   O9    A    
C5    C6    A    
C11   C14   A    
C20   C25   A    
C49   H20   S    
C32   C39   S    
C23   H9    S    
C3    C23   A    
C28   H43   S    
C35   H12   S    
O9    Zn1   S    
C46   C55   A    
C53   H33   S    
C31   C33   S    
C54   H39   S    
C15   N2    A    
C54   H38   S    
C29   H14   S    
C40   C42   S    
C34   C55   A    
C33   H1    S    
C50   O2    S    
C41   C43   S    
C51   H27   S    
C2    C6    A    
C12   O3    A    
C50   H25   S    
C47   O10   S    
C39   H3    S    
C4    C34   A    
C27   H42   S    
C33   C40   S    
C54   N4    S    
C53   H35   S    
C51   C52   S    
C31   H44   S    
C52   H30   S    
C35   C38   S    
C12   C46   S    
C34   H10   S    
C30   H15   S    
C25   C26   A    
C49   H21   S    
C13   C24   A    
C48   H19   S    
C13   H41   S    
C2    C4    A    
C32   C35   S    
C3    C9    A    
C1    O4    A    
C19   N2    A    
C44   C56   A    
C1    C44   S    
C47   C48   S    
C50   C51   S    
C17   C37   S    
C54   H37   S    
O8    Zn2   S    
C1    O1    A    
C48   C49   S    
C20   C22   A    
C13   C15   A    
C46   C57   A    
N1    Zn2   S    
C32   H2    S    
C4    C10   A    
C45   N4    S    
C16   O6    A    
N2    Zn1   S    
C7    C9    A    
H36   N4    S    
C8    H13   S    
C31   C41   S    
C9    H5    S    
C52   H29   S    
C10   H6    S    
C47   H16   S    
C57   H7    S    
C16   O8    A    
C7    H11   S    
C5    C8    A    
C49   H22   S    
C6    C7    A    
O3    Zn2   S    
C11   C22   A    
C31   C38   S    
O5    Zn1   S    
C18   H34   S    
C52   H28   S    
C47   H17   S    
C16   C36   S    
C38   C40   S    
C14   O2    S    
C14   N1    A    
O6    Zn1   S    
C56   H8    S    
C28   C30   A    
C56   C58   A    
C18   C20   A    
C18   N1    A    
C32   C40   S    
C35   C41   S    
C24   C30   A    
O7    Zn2   S    
C3    C58   A    
C53   N3    S    
C8    C10   A    
C21   C24   A    
H31   N3    S    
C53   H32   S    
C15   O10   S    
C19   H23   S    
C51   H26   S    
O1    Zn1   S    
C12   O5    A    
C38   H4    S    
