data_mof_unit_13925.cif
_audit_creation_date              2012-12-10T20:23:07-0500
_audit_creation_method            fapswitch 2.2
_symmetry_space_group_name_H-M    P1
_symmetry_Int_Tables_number       1
_space_group_crystal_system       triclinic
_cell_length_a                    18.810797
_cell_length_b                    18.72723
_cell_length_c                    17.49685
_cell_angle_alpha                 90.042135
_cell_angle_beta                  92.007303
_cell_angle_gamma                 89.123558
_cell_volume                      6159.18445647

loop_
_atom_site_label
_atom_site_type_symbol
_atom_type_description
_atom_site_fract_x
_atom_site_fract_y
_atom_site_fract_z
_atom_type_partial_charge
C1    C     C_R   0.365245 0.500466 0.501907 0.902381
C2    C     C_R   0.634931 0.499497 0.502052 0.915282
C3    C     C_R   0.854256 0.503975 0.565639 -0.110672
C4    C     C_R   0.153981 0.510782 0.577069 -0.145575
C5    C     C_R   0.711143 0.498488 0.518810 -0.152502
C6    C     C_R   0.291352 0.501543 0.522872 -0.160960
C7    C     C_R   0.965365 0.562186 0.613874 -0.149921
C8    C     C_R   0.043998 0.442724 0.567763 -0.181443
C9    C     C_R   0.039355 0.563707 0.617671 -0.161043
C10   C     C_R   0.970422 0.441692 0.562666 -0.162022
C11   C     C_R   0.078564 0.504729 0.592141 0.148628
C12   C     C_R   0.930863 0.502201 0.583309 0.213995
C13   C     C_R   0.558263 0.726331 0.528215 0.279495
C14   C     C_R   0.471184 0.273246 0.438636 0.271415
C15   C     C_R   0.442374 0.728450 0.471044 0.275792
C16   C     C_R   0.529275 0.272068 0.560854 0.272370
C17   C     C_R   0.561763 0.801018 0.520287 -0.258790
C18   C     C_R   0.477517 0.198267 0.434985 -0.261155
C19   C     C_R   0.440747 0.803565 0.475705 -0.254567
C20   C     C_R   0.524737 0.197070 0.563048 -0.251937
C21   C     C_R   0.501652 0.841761 0.497409 0.117425
C22   C     C_R   0.501484 0.158182 0.498669 0.125408
C23   C     C_R   0.458083 0.963466 0.445077 0.345142
C24   C     C_R   0.551940 0.036484 0.542790 0.330743
C25   C     C_R   0.545853 0.961925 0.549791 0.356931
C26   C     C_R   0.450765 0.038049 0.453490 0.345062
C27   C     C_R   0.501402 0.076967 0.498290 -0.255884
C28   C     C_R   0.502012 0.922977 0.497307 -0.260737
C29   C     C_R   0.499110 0.500077 0.353570 0.882983
C30   C     C_R   0.498169 0.500079 0.646327 0.879234
C31   C     C_R   0.490663 0.563983 0.848760 0.194647
C32   C     C_R   0.501226 0.439300 0.149860 0.193832
C33   C     C_R   0.447323 0.559320 0.154996 0.189733
C34   C     C_R   0.449274 0.440443 0.841592 0.192755
C35   C     C_R   0.502317 0.562331 0.770663 -0.203668
C36   C     C_R   0.512904 0.441026 0.228824 -0.214910
C37   C     C_R   0.459110 0.559586 0.233942 -0.210035
C38   C     C_R   0.460205 0.440489 0.763386 -0.223862
C39   C     C_R   0.488116 0.500530 0.728243 -0.126123
C40   C     C_R   0.491444 0.500579 0.270790 -0.126619
C41   C     C_R   0.464894 0.502422 0.884019 0.103851
C42   C     C_R   0.468277 0.498748 0.113305 0.109577
C43   C     C_1   0.460421 0.501029 0.964617 -0.034140
C44   C     C_1   0.461492 0.499795 0.032445 -0.025894
C45   C     C_R   0.740084 0.447055 0.569178 -0.312659
C46   C     C_R   0.270715 0.455405 0.580672 -0.274741
C47   C     C_R   0.243967 0.553429 0.493248 -0.316678
C48   C     C_R   0.753386 0.553034 0.492219 -0.310268
C49   C     C_R   0.812091 0.448278 0.591881 0.447030
C50   C     C_R   0.203164 0.461291 0.609958 0.453293
C51   C     C_R   0.174737 0.557497 0.518993 0.459574
C52   C     C_R   0.824756 0.557367 0.516692 0.453318
H1    H     H_    0.522927 0.609077 0.742999 0.160998
H2    H     H_    0.539400 0.396309 0.257536 0.156036
H3    H     H_    0.442147 0.605453 0.266830 0.158104
H4    H     H_    0.446206 0.393883 0.729836 0.158744
H5    H     H_    0.706189 0.407293 0.592740 0.158024
H6    H     H_    0.308104 0.416612 0.605574 0.176874
H7    H     H_    0.259958 0.589578 0.449038 0.163943
H8    H     H_    0.730813 0.592238 0.452593 0.161614
H9    H     H_    0.935155 0.608725 0.631266 0.126296
H10   H     H_    0.073971 0.397288 0.546910 0.152061
H11   H     H_    0.065955 0.611838 0.636496 0.150273
H12   H     H_    0.944488 0.395289 0.538255 0.129106
H13   H     H_    0.611672 0.826602 0.534080 0.200213
H14   H     H_    0.462109 0.171937 0.382126 0.200283
H15   H     H_    0.391334 0.831469 0.461606 0.200699
H16   H     H_    0.540410 0.169827 0.615532 0.201010
N1    N     N_R   0.500000 0.689440 0.500000 -0.086178
N2    N     N_R   0.500000 0.310560 0.500000 -0.087121
O1    O     O_R   0.398180 0.560840 0.499980 -0.610550
O2    O     O_R   0.601820 0.439160 0.500020 -0.618326
O3    O     O_R   0.601820 0.560840 0.500020 -0.613446
O4    O     O_R   0.398180 0.439160 0.499980 -0.622681
O5    O     O_R   0.500000 0.560840 0.389110 -0.620072
O6    O     O_R   0.500000 0.439160 0.610890 -0.622793
O7    O     O_R   0.500000 0.560840 0.610890 -0.621189
O8    O     O_R   0.500000 0.439160 0.389110 -0.616994
Zn1   Zn    Zn3+2 0.500000 0.581210 0.500000 0.935573
Zn2   Zn    Zn3+2 0.500000 0.418790 0.500000 0.929522
C53   C     C_3   0.506803 0.630896 0.893798 -0.926207
H17   H     H_    0.526117 0.674193 0.856828 0.236828
H18   H     H_    0.457866 0.650502 0.921234 0.244500
H19   H     H_    0.548526 0.619274 0.938722 0.246735
C54   C     C_3   0.524534 0.374472 0.105431 -0.924936
H20   H     H_    0.549077 0.332721 0.143401 0.237813
H21   H     H_    0.477819 0.351024 0.074676 0.244104
H22   H     H_    0.564299 0.389974 0.063289 0.247132
C55   C     C_3   0.413002 0.623615 0.116100 -0.927157
H23   H     H_    0.399268 0.665999 0.157759 0.236901
H24   H     H_    0.450048 0.646448 0.074899 0.246865
H25   H     H_    0.363330 0.607618 0.084921 0.245061
C56   C     C_3   0.422137 0.374106 0.879032 -0.935279
H26   H     H_    0.411308 0.331004 0.836749 0.237737
H27   H     H_    0.462390 0.353740 0.921877 0.249304
H28   H     H_    0.371954 0.386651 0.908118 0.249960
O9    O     O_3   0.840937 0.400784 0.646082 -0.638082
C57   C     C_3   0.826807 0.328701 0.626923 0.071747
H29   H     H_    0.878570 0.299326 0.626674 0.158794
H30   H     H_    0.801623 0.320917 0.568830 0.121888
C58   C     C_3   0.781325 0.295612 0.688068 -0.321569
H31   H     H_    0.810880 0.296878 0.744176 0.232519
H32   H     H_    0.731247 0.327069 0.693472 0.217464
C59   C     C_3   0.763021 0.218570 0.668432 -0.988194
H33   H     H_    0.732179 0.216454 0.613232 0.268151
H34   H     H_    0.730226 0.195955 0.713800 0.270736
H35   H     H_    0.812341 0.185629 0.664222 0.270739
O10   O     O_3   0.184719 0.415032 0.667445 -0.643428
C60   C     C_3   0.181586 0.452482 0.737672 0.095659
H36   H     H_    0.148800 0.420686 0.776353 0.172971
H37   H     H_    0.154548 0.505684 0.731719 0.126499
C61   C     C_3   0.255994 0.460585 0.775333 -0.368701
H38   H     H_    0.281858 0.407111 0.782157 0.238240
H39   H     H_    0.289415 0.493717 0.738588 0.221684
C62   C     C_3   0.251886 0.496360 0.853492 -0.948375
H40   H     H_    0.225367 0.549597 0.847900 0.263057
H41   H     H_    0.306299 0.503855 0.878394 0.273593
H42   H     H_    0.221785 0.462651 0.892906 0.261719
O11   O     O_3   0.128095 0.608989 0.489388 -0.641483
C63   C     C_3   0.094595 0.582518 0.421933 0.075857
H43   H     H_    0.071119 0.529074 0.431581 0.146463
H44   H     H_    0.133511 0.578253 0.375548 0.132237
C64   C     C_3   0.034757 0.634360 0.396900 -0.298623
H45   H     H_    0.999087 0.643580 0.445332 0.265397
H46   H     H_    0.057821 0.686376 0.381079 0.212026
C65   C     C_3   0.991169 0.605374 0.328886 -0.931908
H47   H     H_    0.025745 0.595797 0.279616 0.252910
H48   H     H_    0.948920 0.644769 0.311623 0.262500
H49   H     H_    0.965524 0.554644 0.344588 0.277351
O12   O     O_3   0.867797 0.609479 0.487459 -0.649196
C66   C     C_3   0.844015 0.678706 0.508761 0.053943
H50   H     H_    0.888645 0.705179 0.540266 0.151841
H51   H     H_    0.798317 0.679344 0.547928 0.128382
C67   C     C_3   0.824856 0.722642 0.437080 -0.328292
H52   H     H_    0.872883 0.728158 0.402441 0.224955
H53   H     H_    0.783623 0.694864 0.401747 0.218747
C68   C     C_3   0.796697 0.796820 0.457719 -0.967732
H54   H     H_    0.747470 0.792524 0.490605 0.264573
H55   H     H_    0.783976 0.827566 0.404625 0.265136
H56   H     H_    0.837336 0.826175 0.492368 0.266574
C69   C     C_3   0.619287 0.690285 0.570924 -0.857719
H57   H     H_    0.644959 0.727654 0.612438 0.198849
H58   H     H_    0.600872 0.645143 0.605371 0.270348
H59   H     H_    0.660251 0.673520 0.530388 0.240157
C70   C     C_3   0.430754 0.309392 0.373810 -0.832013
H60   H     H_    0.390301 0.273094 0.348061 0.203114
H61   H     H_    0.400775 0.356613 0.393542 0.272814
H62   H     H_    0.467637 0.323251 0.328445 0.235505
C71   C     C_3   0.378796 0.693671 0.434261 -0.855458
H63   H     H_    0.348420 0.731546 0.396176 0.204449
H64   H     H_    0.395146 0.648632 0.397514 0.258822
H65   H     H_    0.342672 0.677053 0.479367 0.251945
C72   C     C_3   0.567847 0.307084 0.626805 -0.857189
H66   H     H_    0.607669 0.269819 0.653980 0.214091
H67   H     H_    0.597882 0.353368 0.607458 0.265814
H68   H     H_    0.529745 0.322279 0.670934 0.239258
O13   O     O_3   0.417789 0.931135 0.387521 -0.630627
C73   C     C_3   0.461507 0.913111 0.325922 0.101823
H69   H     H_    0.437016 0.866902 0.295741 0.160887
H70   H     H_    0.516318 0.895364 0.344606 0.125153
C74   C     C_3   0.464807 0.975530 0.269608 -0.317377
H71   H     H_    0.409899 0.992687 0.251696 0.245908
H72   H     H_    0.491794 0.021372 0.297869 0.220256
C75   C     C_3   0.505539 0.954484 0.198940 -0.989304
H73   H     H_    0.560950 0.938095 0.215542 0.265289
H74   H     H_    0.507258 0.000800 0.159498 0.271112
H75   H     H_    0.478806 0.909705 0.168458 0.268267
O14   O     O_3   0.607549 0.068858 0.582234 -0.635607
C76   C     C_3   0.666335 0.074473 0.534309 0.132066
H76   H     H_    0.674805 0.132014 0.522915 0.146462
H77   H     H_    0.659543 0.047400 0.477512 0.108038
C77   C     C_3   0.732350 0.042714 0.575724 -0.307884
H78   H     H_    0.739238 0.067707 0.633051 0.232836
H79   H     H_    0.725106 0.984444 0.583800 0.245686
C78   C     C_3   0.799145 0.054467 0.530634 -1.002450
H80   H     H_    0.793959 0.028493 0.473650 0.269199
H81   H     H_    0.845949 0.030743 0.562247 0.270664
H82   H     H_    0.808113 0.112489 0.523022 0.266153
O15   O     O_3   0.587002 0.928141 0.606427 -0.636304
C79   C     C_3   0.544416 0.911788 0.669026 0.095896
H83   H     H_    0.568490 0.863939 0.697842 0.160089
H84   H     H_    0.488805 0.897238 0.651674 0.125840
C80   C     C_3   0.544048 0.973705 0.726340 -0.317654
H85   H     H_    0.599717 0.987911 0.742593 0.242052
H86   H     H_    0.517197 0.021179 0.699635 0.223291
C81   C     C_3   0.505065 0.953939 0.798165 -0.987486
H87   H     H_    0.448960 0.940494 0.783241 0.266500
H88   H     H_    0.505424 0.999891 0.838310 0.270884
H89   H     H_    0.531753 0.907526 0.827143 0.267014
O16   O     O_3   0.395451 0.071936 0.413065 -0.630912
C82   C     C_3   0.340341 0.089732 0.463110 0.101736
H90   H     H_    0.310973 0.136677 0.438375 0.162177
H91   H     H_    0.360270 0.106313 0.521201 0.125348
C83   C     C_3   0.288504 0.027793 0.469210 -0.317791
H92   H     H_    0.269318 0.011771 0.410976 0.245838
H93   H     H_    0.316182 0.981198 0.496783 0.221305
C84   C     C_3   0.224831 0.048802 0.516466 -0.984057
H94   H     H_    0.242834 0.064066 0.575299 0.267067
H95   H     H_    0.188520 0.002829 0.520108 0.270981
H96   H     H_    0.195080 0.094340 0.489284 0.267603

loop_
_geom_bond_atom_site_label_1
_geom_bond_atom_site_label_2
_ccdc_geom_bond_type
C83   H93   S    
O16   C82   S    
C35   H1    S    
C76   H77   S    
C76   H76   S    
C14   C18   A    
C24   C27   A    
C80   H85   S    
C66   C67   S    
C74   C75   S    
C67   C68   S    
O1    Zn1   S    
C53   H17   S    
C3    C49   A    
C64   H45   S    
C78   H81   S    
C54   H20   S    
C79   H83   S    
C25   C28   A    
C15   C19   A    
C68   H55   S    
C14   C70   S    
C45   H5    S    
C26   C27   A    
C1    O1    A    
C33   C42   A    
C32   C36   A    
C75   H73   S    
C24   O14   S    
C37   C40   A    
C71   H64   S    
C70   H60   S    
C38   C39   A    
C3    C52   A    
O8    Zn2   S    
C64   H46   S    
C83   C84   S    
C60   H37   S    
C62   H40   S    
O9    C57   S    
O10   C60   S    
C23   C26   A    
C84   H95   S    
C59   H33   S    
C3    C12   S    
C73   C74   S    
C74   H72   S    
C30   O7    A    
O13   C73   S    
C7    H9    S    
C29   O8    A    
C77   H79   S    
C62   H41   S    
C51   O11   S    
C34   C56   S    
C19   H15   S    
C13   C69   S    
C55   H24   S    
C6    C46   A    
C41   C43   S    
C77   C78   S    
C70   H62   S    
C54   H21   S    
C83   H92   S    
C58   H32   S    
C36   H2    S    
C34   C38   A    
C46   H6    S    
C73   H70   S    
C75   H74   S    
C14   N2    A    
C34   C41   A    
C42   C44   S    
C2    O2    A    
C59   H34   S    
C61   H38   S    
C70   H61   S    
C63   H44   S    
C48   H8    S    
C78   H82   S    
O7    Zn1   S    
C26   O16   S    
C7    C12   A    
C15   N1    A    
C68   H56   S    
C47   H7    S    
C6    C47   A    
C8    C11   A    
C4    C51   A    
N2    Zn2   S    
C82   H90   S    
C58   H31   S    
C36   C40   A    
C16   N2    A    
C24   C25   A    
C80   C81   S    
C64   C65   S    
C67   H53   S    
C65   H49   S    
C5    C45   A    
C33   C37   A    
C1    C6    S    
C4    C50   A    
C4    C11   S    
C84   H96   S    
C35   C39   A    
C43   C44   T    
C82   H91   S    
C20   H16   S    
C33   C55   S    
C79   C80   S    
C30   O6    A    
C78   H80   S    
C45   C49   A    
C16   C20   A    
C62   H42   S    
C25   O15   S    
O3    Zn1   S    
C56   H26   S    
C23   C28   A    
C55   H25   S    
C9    C11   A    
C2    O3    A    
C10   C12   A    
C61   H39   S    
C71   H65   S    
C8    C10   A    
O14   C76   S    
C21   C28   S    
C20   C22   A    
C56   H28   S    
C57   H30   S    
C22   C27   S    
C73   H69   S    
C76   C77   S    
C31   C35   A    
C69   H59   S    
C2    C5    S    
C72   H67   S    
C1    O4    A    
C81   H88   S    
C66   H50   S    
C15   C71   S    
C53   H19   S    
C77   H78   S    
C54   H22   S    
C7    C9    A    
C65   H48   S    
C31   C41   A    
C19   C21   A    
C18   C22   A    
C9    H11   S    
C50   O10   S    
C75   H75   S    
C10   H12   S    
C60   C61   S    
O6    Zn2   S    
C66   H51   S    
C53   H18   S    
C47   C51   A    
O11   C63   S    
C63   C64   S    
C67   H52   S    
C29   O5    A    
C18   H14   S    
C57   C58   S    
C68   H54   S    
C46   C50   A    
C17   H13   S    
C31   C53   S    
C13   C17   A    
C52   O12   S    
C81   H89   S    
C69   H58   S    
O12   C66   S    
C81   H87   S    
C82   C83   S    
O2    Zn2   S    
C74   H71   S    
C69   H57   S    
C79   H84   S    
C5    C48   A    
C13   N1    A    
C65   H47   S    
C32   C54   S    
C23   O13   S    
C29   C40   S    
C72   H68   S    
C30   C39   S    
C59   H35   S    
C84   H94   S    
C17   C21   A    
N1    Zn1   S    
C49   O9    S    
O15   C79   S    
C37   H3    S    
C48   C52   A    
C38   H4    S    
C80   H86   S    
C56   H27   S    
C57   H29   S    
C60   H36   S    
C16   C72   S    
C32   C42   A    
C63   H43   S    
O4    Zn2   S    
C58   C59   S    
C55   H23   S    
C71   H63   S    
O5    Zn1   S    
C61   C62   S    
C8    H10   S    
C72   H66   S    
