data_mof_unit_36089.cif
_audit_creation_date              2013-03-05T15:54:25-0500
_audit_creation_method            fapswitch 2.2
_symmetry_space_group_name_H-M    P1
_symmetry_Int_Tables_number       1
_space_group_crystal_system       triclinic
_cell_length_a                    15.712791
_cell_length_b                    10.651116
_cell_length_c                    10.02247
_cell_angle_alpha                 93.097705
_cell_angle_beta                  89.323238
_cell_angle_gamma                 93.439007
_cell_volume                      1671.81934893

loop_
_atom_site_label
_atom_site_type_symbol
_atom_site_description
_atom_site_fract_x
_atom_site_fract_y
_atom_site_fract_z
_atom_type_partial_charge
O1    O     O_R   0.500000 0.316780 0.614690 -0.607433
O2    O     O_R   0.499990 0.316750 0.385360 -0.566595
C1    C     C_R   0.510699 0.262090 0.495891 0.891295
O3    O     O_R   0.376780 0.500000 0.614650 -0.598844
O4    O     O_R   0.376770 0.499980 0.385310 -0.619169
C2    C     C_R   0.338239 0.500890 0.500584 0.889547
Zn1   Zn    Zn3+2 0.500010 0.500020 0.653130 1.036481
Zn2   Zn    Zn3+2 0.499990 0.499980 0.346870 1.060674
O5    O     O_R   0.500010 0.683250 0.614640 -0.613100
O6    O     O_R   0.500000 0.683220 0.385310 -0.581851
O7    O     O_R   0.623230 0.500020 0.614690 -0.573673
O8    O     O_R   0.623220 0.500000 0.385350 -0.601075
C3    C     C_R   0.495411 0.740717 0.504341 0.910602
C4    C     C_R   0.661554 0.499884 0.499324 0.886882
C5    C     C_3   0.966107 0.419033 0.590120 -0.242123
C6    C     C_3   0.022797 0.382354 0.470027 0.300646
H1    H     H_    0.938078 0.354065 0.664058 0.220875
C7    C     C_1   0.249093 0.500814 0.501142 -0.051842
C8    C     C_1   0.750144 0.497675 0.497437 -0.071844
C9    C     C_3   0.026468 0.537801 0.620544 -0.131017
C10   C     C_3   0.082427 0.498444 0.500105 -0.019401
C11   C     C_3   0.974501 0.613447 0.526318 0.182130
C12   C     C_3   0.915910 0.495658 0.495779 -0.044810
C13   C     C_3   0.031566 0.574990 0.406035 -0.233507
C14   C     C_3   0.971309 0.456435 0.375495 0.162851
C15   C     C_1   0.173609 0.500150 0.500764 0.197199
C16   C     C_1   0.825254 0.496084 0.496081 0.078102
H2    H     H_    0.058498 0.641443 0.332992 0.239356
H3    H     H_    0.047419 0.573754 0.721321 0.253311
C17   C     C_R   0.610183 0.144777 0.694254 -0.206361
H4    H     H_    0.638225 0.236827 0.672219 0.177194
C18   C     C_R   0.628708 0.096634 0.816046 0.144937
C19   C     C_R   0.590824 0.979029 0.848402 0.332915
C20   C     C_R   0.540361 0.909200 0.752277 -0.163862
H5    H     H_    0.506921 0.825111 0.784630 0.223477
C21   C     C_R   0.530125 0.951327 0.622013 0.014262
C22   C     C_R   0.556850 0.075892 0.600818 0.036011
C23   C     C_R   0.529552 0.130369 0.486223 -0.222544
C24   C     C_R   0.499953 0.055770 0.374881 0.261031
C25   C     C_R   0.469108 0.933099 0.395363 0.124139
C26   C     C_R   0.491775 0.877071 0.513267 -0.214737
C27   C     C_R   0.349435 0.421448 0.133528 0.114740
C28   C     C_R   0.274579 0.451252 0.071069 0.169497
C29   C     C_R   0.275735 0.459507 0.932468 0.190967
C30   C     C_R   0.349751 0.429787 0.862556 0.128428
C31   C     C_R   0.427967 0.457357 0.927253 -0.038633
C32   C     C_R   0.428313 0.454063 0.070454 -0.001454
N1    N     N_R   0.499210 0.498800 0.142780 -0.135067
C33   C     C_R   0.568056 0.548068 0.071899 0.209168
C34   C     C_R   0.569343 0.542704 0.929453 0.297096
N2    N     N_R   0.499180 0.498720 0.857170 -0.162011
N3    N     N_R   0.048064 0.254223 0.440482 0.254279
O9    O     O_R   0.990019 0.163853 0.416500 -0.308450
O10   O     O_R   0.127761 0.228179 0.444333 -0.313702
N4    N     N_R   0.602218 0.928587 0.976771 0.258614
O11   O     O_R   0.674133 0.948043 0.039560 -0.286872
O12   O     O_R   0.544596 0.849308 0.023497 -0.369767
I1    I     I_    0.374474 0.840615 0.263777 -0.089875
I2    I     I_    0.670509 0.657785 0.167224 -0.012694
I3    I     I_    0.331511 0.252475 0.236546 -0.056822
N5    N     N_R   0.197682 0.467326 0.146143 0.232115
O13   O     O_R   0.163241 0.575518 0.147903 -0.355050
O14   O     O_R   0.153160 0.369436 0.186799 -0.310057
N6    N     N_R   0.200707 0.483240 0.861390 0.239345
O15   O     O_R   0.128883 0.420135 0.883460 -0.309551
O16   O     O_R   0.202020 0.580318 0.788090 -0.407859
I4    I     I_    0.330974 0.252569 0.755346 -0.149281
N7    N     N_R   0.644612 0.588099 0.861734 0.237185
O17   O     O_R   0.645339 0.692795 0.800928 -0.363399
O18   O     O_R   0.715146 0.531344 0.871467 -0.355533
I5    I     I_    0.925434 0.393813 0.181732 -0.007684
I6    I     I_    0.934273 0.799235 0.571226 -0.093948
N8    N     N_R   0.515309 0.098942 0.242079 0.248868
O19   O     O_R   0.467811 0.059042 0.141492 -0.318267
O20   O     O_R   0.584709 0.167258 0.218201 -0.336751
I7    I     I_    0.707060 0.215562 0.946783 -0.057704

loop_
_geom_bond_atom_site_label_1
_geom_bond_atom_site_label_2
_geom_bond_distance
_ccdc_geom_bond_type
C19   N4    1.437937 S    
C10   C15   1.431837 S    
C6    C10   1.524821 S    
N8    O19   1.298977 A    
C7    C15   1.185701 T    
N4    O11   1.300181 A    
C3    C26   1.454754 S    
C30   C31   1.404302 A    
C29   N6    1.426961 S    
Zn1   O7    1.969621 S    
C21   C22   1.394011 A    
O4    C2    1.297847 A    
O7    C4    1.297316 A    
C5    C6    1.536360 S    
C5    H1    1.110440 S    
C20   H5    1.074384 S    
N5    O14   1.301617 A    
O5    C3    1.297019 A    
C1    C23   1.449128 S    
N7    O17   1.298768 A    
C30   I4    2.127442 S    
C14   I5    2.138029 S    
C12   C16   1.424711 S    
C8    C16   1.181235 T    
C5    C12   1.536379 S    
N8    O20   1.301272 A    
C21   C26   1.428887 A    
O3    Zn1   1.978771 S    
C11   I6    2.136600 S    
N3    O10   1.300230 A    
C19   C20   1.407094 A    
C9    H3    1.107304 S    
C5    C9    1.553693 S    
C2    C7    1.400631 S    
C25   I1    2.156586 S    
C13   H2    1.108483 S    
C23   C24   1.401789 A    
C13   C14   1.551225 S    
O3    C2    1.300766 A    
C27   I3    2.125466 S    
C24   C25   1.390996 A    
C31   N2    1.376678 A    
C17   C22   1.409981 A    
O1    C1    1.310459 A    
N6    O16   1.299401 A    
C28   C29   1.396475 A    
Zn2   N1    2.045021 S    
C22   C23   1.397601 A    
C32   N1    1.382586 A    
Zn2   O8    1.978771 S    
C34   N2    1.371114 A    
Zn2   O6    1.968831 S    
N1    C33   1.379958 A    
C9    C11   1.545031 S    
N4    O12   1.301185 A    
C11   C13   1.546042 S    
C27   C28   1.399908 A    
N3    O9    1.300360 A    
C28   N5    1.429965 S    
C6    C14   1.533042 S    
Zn1   O5    2.009710 S    
C31   C32   1.437637 A    
C25   C26   1.411032 A    
O1    Zn1   1.968832 S    
C4    C8    1.393484 S    
O2    Zn2   2.009712 S    
C29   C30   1.394519 A    
C6    N3    1.458202 S    
O8    C4    1.297747 A    
O6    C3    1.314440 A    
C18   I7    2.123390 S    
O4    Zn2   1.969620 S    
C33   I2    2.135404 S    
N6    O15   1.301348 A    
O2    C1    1.296279 A    
Zn1   N2    2.045663 S    
C18   C19   1.406566 A    
C17   C18   1.389833 A    
C17   H4    1.083250 S    
C20   C21   1.417261 A    
C27   C32   1.417731 A    
C24   N8    1.444467 S    
N5    O13   1.301355 A    
C12   C14   1.532973 S    
C9    C10   1.539612 S    
N7    O18   1.300972 A    
C33   C34   1.425666 A    
C10   C13   1.539917 S    
C11   C12   1.530294 S    
C34   N7    1.428658 S    
