data_mof_unit_57461.cif
_audit_creation_date              2012-12-11T14:56:20-0500
_audit_creation_method            fapswitch 2.2
_symmetry_space_group_name_H-M    P1
_symmetry_Int_Tables_number       1
_space_group_crystal_system       triclinic
_cell_length_a                    10.481567
_cell_length_b                    10.664816
_cell_length_c                    17.024606
_cell_angle_alpha                 80.148156
_cell_angle_beta                  89.946004
_cell_angle_gamma                 119.020622
_cell_volume                      1631.79548207

loop_
_atom_site_label
_atom_site_type_symbol
_atom_type_description
_atom_site_fract_x
_atom_site_fract_y
_atom_site_fract_z
_atom_type_partial_charge
Br1   Br    Br    0.422866 0.509776 0.716905 -0.519928
C1    C     C_R   0.279309 0.888683 0.132800 0.559860
C2    C     C_1   0.685303 0.402912 0.709920 -0.014498
C3    C     C_R   0.611801 0.708309 0.807119 -0.103332
C4    C     C_R   0.638100 0.282483 0.085750 0.537452
C5    C     C_R   0.584338 0.695999 0.729306 0.140365
C6    C     C_R   0.666651 0.819166 0.667369 0.035079
C7    C     C_R   0.766765 0.954138 0.686359 -0.149860
C8    C     C_R   0.778783 0.968641 0.765695 -0.135089
C9    C     C_R   0.695266 0.846240 0.826024 -0.008495
C10   C     C_R   0.248852 0.969164 0.758038 -0.118136
C11   C     C_R   0.236340 0.956071 0.679229 -0.121788
C12   C     C_R   0.826936 0.465307 0.251148 -0.135201
C13   C     C_R   0.164746 0.817096 0.660490 0.030041
C14   C     C_R   0.120782 0.691498 0.720266 -0.111851
C15   C     C_R   0.135939 0.704974 0.799648 -0.125845
C16   C     C_R   0.643910 0.855502 0.124069 0.544822
C17   C     C_R   0.193920 0.843500 0.818599 0.027004
C18   C     C_R   0.711704 0.772278 0.353684 0.535885
C19   C     C_R   0.727224 0.460031 0.382905 0.540520
C20   C     C_R   0.108516 0.812538 0.360016 0.539466
C21   C     C_R   0.677407 0.798084 0.586647 0.563172
C22   C     C_R   0.717900 0.446982 0.625932 0.569358
C23   C     C_R   0.806625 0.428858 0.176157 -0.116564
C24   C     C_R   0.102188 0.802435 0.585208 0.545628
C25   C     C_R   0.224325 0.864158 0.898905 0.550690
C26   C     C_R   0.640361 0.291332 0.862000 0.546992
C27   C     C_R   0.649314 0.865558 0.900737 0.547948
C28   C     C_R   0.547064 0.348749 0.197262 -0.131361
C29   C     C_R   0.567881 0.387219 0.271997 -0.122936
C30   C     C_R   0.706439 0.437310 0.301009 0.013454
C31   C     C_R   0.664952 0.361756 0.151053 0.023985
C32   C     C_1   0.685885 0.831073 0.201554 -0.026819
C33   C     C_1   0.704207 0.806656 0.270425 -0.036443
C34   C     C_1   0.228228 0.853975 0.215612 -0.041877
C35   C     C_1   0.179436 0.834580 0.283242 -0.043127
C36   C     C_1   0.662064 0.358703 0.780555 -0.023334
Cr1   Cr    Cr6+3 0.402240 0.783890 0.019450 1.031271
Cr2   Cr    Cr6+3 0.382360 0.097900 0.991800 1.035810
Cr3   Cr    Cr6+3 0.715380 0.118170 0.988700 1.029298
Cr4   Cr    Cr6+3 0.936650 0.882420 0.465510 1.029454
Cr5   Cr    Cr6+3 0.605770 0.565620 0.493360 1.060396
Cr6   Cr    Cr6+3 0.921340 0.550490 0.496380 1.026286
H1    H     H_    0.437296 0.299050 0.178513 0.138150
H2    H     H_    0.099591 0.608168 0.846065 0.135325
H3    H     H_    0.473865 0.369350 0.308644 0.147357
H4    H     H_    0.273071 0.053961 0.633512 0.154622
H5    H     H_    0.065324 0.582898 0.706530 0.151136
H6    H     H_    0.935507 0.509535 0.271566 0.133856
H7    H     H_    0.900145 0.443552 0.140366 0.144727
H8    H     H_    0.548743 0.612688 0.853834 0.164308
H9    H     H_    0.833193 0.048679 0.639779 0.149504
H10   H     H_    0.844683 0.076382 0.779389 0.155568
H11   H     H_    0.302543 0.078109 0.771437 0.165336
O1    O     O_R   0.521780 0.757110 0.108900 -0.515949
O2    O     O_R   0.805020 0.410040 0.421340 -0.489540
O3    O     O_R   0.049240 0.685450 0.403290 -0.516141
O4    O     O_R   0.275160 0.783810 0.101120 -0.494064
O5    O     O_R   0.077520 0.903010 0.551800 -0.512387
O6    O     O_R   0.802980 0.872780 0.546830 -0.504330
O7    O     O_R   0.578090 0.681300 0.569920 -0.459469
O8    O     O_R   0.608530 0.436370 0.586530 -0.454230
O9    O     O_R   0.798770 0.401880 0.597100 -0.508212
O10   O     O_R   0.043450 0.677890 0.566230 -0.515718
O11   O     O_3   0.821250 0.666180 0.485090 -0.324890
O12   O     O_R   0.513330 0.228330 0.898660 -0.487936
O13   O     O_R   0.237900 0.972600 0.090980 -0.504910
O14   O     O_R   0.511190 0.220540 0.061620 -0.519741
O15   O     O_R   0.736920 0.257720 0.063840 -0.517376
O16   O     O_R   0.710450 0.984050 0.081720 -0.492444
O17   O     O_R   0.524090 0.765520 0.933110 -0.514564
O18   O     O_R   0.277300 0.791600 0.938160 -0.491199
O19   O     O_R   0.240210 0.981010 0.915190 -0.512230
O20   O     O_R   0.739230 0.266130 0.888050 -0.517661
O21   O     O_R   0.712580 0.991850 0.918770 -0.498128
O22   O     O_3   0.499990 0.999980 0.999980 -0.268584
O23   O     O_R   0.083770 0.911170 0.376030 -0.506402
O24   O     O_R   0.808770 0.880340 0.383890 -0.479217
O25   O     O_R   0.584340 0.689460 0.394160 -0.503384
O26   O     O_R   0.614320 0.443940 0.423590 -0.508934

loop_
_geom_bond_atom_site_label_1
_geom_bond_atom_site_label_2
_ccdc_geom_bond_type
C1    C34   S    
C10   C17   A    
Cr5   O26   S    
C25   O18   A    
Cr2   O14   S    
C2    C22   S    
C34   C35   T    
C17   C25   S    
C19   O2    A    
Cr6   O9    S    
C6    C7    A    
C20   C35   S    
Cr1   O22   S    
Cr3   O16   S    
C28   C31   A    
C11   H4    S    
Cr4   O23   S    
C29   C30   A    
C14   C15   A    
C25   O19   A    
C4    O15   A    
Cr1   O4    S    
C22   O8    A    
Cr1   O1    S    
C7    C8    A    
Cr5   O11   S    
C26   O20   A    
C8    C9    A    
Cr5   O8    S    
C4    C31   S    
C22   O9    A    
C16   O16   A    
C16   C32   S    
C14   H5    S    
C4    O14   A    
C29   H3    S    
Cr6   O10   S    
C23   H7    S    
Cr1   O18   S    
Cr3   O15   S    
C19   O26   A    
C3    H8    S    
Br1   C5    S    
C7    H9    S    
Cr4   O5    S    
C3    C5    A    
C1    O13   A    
Cr4   O24   S    
Cr4   O11   S    
Cr3   O22   S    
C12   C23   A    
C24   O10   A    
C18   O24   A    
C23   C31   A    
C20   O3    A    
C28   C29   A    
Cr6   O11   S    
C32   C33   T    
Cr2   O22   S    
C18   O25   A    
Cr5   O7    S    
C10   H11   S    
C12   H6    S    
C11   C13   A    
C28   H1    S    
Cr2   O12   S    
C27   O17   A    
C8    H10   S    
C3    C9    A    
C9    C27   S    
C16   O1    A    
Cr1   O17   S    
Cr2   O13   S    
C12   C30   A    
Cr4   O6    S    
C18   C33   S    
C15   H2    S    
C10   C11   A    
C1    O4    A    
C5    C6    A    
C6    C21   S    
Cr3   O21   S    
C26   O12   A    
C21   O7    A    
C21   O6    A    
C26   C36   S    
Cr3   O20   S    
Cr2   O19   S    
C13   C24   S    
Cr6   O3    S    
Cr6   O2    S    
Cr5   O25   S    
C2    C36   T    
C15   C17   A    
C20   O23   A    
C13   C14   A    
C24   O5    A    
C27   O21   A    
C19   C30   S    
