data_mof_unit_42348.cif
_audit_creation_date              2012-12-11T15:09:47-0500
_audit_creation_method            fapswitch 2.2
_symmetry_space_group_name_H-M    P1
_symmetry_Int_Tables_number       1
_space_group_crystal_system       triclinic
_cell_length_a                    20.91687
_cell_length_b                    7.129148
_cell_length_c                    14.030711
_cell_angle_alpha                 90.000932
_cell_angle_beta                  98.087017
_cell_angle_gamma                 89.998538
_cell_volume                      2071.44579864

loop_
_atom_site_label
_atom_site_type_symbol
_atom_type_description
_atom_site_fract_x
_atom_site_fract_y
_atom_site_fract_z
_atom_type_partial_charge
O1    O     O_R   0.447130 0.507140 0.597350 -0.537114
O2    O     O_R   0.552870 0.007140 0.402650 -0.537115
O3    O     O_R   0.578910 0.181280 0.586990 -0.538743
O4    O     O_R   0.421090 0.681280 0.413010 -0.538740
C1    C     C_R   0.604489 0.344489 0.607384 0.725801
C2    C     C_R   0.395511 0.844491 0.392615 0.725803
O5    O     O_R   0.449230 0.177860 0.608640 -0.540907
O6    O     O_R   0.550770 0.677860 0.391360 -0.540906
O7    O     O_R   0.422260 0.000770 0.424450 -0.534970
O8    O     O_R   0.577740 0.500770 0.575550 -0.534969
C3    C     C_R   0.432966 0.346337 0.634750 0.689454
C4    C     C_R   0.567034 0.846331 0.365250 0.689453
O9    O     O_3   0.491310 0.336980 0.439550 -0.374657
O10   O     O_3   0.508690 0.836980 0.560450 -0.374658
V1    V     V_3+5 0.501610 0.064760 0.511210 1.427568
V2    V     V_3+5 0.498390 0.564760 0.488790 1.427575
C5    C     C_R   0.620177 0.879234 0.121605 -0.157971
C6    C     C_R   0.379819 0.379662 0.878378 -0.157974
H1    H     H_    0.528603 0.874419 0.173853 0.103973
H2    H     H_    0.471394 0.374859 0.826129 0.103975
H3    H     H_    0.704539 0.895160 0.997641 0.127407
H4    H     H_    0.295455 0.395791 0.002332 0.127409
H5    H     H_    0.598048 0.890698 0.047198 0.113726
H6    H     H_    0.401946 0.391334 0.952777 0.113727
C7    C     C_R   0.607987 0.855171 0.289522 -0.025738
C8    C     C_R   0.392013 0.355208 0.710476 -0.025741
C9    C     C_R   0.921485 0.844540 0.305784 -0.168093
C10   C     C_R   0.078517 0.344270 0.694226 -0.168091
C11   C     C_R   0.884616 0.834876 0.380526 -0.118133
C12   C     C_R   0.115387 0.334499 0.619488 -0.118134
C13   C     C_R   0.817447 0.839441 0.361435 -0.156879
C14   C     C_R   0.182555 0.339169 0.638575 -0.156880
C15   C     C_R   0.785167 0.854053 0.265836 0.076659
C16   C     C_R   0.214833 0.354003 0.734166 0.076660
C17   C     C_R   0.823374 0.864113 0.189522 0.065193
C18   C     C_R   0.176625 0.364199 0.810474 0.065195
C19   C     C_R   0.716418 0.858976 0.243395 0.071485
C20   C     C_R   0.283581 0.359017 0.756603 0.071484
C21   C     C_R   0.687626 0.873961 0.145576 0.140145
C22   C     C_R   0.312372 0.374260 0.854411 0.140145
C23   C     C_R   0.726183 0.883686 0.072295 -0.202508
C24   C     C_R   0.273813 0.384122 0.927687 -0.202511
C25   C     C_R   0.792941 0.878844 0.093712 -0.193569
C26   C     C_R   0.207056 0.379169 0.906274 -0.193574
C27   C     C_R   0.674985 0.849645 0.314572 -0.212731
C28   C     C_R   0.325015 0.349539 0.685431 -0.212735
C29   C     C_R   0.580577 0.869962 0.193301 -0.175190
C30   C     C_R   0.419421 0.370274 0.806687 -0.175188
C31   C     C_R   0.891545 0.859105 0.210647 -0.069796
C32   C     C_R   0.108455 0.359069 0.789353 -0.069799
H7    H     H_    0.692902 0.838261 0.390176 0.095635
H8    H     H_    0.307101 0.337951 0.609835 0.095639
H9    H     H_    0.973674 0.840561 0.322125 0.102258
H10   H     H_    0.026329 0.340185 0.677889 0.102260
H11   H     H_    0.908280 0.823617 0.454066 0.119626
H12   H     H_    0.091725 0.323063 0.545955 0.119628
H13   H     H_    0.820557 0.886848 0.034113 0.123792
H14   H     H_    0.179438 0.387283 0.965868 0.123797
C33   C     C_1   0.166596 0.857120 0.168311 -0.192477
C34   C     C_1   0.833403 0.357123 0.831689 -0.192475
C35   C     C_1   0.218994 0.854856 0.219423 0.002003
C36   C     C_1   0.781006 0.354858 0.780577 0.002004
C37   C     C_1   0.280742 0.853418 0.279460 0.000160
C38   C     C_1   0.719258 0.353417 0.720539 0.000159
C39   C     C_1   0.333104 0.851102 0.330672 -0.198970
C40   C     C_1   0.666896 0.351099 0.669327 -0.198971
O11   O     O_R   0.922300 0.202240 0.924350 -0.533485
O12   O     O_R   0.077700 0.702240 0.075650 -0.533492
O13   O     O_R   0.050780 0.535130 0.891350 -0.540246
O14   O     O_R   0.949220 0.035130 0.108650 -0.540240
C41   C     C_R   0.067476 0.368008 0.865506 0.683468
C42   C     C_R   0.932524 0.868015 0.134494 0.683470
O15   O     O_R   0.921100 0.531560 0.912990 -0.538124
O16   O     O_R   0.078900 0.031560 0.087010 -0.538117
O17   O     O_R   0.947120 0.708470 0.097370 -0.537251
O18   O     O_R   0.052880 0.208470 0.902630 -0.537245
C43   C     C_R   0.895874 0.363557 0.893455 0.715530
C44   C     C_R   0.104126 0.863556 0.106545 0.715530
O19   O     O_3   0.008710 0.375800 0.060400 -0.373987
O20   O     O_3   0.991290 0.875800 0.939600 -0.373989
V3    V     V_3+5 0.998380 0.648080 0.988790 1.428530
V4    V     V_3+5 0.001620 0.148080 0.011210 1.428553
H15   H     H_    0.792461 0.831213 0.423318 0.109102
H16   H     H_    0.207543 0.330845 0.576697 0.109103

loop_
_geom_bond_atom_site_label_1
_geom_bond_atom_site_label_2
_ccdc_geom_bond_type
C20   C22   A    
C37   C39   T    
C9    C11   A    
O11   C43   A    
O2    C4    A    
C2    O7    A    
O3    V1    S    
C21   C23   A    
O5    C3    A    
C5    H5    S    
C6    H6    S    
O12   V3    S    
C41   O18   A    
O20   V3    S    
H1    C29   S    
C27   H7    S    
C28   H8    S    
C13   H15   S    
C34   C36   T    
C5    C21   A    
O13   C41   A    
C6    C22   A    
C36   C38   S    
C10   C32   A    
C2    C39   S    
C26   H14   S    
C31   C42   S    
O1    C3    A    
C17   C31   A    
C13   C15   A    
C17   C25   A    
C7    C29   A    
C8    C30   A    
O5    V1    S    
O6    V2    S    
C23   C25   A    
C24   C26   A    
O16   V4    S    
C42   O17   A    
C33   C44   S    
O15   V3    S    
O12   C44   A    
C14   H16   S    
C34   C43   S    
C33   C35   T    
O20   V4    S    
O18   V4    S    
O19   V3    S    
C10   H10   S    
O17   V3    S    
C11   H11   S    
C3    C8    S    
C12   H12   S    
C15   C19   A    
C14   C16   A    
O4    V2    S    
C32   C41   S    
O6    C4    A    
C35   C37   S    
C25   H13   S    
O1    V2    S    
O2    V1    S    
H2    C30   S    
H3    C23   S    
O4    C2    A    
C18   C26   A    
C19   C27   A    
C7    C27   A    
C18   C32   A    
C16   C20   A    
C5    C29   A    
C1    C40   S    
O3    C1    A    
C6    C30   A    
O19   V4    S    
C9    H9    S    
C4    C7    S    
C10   C12   A    
O7    V1    S    
C1    O8    A    
C11   C13   A    
O8    V2    S    
C12   C14   A    
H4    C24   S    
C22   C24   A    
C15   C17   A    
C16   C18   A    
O14   V4    S    
C20   C28   A    
O13   V3    S    
C8    C28   A    
O11   V4    S    
C19   C21   A    
O16   C44   A    
O9    V2    S    
O15   C43   A    
O10   V1    S    
O14   C42   A    
C9    C31   A    
C38   C40   T    
