data_mof_unit_39876.cif
_audit_creation_date              2013-03-05T16:48:55-0500
_audit_creation_method            fapswitch 2.2
_symmetry_space_group_name_H-M    P1
_symmetry_Int_Tables_number       1
_space_group_crystal_system       triclinic
_cell_length_a                    10.824851
_cell_length_b                    10.862361
_cell_length_c                    12.720878
_cell_angle_alpha                 92.911712
_cell_angle_beta                  92.878842
_cell_angle_gamma                 90.372414
_cell_volume                      1491.88686073

loop_
_atom_site_label
_atom_site_type_symbol
_atom_site_description
_atom_site_fract_x
_atom_site_fract_y
_atom_site_fract_z
_atom_type_partial_charge
O1    O     O_R   0.313000 0.493330 0.412070 -0.580979
O2    O     O_R   0.687000 0.506670 0.587930 -0.580961
O3    O     O_R   0.326280 0.506660 0.587930 -0.574319
O4    O     O_R   0.673720 0.493340 0.412070 -0.574327
C1    C     C_R   0.261953 0.496329 0.500689 0.802321
C2    C     C_R   0.738046 0.503665 0.499311 0.802310
O5    O     O_R   0.493370 0.312980 0.412070 -0.583170
O6    O     O_R   0.506630 0.687020 0.587930 -0.583151
O7    O     O_R   0.506650 0.326310 0.587930 -0.573990
O8    O     O_R   0.493350 0.673690 0.412070 -0.573992
C3    C     C_R   0.503969 0.261923 0.500890 0.800827
C4    C     C_R   0.496026 0.738077 0.499110 0.800837
Cu1   Cu    Cu3+1 0.492140 0.492110 0.395880 0.996667
Cu2   Cu    Cu3+1 0.507860 0.507890 0.604120 0.996694
H1    H     H_    0.743954 0.278637 0.953921 0.128648
H2    H     H_    0.256035 0.721354 0.046078 0.128632
C5    C     C_R   0.762286 0.250034 0.786699 -0.128778
C6    C     C_R   0.237710 0.749944 0.213302 -0.128792
H3    H     H_    0.848364 0.301177 0.787681 0.125256
H4    H     H_    0.151641 0.698787 0.212320 0.125245
C7    C     C_R   0.710441 0.196311 0.692041 -0.060873
C8    C     C_R   0.289553 0.803669 0.307960 -0.060886
H5    H     H_    0.756958 0.206697 0.619541 0.136850
H6    H     H_    0.243043 0.793270 0.380462 0.136826
C9    C     C_R   0.599551 0.128142 0.691559 0.124560
C10   C     C_R   0.400432 0.871857 0.308441 0.124588
C11   C     C_R   0.543561 0.112242 0.787359 -0.150614
C12   C     C_R   0.456409 0.887775 0.212637 -0.150667
H7    H     H_    0.460617 0.056531 0.789366 0.116233
H8    H     H_    0.539343 0.943501 0.210628 0.116200
C13   C     C_R   0.594875 0.167297 0.881350 -0.145659
C14   C     C_R   0.405099 0.832717 0.118647 -0.145648
H9    H     H_    0.550673 0.155252 0.954637 0.119094
H10   H     H_    0.449293 0.844773 0.045358 0.119098
C15   C     C_R   0.703925 0.236549 0.880973 -0.102103
C16   C     C_R   0.296062 0.763445 0.119026 -0.102097
C17   C     C_R   0.537911 0.938306 0.589137 -0.145367
C18   C     C_R   0.462067 0.061694 0.410864 -0.145520
H11   H     H_    0.570639 0.890493 0.657856 0.158155
H12   H     H_    0.429338 0.109508 0.342147 0.158154
C19   C     C_R   0.493544 0.871700 0.497714 -0.060165
C20   C     C_R   0.506440 0.128299 0.502286 -0.060136
C21   C     C_R   0.453815 0.934089 0.407247 0.013366
C22   C     C_R   0.546166 0.065911 0.592753 0.013446
H13   H     H_    0.293690 0.207212 0.896788 0.135292
H14   H     H_    0.706197 0.793071 0.103438 0.135290
C23   C     C_R   0.227091 0.191870 0.734377 -0.170074
C24   C     C_R   0.772839 0.808262 0.265842 -0.170056
H15   H     H_    0.255936 0.096998 0.724614 0.164783
H16   H     H_    0.743958 0.903115 0.275687 0.164800
C25   C     C_R   0.166893 0.250210 0.650089 0.351515
C26   C     C_R   0.833081 0.749849 0.350069 0.351501
C27   C     C_R   0.128515 0.374272 0.666710 -0.014122
C28   C     C_R   0.871485 0.625809 0.333346 -0.014094
C29   C     C_R   0.149185 0.434847 0.766271 -0.169744
C30   C     C_R   0.850818 0.565338 0.233742 -0.169800
H17   H     H_    0.119508 0.529142 0.779871 0.149659
H18   H     H_    0.880519 0.471063 0.220062 0.149618
C31   C     C_R   0.208698 0.374906 0.848625 -0.134789
C32   C     C_R   0.791271 0.625354 0.151448 -0.134756
H19   H     H_    0.224068 0.422487 0.925035 0.140089
H20   H     H_    0.775902 0.577854 0.075004 0.140069
C33   C     C_R   0.247927 0.253769 0.832635 -0.176541
C34   C     C_R   0.751998 0.746461 0.167543 -0.176494
C35   C     C_R   0.937328 0.449783 0.580898 -0.175452
C36   C     C_R   0.062669 0.550196 0.419097 -0.175520
H21   H     H_    0.888517 0.408680 0.642522 0.133144
H22   H     H_    0.111480 0.591308 0.357477 0.133150
C37   C     C_R   0.871666 0.504713 0.498598 -0.047258
C38   C     C_R   0.128332 0.495271 0.501399 -0.047273
C39   C     C_R   0.934766 0.557104 0.417435 0.068390
C40   C     C_R   0.065232 0.442891 0.582569 0.068422
N1    N     N_1   0.480320 0.480250 0.239400 -0.153092
N2    N     N_1   0.519680 0.519750 0.760600 -0.153090
C41   C     C_2   0.479719 0.456190 0.031192 -0.282406
C42   C     C_2   0.520295 0.543816 0.968808 -0.282400
C43   C     C_1   0.519982 0.528279 0.852790 0.220838
C44   C     C_1   0.480025 0.471725 0.147210 0.220810
H23   H     H_    0.553963 0.631041 0.004942 0.158106
H24   H     H_    0.446055 0.368966 0.995059 0.158112
N3    N     N_R   0.144637 0.181790 0.550511 0.111134
O9    O     O_R   0.055543 0.211260 0.484263 -0.354630
O10   O     O_R   0.205852 0.081412 0.529933 -0.370713
N4    N     N_R   0.855361 0.818177 0.449689 0.111133
O11   O     O_R   0.944453 0.788628 0.515909 -0.354630
O12   O     O_R   0.794184 0.918561 0.470334 -0.370737

loop_
_geom_bond_atom_site_label_1
_geom_bond_atom_site_label_2
_geom_bond_distance
_ccdc_geom_bond_type
C2    C37   1.446873 S    
C36   H22   1.080337 S    
C29   C31   1.394060 A    
C11   H7    1.081580 S    
C42   H23   1.084543 S    
C41   C42   1.354611 D    
N3    O9    1.300993 A    
C23   H15   1.081661 S    
O5    C3    1.284061 A    
C4    C19   1.452879 S    
O1    C1    1.279183 A    
Cu2   N2    1.985814 S    
N4    O12   1.301646 A    
C18   C20   1.400187 A    
C23   C33   1.396276 A    
C24   C34   1.396278 A    
C26   N4    1.444430 S    
C3    C20   1.452877 S    
C32   H20   1.082212 S    
O4    Cu1   1.965909 S    
C37   C39   1.407796 A    
C28   C39   1.478022 S    
C35   H21   1.080342 S    
N2    C43   1.171525 T    
N1    C44   1.171525 T    
C13   H9    1.082402 S    
C41   H24   1.084524 S    
C25   N3    1.444418 S    
C24   H16   1.081668 S    
Cu1   Cu2   2.642674 S    
C19   C21   1.414890 A    
O2    C2    1.279182 A    
C20   C22   1.414884 A    
C9    C22   1.485366 S    
H1    C15   1.082505 S    
N3    O10   1.301648 A    
C26   C28   1.421450 A    
C10   C21   1.485375 S    
C27   C29   1.404277 A    
C28   C30   1.404275 A    
C31   H19   1.082218 S    
C11   C13   1.397163 A    
C12   C14   1.397166 A    
N4    O11   1.300996 A    
O4    C2    1.279754 A    
C23   C25   1.407152 A    
H13   C33   1.082457 S    
C5    C7    1.400673 A    
C30   C32   1.394063 A    
H14   C34   1.082469 S    
C25   C27   1.421439 A    
C14   H10   1.082401 S    
O7    Cu2   1.972568 S    
C1    C38   1.446884 S    
C36   C39   1.386208 A    
C24   C26   1.407157 A    
O6    C4    1.284064 A    
C42   C43   1.476767 S    
O7    C3    1.278198 A    
O3    Cu2   1.965911 S    
O8    C4    1.278197 A    
Cu1   N1    1.985814 S    
C29   H17   1.083563 S    
C8    H6    1.083206 S    
O1    Cu1   1.960389 S    
C14   C16   1.395971 A    
C7    C9    1.405881 A    
O6    Cu2   1.967081 S    
C6    C8    1.400676 A    
C10   C12   1.405892 A    
O3    C1    1.279759 A    
O8    Cu1   1.972568 S    
C9    C11   1.405888 A    
C35   C40   1.386207 A    
C31   C33   1.393512 A    
C32   C34   1.393509 A    
C17   C22   1.386664 A    
C7    H5    1.083207 S    
C18   C21   1.386672 A    
C17   H11   1.084810 S    
H2    C16   1.082505 S    
C18   H12   1.084810 S    
C36   C38   1.396977 A    
C35   C37   1.396964 A    
C13   C15   1.395973 A    
C12   H8    1.081582 S    
C5    H3    1.080917 S    
C30   H18   1.083562 S    
C6    H4    1.080915 S    
C17   C19   1.400187 A    
O2    Cu2   1.960388 S    
C41   C44   1.476762 S    
O5    Cu1   1.967081 S    
C8    C10   1.405882 A    
C38   C40   1.407801 A    
C5    C15   1.396963 A    
C27   C40   1.478013 S    
C6    C16   1.396961 A    
