data_mof_unit_45700.cif
_audit_creation_date              2012-12-11T17:19:09-0500
_audit_creation_method            fapswitch 2.2
_symmetry_space_group_name_H-M    P1
_symmetry_Int_Tables_number       1
_space_group_crystal_system       triclinic
_cell_length_a                    14.646611
_cell_length_b                    7.264411
_cell_length_c                    13.490677
_cell_angle_alpha                 89.982534
_cell_angle_beta                  99.831294
_cell_angle_gamma                 89.997038
_cell_volume                      1414.31541982

loop_
_atom_site_label
_atom_site_type_symbol
_atom_type_description
_atom_site_fract_x
_atom_site_fract_y
_atom_site_fract_z
_atom_type_partial_charge
O1    O     O_R   0.648180 0.355050 0.151550 -0.514816
O2    O     O_R   0.351820 0.644950 0.848450 -0.514816
O3    O     O_R   0.851820 0.855050 0.348450 -0.519065
O4    O     O_R   0.148180 0.144950 0.651550 -0.519064
O5    O     O_R   0.835240 0.681980 0.154280 -0.538113
O6    O     O_R   0.164760 0.318020 0.845720 -0.538113
O7    O     O_R   0.664760 0.181980 0.345720 -0.534664
O8    O     O_R   0.335240 0.818020 0.654280 -0.534663
H1    H     H_    0.681558 0.901795 0.825686 0.151834
H2    H     H_    0.318442 0.098205 0.174314 0.151834
H3    H     H_    0.817197 0.463101 0.670928 0.152138
H4    H     H_    0.182802 0.536898 0.329072 0.152138
C1    C     C_R   0.863930 0.516207 0.133583 0.807203
C2    C     C_R   0.136070 0.483793 0.866417 0.807204
C3    C     C_R   0.636033 0.016173 0.366374 0.806420
C4    C     C_R   0.363967 0.983827 0.633626 0.806420
O9    O     O_R   0.647870 0.684600 0.139630 -0.529027
O10   O     O_R   0.352130 0.315400 0.860370 -0.529027
O11   O     O_R   0.852130 0.184600 0.360370 -0.525046
O12   O     O_R   0.147870 0.815400 0.639630 -0.525047
O13   O     O_R   0.663110 0.857440 0.333700 -0.537595
O14   O     O_R   0.336890 0.142560 0.666300 -0.537595
O15   O     O_R   0.836890 0.357440 0.166300 -0.534207
O16   O     O_R   0.163110 0.642560 0.833700 -0.534207
C5    C     C_R   0.615038 0.515992 0.113216 0.701566
C6    C     C_R   0.384962 0.484008 0.886784 0.701565
C7    C     C_R   0.884956 0.015966 0.386786 0.700630
C8    C     C_R   0.115044 0.984034 0.613214 0.700630
O17   O     O_3   0.755220 0.522230 0.313690 -0.376108
O18   O     O_3   0.244780 0.477770 0.686310 -0.376108
O19   O     O_3   0.744780 0.022230 0.186310 -0.376318
O20   O     O_3   0.255220 0.977770 0.813690 -0.376318
V1    V     V_3+5 0.749030 0.796100 0.238190 1.548504
V2    V     V_3+5 0.250970 0.203900 0.761810 1.548504
V3    V     V_3+5 0.750970 0.296100 0.261810 1.559032
V4    V     V_3+5 0.249030 0.703900 0.738190 1.559032
C9    C     C_1   0.966037 0.005330 0.466763 -0.112430
C10   C     C_1   0.033962 0.994670 0.533237 -0.112430
C11   C     C_1   0.533960 0.505366 0.033237 -0.111900
C12   C     C_1   0.466040 0.494634 0.966763 -0.111900
H5    H     H_    0.205688 0.085249 0.290009 0.156140
H6    H     H_    0.794312 0.914751 0.709991 0.156140
H7    H     H_    0.295656 0.522541 0.213515 0.155758
H8    H     H_    0.704344 0.477460 0.786485 0.155758
C13   C     C_R   0.562978 0.943216 0.709740 0.575796
C14   C     C_R   0.437022 0.056783 0.290260 0.575796
C15   C     C_R   0.936388 0.475965 0.788471 0.575475
C16   C     C_R   0.063612 0.524034 0.211528 0.575475
C17   C     C_R   0.657450 0.923097 0.746062 -0.174347
C18   C     C_R   0.342549 0.076902 0.253937 -0.174347
C19   C     C_R   0.841544 0.472179 0.751211 -0.173961
C20   C     C_R   0.158456 0.527821 0.248789 -0.173961
C21   C     C_R   0.721110 0.930381 0.680953 -0.207722
C22   C     C_R   0.278890 0.069619 0.319047 -0.207722
C23   C     C_R   0.777833 0.480215 0.816243 -0.210793
C24   C     C_R   0.222167 0.519785 0.183757 -0.210793
C25   C     C_R   0.691063 0.957905 0.578569 -0.152104
C26   C     C_R   0.308937 0.042095 0.421431 -0.152104
C27   C     C_R   0.808188 0.492098 0.919487 -0.152798
C28   C     C_R   0.191812 0.507902 0.080513 -0.152798
C29   C     C_R   0.595714 0.978656 0.538612 -0.009697
C30   C     C_R   0.404286 0.021344 0.461388 -0.009697
C31   C     C_R   0.903894 0.496061 0.960387 -0.008629
C32   C     C_R   0.096106 0.503939 0.039612 -0.008629
C33   C     C_R   0.529870 0.971075 0.605189 -0.041478
C34   C     C_R   0.470130 0.028925 0.394811 -0.041478
C35   C     C_R   0.969785 0.488046 0.893874 -0.041787
C36   C     C_R   0.030215 0.511954 0.106126 -0.041787
C37   C     C_R   0.566103 0.007612 0.434004 -0.149869
C38   C     C_R   0.433897 0.992388 0.565996 -0.149870
C39   C     C_R   0.933858 0.507798 0.065946 -0.149619
C40   C     C_R   0.066141 0.492202 0.934054 -0.149618
H9    H     H_    0.743667 0.962945 0.531266 0.098611
H10   H     H_    0.256333 0.037056 0.468734 0.098611
H11   H     H_    0.755560 0.498063 0.966742 0.097072
H12   H     H_    0.244440 0.501938 0.033258 0.097072
F1    F     F_    0.505492 0.935898 0.778585 -0.702283
F2    F     F_    0.494507 0.064101 0.221415 -0.702283
F3    F     F_    0.994002 0.467569 0.719777 -0.701802
F4    F     F_    0.005998 0.532430 0.280223 -0.701802

loop_
_geom_bond_atom_site_label_1
_geom_bond_atom_site_label_2
_ccdc_geom_bond_type
C26   C30   A    
C23   C27   A    
O10   C6    A    
C15   F3    S    
O6    V2    S    
C1    O15   A    
C18   C22   A    
C32   C36   A    
C14   C34   A    
H6    C21   S    
C34   C37   A    
O13   V1    S    
O3    V1    S    
O2    V4    S    
C33   C38   A    
C30   C38   A    
C35   C40   A    
O8    V4    S    
C2    O16   A    
H4    C20   S    
O5    V1    S    
O19   V1    S    
C8    C10   S    
O11   C7    A    
O5    C1    A    
O7    C3    A    
O8    C4    A    
O1    C5    A    
O9    V1    S    
O14   V2    S    
C15   C35   A    
O4    C8    A    
C25   H9    S    
O4    V2    S    
C3    C37   S    
C31   C35   A    
C30   C34   A    
H1    C17   S    
C11   C12   T    
C14   F2    S    
O1    V3    S    
C21   C25   A    
C15   C19   A    
O12   C8    A    
C28   H12   S    
C24   C28   A    
O20   V2    S    
C9    C10   T    
O6    C2    A    
C13   C17   A    
C4    C38   S    
O2    C6    A    
O16   V4    S    
C16   C36   A    
O10   V2    S    
C31   C39   A    
O15   V3    S    
C13   C33   A    
H2    C18   S    
C27   H11   S    
C26   H10   S    
C22   C26   A    
C29   C37   A    
C14   C18   A    
C4    O14   A    
C2    C40   S    
C25   C29   A    
C1    C39   S    
O17   V3    S    
C27   C31   A    
O18   V4    S    
C28   C32   A    
O9    C5    A    
C16   F4    S    
O3    C7    A    
O11   V3    S    
C5    C11   S    
H8    C23   S    
C6    C12   S    
C3    O13   A    
C7    C9    S    
C36   C39   A    
C17   C21   A    
O7    V3    S    
C19   C23   A    
C32   C40   A    
H5    C22   S    
H3    C19   S    
O12   V4    S    
C29   C33   A    
H7    C24   S    
C16   C20   A    
C13   F1    S    
C20   C24   A    
