data_mof_unit_62987.cif
_audit_creation_date              2012-12-10T19:31:20-0500
_audit_creation_method            fapswitch 2.2
_symmetry_space_group_name_H-M    P1
_symmetry_Int_Tables_number       1
_space_group_crystal_system       triclinic
_cell_length_a                    19.145731
_cell_length_b                    15.747925
_cell_length_c                    14.940205
_cell_angle_alpha                 89.976803
_cell_angle_beta                  89.993255
_cell_angle_gamma                 90.004442
_cell_volume                      4504.55410041

loop_
_atom_site_label
_atom_site_type_symbol
_atom_type_description
_atom_site_fract_x
_atom_site_fract_y
_atom_site_fract_z
_atom_type_partial_charge
C1    C     C_R   0.499973 0.337508 0.500012 0.907183
C2    C     C_3   0.502748 0.972134 0.414518 -0.307300
C3    C     C_3   0.499197 0.082797 0.500458 -0.017450
C4    C     C_3   0.500804 0.917217 0.499544 -0.017389
C5    C     C_1   0.499416 0.173511 0.500256 0.055078
C6    C     C_1   0.500585 0.826500 0.499745 0.055682
C7    C     C_3   0.517656 0.422075 0.969970 -0.297911
C8    C     C_3   0.482345 0.577886 0.030030 -0.296942
C9    C     C_3   0.562794 0.480082 0.030106 0.754709
C10   C     C_3   0.437207 0.519879 0.969895 0.755100
C11   C     C_3   0.453303 0.442473 0.030101 -0.301364
C12   C     C_R   0.500027 0.662494 0.499988 0.910447
C13   C     C_3   0.546698 0.557488 0.969900 -0.300584
C14   C     C_3   0.499469 0.500155 0.089571 -0.089878
C15   C     C_3   0.500533 0.499808 0.910429 -0.090150
C16   C     C_R   0.365009 0.498725 0.500022 0.867773
C17   C     C_R   0.634991 0.498748 0.499979 0.865927
C18   C     C_1   0.499820 0.500054 0.189779 0.167757
C19   C     C_1   0.500181 0.499927 0.810221 0.167775
C20   C     C_R   0.253492 0.479947 0.581273 -0.165596
C21   C     C_R   0.746494 0.479811 0.418757 -0.163486
C22   C     C_R   0.182314 0.463686 0.581300 -0.142314
C23   C     C_3   0.556536 0.972204 0.545583 -0.309864
C24   C     C_R   0.817670 0.463543 0.418763 -0.138584
C25   C     C_R   0.146204 0.455566 0.500055 0.075754
C26   C     C_R   0.853787 0.455572 0.500024 0.075536
C27   C     C_R   0.182343 0.463542 0.418799 -0.145734
C28   C     C_R   0.817660 0.463701 0.581264 -0.143873
C29   C     C_R   0.253520 0.479803 0.418800 -0.178051
C30   C     C_R   0.746487 0.479970 0.581230 -0.177135
C31   C     C_R   0.289483 0.488007 0.500030 -0.045620
C32   C     C_R   0.710516 0.488027 0.499984 -0.047344
C33   C     C_R   0.929514 0.444770 0.500041 0.298715
C34   C     C_3   0.443465 0.027812 0.454419 -0.309931
C35   C     C_R   0.070476 0.444768 0.500058 0.297923
C36   C     C_3   0.557537 0.028413 0.461193 0.751941
C37   C     C_3   0.442464 0.971603 0.538810 0.752189
C38   C     C_1   0.499685 0.248701 0.500097 -0.155179
C39   C     C_1   0.500315 0.751307 0.499904 -0.156232
C40   C     C_3   0.497253 0.027881 0.585484 -0.307472
F1    F     F_    0.617067 0.060356 0.421033 -0.638453
F2    F     F_    0.382934 0.939665 0.578971 -0.638023
F3    F     F_    0.628502 0.459262 0.061556 -0.648658
F4    F     F_    0.371498 0.540697 0.938446 -0.647717
H1    H     H_    0.280337 0.485425 0.644826 0.179495
H2    H     H_    0.719629 0.485455 0.644780 0.167192
H3    H     H_    0.603105 0.947904 0.581691 0.188242
H4    H     H_    0.396897 0.052116 0.418313 0.188198
H5    H     H_    0.505941 0.947774 0.344920 0.188708
H6    H     H_    0.494061 0.052244 0.655081 0.188593
H7    H     H_    0.533100 0.358100 0.945898 0.185125
H8    H     H_    0.466902 0.641862 0.054101 0.185494
H9    H     H_    0.719641 0.485166 0.355194 0.180010
H10   H     H_    0.585873 0.604150 0.945770 0.184239
H11   H     H_    0.414128 0.395812 0.054232 0.183768
H12   H     H_    0.155645 0.458241 0.644964 0.164180
H13   H     H_    0.844330 0.457974 0.355110 0.164881
H14   H     H_    0.155697 0.457981 0.355142 0.160642
H15   H     H_    0.844313 0.458259 0.644932 0.160898
H16   H     H_    0.280387 0.485164 0.355240 0.167205
N1    N     N_R   0.034646 0.443419 0.421852 -0.165979
N2    N     N_R   0.965344 0.443509 0.578249 -0.165896
N3    N     N_R   0.965368 0.443420 0.421844 -0.164758
N4    N     N_R   0.034621 0.443508 0.578257 -0.165171
N5    N     N_1   0.500020 0.500000 0.268010 -0.092081
N6    N     N_1   0.499980 0.500000 0.731990 -0.092054
O1    O     O_R   0.500000 0.376780 0.574460 -0.610849
O2    O     O_R   0.500000 0.623220 0.425540 -0.609130
O3    O     O_R   0.500010 0.376780 0.425520 -0.601055
O4    O     O_R   0.499990 0.623220 0.574480 -0.599322
O5    O     O_R   0.398130 0.499990 0.574490 -0.609561
O6    O     O_R   0.601870 0.500010 0.425510 -0.609864
O7    O     O_R   0.398140 0.499990 0.425550 -0.620872
O8    O     O_R   0.601860 0.500010 0.574450 -0.620800
Zn1   Zn    Zn3+2 0.499990 0.500000 0.599450 1.004701
Zn2   Zn    Zn3+2 0.500010 0.500000 0.400550 1.004564

loop_
_geom_bond_atom_site_label_1
_geom_bond_atom_site_label_2
_ccdc_geom_bond_type
O5    Zn1   S    
C8    C13   S    
C27   C29   A    
C34   C37   S    
C14   C18   S    
O6    Zn2   S    
C16   C31   S    
C15   C19   S    
C12   O2    A    
N5    Zn2   S    
O3    Zn2   S    
C24   C26   A    
C37   C40   S    
C10   C15   S    
C11   C14   S    
C23   C40   S    
C19   N6    T    
C37   F2    S    
N1    N3    A    
C9    C13   S    
N2    N4    A    
C33   N2    A    
C22   C25   A    
C35   N4    A    
C30   C32   A    
C8    H8    S    
C20   H1    S    
C2    C34   S    
C7    C15   S    
C5    C38   T    
C36   F1    S    
C16   O5    A    
C7    C11   S    
C21   C32   A    
C9    F3    S    
C23   H3    S    
O8    Zn1   S    
C10   F4    S    
C16   O7    A    
C4    C6    S    
C4    C23   S    
C24   H13   S    
C22   H12   S    
C3    C34   S    
C1    O3    A    
C18   N5    T    
C2    C4    S    
C9    C14   S    
C2    H5    S    
C26   C33   S    
C29   H16   S    
C33   N3    A    
C35   N1    A    
C1    C38   S    
C25   C35   S    
C20   C22   A    
C3    C40   S    
C13   C15   S    
C17   O8    A    
O7    Zn2   S    
O1    Zn1   S    
C11   H11   S    
C13   H10   S    
C28   H15   S    
C2    C36   S    
C7    C9    S    
C12   O4    A    
C8    C14   S    
C30   H2    S    
C3    C5    S    
C27   H14   S    
O2    Zn2   S    
C26   C28   A    
C12   C39   S    
C28   C30   A    
C7    H7    S    
C29   C31   A    
C21   H9    S    
C3    C36   S    
C40   H6    S    
N6    Zn1   S    
C1    O1    A    
C10   C11   S    
C34   H4    S    
C4    C37   S    
C17   O6    A    
C8    C10   S    
C23   C36   S    
C21   C24   A    
O4    Zn1   S    
C17   C32   S    
C6    C39   T    
C20   C31   A    
C25   C27   A    
