data_mof_unit_24370.cif
_audit_creation_date              2012-12-10T17:16:34-0500
_audit_creation_method            fapswitch 2.2
_symmetry_space_group_name_H-M    P1
_symmetry_Int_Tables_number       1
_space_group_crystal_system       triclinic
_cell_length_a                    10.295171
_cell_length_b                    10.703021
_cell_length_c                    10.869272
_cell_angle_alpha                 91.475323
_cell_angle_beta                  95.115413
_cell_angle_gamma                 81.706948
_cell_volume                      1180.33388883

loop_
_atom_site_label
_atom_site_type_symbol
_atom_type_description
_atom_site_fract_x
_atom_site_fract_y
_atom_site_fract_z
_atom_type_partial_charge
C1    C     C_R   0.444627 0.504355 0.268367 0.974572
C2    C     C_R   0.499649 0.738725 0.496321 0.936197
C3    C     C_R   0.551917 0.123274 0.284401 -0.378289
C4    C     C_R   0.448078 0.876725 0.715600 -0.378296
C5    C     C_R   0.585990 0.055517 0.178625 0.600237
C6    C     C_R   0.413998 0.944483 0.821373 0.600249
C7    C     C_R   0.588727 0.925868 0.174860 0.569349
C8    C     C_R   0.411260 0.074132 0.825137 0.569349
C9    C     C_R   0.556902 0.863616 0.276682 0.435120
C10   C     C_R   0.443091 0.136384 0.723317 0.435123
C11   C     C_R   0.529045 0.930265 0.389102 -0.148641
C12   C     C_R   0.555373 0.495645 0.731632 0.974567
C13   C     C_R   0.470953 0.069735 0.610899 -0.148642
C14   C     C_R   0.527240 0.061424 0.392550 -0.109600
C15   C     C_R   0.472759 0.938576 0.607451 -0.109602
C16   C     C_R   0.500993 0.871239 0.497103 0.004199
C17   C     C_R   0.499007 0.128761 0.502898 0.004198
C18   C     C_3   0.887358 0.607185 0.609669 -0.776110
C19   C     C_3   0.112642 0.392815 0.390331 -0.776110
C20   C     C_2   0.413806 0.514645 0.137352 -0.336394
C21   C     C_2   0.586194 0.485354 0.862648 -0.336402
C22   C     C_2   0.509114 0.479792 0.062994 0.601502
C23   C     C_2   0.490885 0.520205 0.937006 0.601509
C24   C     C_2   0.071708 0.489347 0.488692 0.204623
C25   C     C_2   0.928292 0.510653 0.511308 0.204621
C26   C     C_R   0.500351 0.261275 0.503680 0.936195
F1    F     F_    0.378819 0.140458 0.928722 -0.568069
F2    F     F_    0.621158 0.859541 0.071272 -0.568070
F3    F     F_    0.615806 0.116391 0.079215 -0.553189
F4    F     F_    0.384173 0.883608 0.920780 -0.553183
F5    F     F_    0.552339 0.738764 0.261495 -0.627298
F6    F     F_    0.447651 0.261238 0.738503 -0.627293
F7    F     F_    0.374883 0.591601 0.896135 -0.629607
F8    F     F_    0.625115 0.408396 0.103864 -0.629611
H1    H     H_    0.545734 0.224600 0.279546 0.218156
H2    H     H_    0.090054 0.298982 0.415909 0.211592
H3    H     H_    0.058762 0.421668 0.300146 0.223464
H4    H     H_    0.216227 0.379532 0.374943 0.284291
H5    H     H_    0.454260 0.775400 0.720455 0.218158
H6    H     H_    0.682337 0.437079 0.896845 0.186347
H7    H     H_    0.317663 0.562921 0.103155 0.186349
H8    H     H_    0.872703 0.383328 0.382602 0.187678
H9    H     H_    0.127297 0.616672 0.617398 0.187678
H10   H     H_    0.909946 0.701018 0.584091 0.211591
H11   H     H_    0.783773 0.620468 0.625057 0.284291
H12   H     H_    0.941238 0.578332 0.699854 0.223465
N1    N     N_2   0.157300 0.551390 0.551120 -0.178761
N2    N     N_2   0.842700 0.448610 0.448880 -0.178762
O1    O     O_R   0.568940 0.489660 0.307530 -0.494212
O2    O     O_R   0.431060 0.510340 0.692470 -0.494210
O3    O     O_R   0.348880 0.522640 0.340350 -0.647330
O4    O     O_R   0.651120 0.477360 0.659650 -0.647331
O5    O     O_R   0.610030 0.300280 0.483580 -0.621859
O6    O     O_R   0.389970 0.699720 0.516420 -0.621858
O7    O     O_R   0.389970 0.333270 0.516400 -0.596956
O8    O     O_R   0.610030 0.666730 0.483600 -0.596958
Zn1   Zn    Zn3+2 0.646940 0.477980 0.478080 1.028985
Zn2   Zn    Zn3+2 0.353060 0.522020 0.521920 1.028987

loop_
_geom_bond_atom_site_label_1
_geom_bond_atom_site_label_2
_ccdc_geom_bond_type
C12   O2    A    
C18   H11   S    
C7    C9    A    
C19   H4    S    
C3    C14   A    
C2    C16   S    
C3    H1    S    
C25   N2    D    
C4    H5    S    
C13   C17   A    
C3    C5    A    
C26   O7    A    
C4    C15   A    
C13   C15   A    
C20   H7    S    
N2    Zn1   S    
O3    Zn2   S    
H8    N2    S    
C24   C25   S    
N1    Zn2   S    
C1    O3    A    
C14   C17   A    
C21   H6    S    
C1    O1    A    
C6    C8    A    
C17   C26   S    
C18   H12   S    
C8    C10   A    
C12   O4    A    
C20   C22   D    
C19   C24   S    
C5    F3    S    
C19   H2    S    
C9    C11   A    
C21   C23   D    
C2    O6    A    
C22   F8    S    
C11   C14   A    
C18   C25   S    
C11   C16   A    
O4    Zn1   S    
C9    F5    S    
C15   C16   A    
O2    Zn2   S    
C26   O5    A    
C10   F6    S    
C18   H10   S    
O1    Zn1   S    
O8    Zn1   S    
C4    C6    A    
O6    Zn2   S    
O7    Zn2   S    
C5    C7    A    
C8    F1    S    
O5    Zn1   S    
C22   C23   S    
C1    C20   S    
C2    O8    A    
C19   H3    S    
C6    F4    S    
C24   N1    D    
H9    N1    S    
C12   C21   S    
C7    F2    S    
C23   F7    S    
C10   C13   A    
