data_mof_unit_48646.cif
_audit_creation_date              2013-03-05T16:41:34-0500
_audit_creation_method            fapswitch 2.2
_symmetry_space_group_name_H-M    P1
_symmetry_Int_Tables_number       1
_space_group_crystal_system       triclinic
_cell_length_a                    12.928614
_cell_length_b                    10.608701
_cell_length_c                    9.907677
_cell_angle_alpha                 88.775176
_cell_angle_beta                  97.290661
_cell_angle_gamma                 90.261667
_cell_volume                      1347.5985583

loop_
_atom_site_label
_atom_site_type_symbol
_atom_site_description
_atom_site_fract_x
_atom_site_fract_y
_atom_site_fract_z
_atom_type_partial_charge
O1    O     O_R   0.500010 0.316790 0.614690 -0.615750
O2    O     O_R   0.500000 0.316760 0.385350 -0.614490
C1    C     C_R   0.501570 0.260556 0.501506 0.863363
O3    O     O_R   0.346360 0.499990 0.595720 -0.630738
O4    O     O_R   0.346350 0.499960 0.366370 -0.567193
C2    C     C_R   0.298092 0.501913 0.472423 0.885686
Zn1   Zn    Zn3+2 0.500010 0.500020 0.653130 1.027534
Zn2   Zn    Zn3+2 0.499990 0.499980 0.346870 1.106456
O5    O     O_R   0.500000 0.683240 0.614650 -0.619871
O6    O     O_R   0.499990 0.683210 0.385310 -0.562529
O7    O     O_R   0.653650 0.500040 0.633630 -0.598362
O8    O     O_R   0.653640 0.500010 0.404280 -0.555939
C3    C     C_R   0.501426 0.739394 0.499045 0.893880
C4    C     C_R   0.701506 0.492634 0.526378 0.945242
C5    C     C_R   0.813620 0.479907 0.540522 -0.170610
C6    C     C_R   0.185468 0.499007 0.453347 -0.178964
C7    C     C_R   0.021403 0.455914 0.318189 -0.153756
C8    C     C_R   0.127471 0.477241 0.324953 0.303432
C9    C     C_R   0.135269 0.508901 0.569547 -0.233983
C10   C     C_R   0.028720 0.494547 0.560835 0.115013
C11   C     C_R   0.971008 0.466469 0.434391 0.002479
C12   C     C_R   0.863507 0.453845 0.425178 0.293085
C13   C     C_R   0.871919 0.502847 0.666595 -0.116893
C14   C     C_R   0.979414 0.508748 0.677032 -0.113553
H1    H     H_    0.834405 0.520627 0.756069 0.226499
C15   C     C_R   0.585837 0.066336 0.461085 0.067233
C16   C     C_R   0.501380 0.128633 0.502734 0.001315
C17   C     C_R   0.411674 0.063880 0.529203 -0.127215
C18   C     C_R   0.410852 0.933654 0.525381 -0.111921
C19   C     C_R   0.499875 0.871203 0.495611 -0.049149
C20   C     C_R   0.586000 0.936802 0.459626 0.068977
C21   C     C_3   0.698470 0.931332 0.522549 0.432200
C22   C     C_3   0.698010 0.075160 0.519434 -0.551082
H2    H     H_    0.709638 0.118597 0.621088 0.254497
C23   C     C_R   0.456844 0.401601 0.066552 0.107764
N1    N     N_R   0.499290 0.499140 0.142710 -0.167235
C24   C     C_R   0.532171 0.602962 0.072905 0.373907
C25   C     C_R   0.531931 0.602205 0.929852 -0.076525
N2    N     N_R   0.499290 0.499180 0.857070 -0.122790
C26   C     C_R   0.459341 0.400670 0.924579 0.066294
C27   C     C_3   0.496014 0.266799 0.930218 0.024584
C28   C     C_3   0.489229 0.266211 0.082515 0.033779
H3    H     H_    0.564589 0.250875 0.148550 0.200753
N3    N     N_R   0.805613 0.418109 0.298035 0.211869
O9    O     O_R   0.790530 0.499120 0.197010 -0.297926
O10   O     O_R   0.764710 0.306191 0.285028 -0.387117
N4    N     N_R   0.766606 0.874510 0.433053 0.249082
O11   O     O_R   0.758787 0.754565 0.409800 -0.334928
O12   O     O_R   0.846472 0.935947 0.397160 -0.300009
H4    H     H_    0.744991 0.119853 0.445444 0.264814
N5    N     N_R   0.568944 0.713865 0.141911 0.226523
O13   O     O_R   0.503501 0.805869 0.147134 -0.318086
O14   O     O_R   0.667570 0.740820 0.148229 -0.253807
H5    H     H_    0.560133 0.683674 0.877961 0.209621
H6    H     H_    0.440550 0.202076 0.870648 0.163221
N6    N     N_R   0.603590 0.253931 0.900872 0.238905
O15   O     O_R   0.676308 0.331354 0.950910 -0.322956
O16   O     O_R   0.629207 0.155789 0.836517 -0.320852
N7    N     N_R   0.405424 0.184108 0.119242 0.227455
O17   O     O_R   0.428707 0.081851 0.191038 -0.319350
O18   O     O_R   0.309114 0.203069 0.066736 -0.310071
H7    H     H_    0.978722 0.436146 0.219784 0.225715
H8    H     H_    0.023635 0.529015 0.774627 0.190276
N8    N     N_R   0.173180 0.479701 0.200236 0.222930
O19   O     O_R   0.151025 0.390630 0.112943 -0.327107
O20   O     O_R   0.213656 0.584191 0.159582 -0.340125
H9    H     H_    0.179016 0.528084 0.667847 0.195831
H10   H     H_    0.343941 0.113729 0.554496 0.149119
H11   H     H_    0.342762 0.881731 0.548923 0.154634
N9    N     N_R   0.713734 0.876032 0.661125 0.201870
O21   O     O_R   0.792005 0.801146 0.698826 -0.324580
O22   O     O_R   0.651978 0.905105 0.749689 -0.330377

loop_
_geom_bond_atom_site_label_1
_geom_bond_atom_site_label_2
_geom_bond_distance
_ccdc_geom_bond_type
C28   N7    1.463863 S    
O4    Zn2   2.019981 S    
N7    O17   1.299642 A    
C13   C14   1.381693 A    
C27   N6    1.464095 S    
C9    H9    1.085104 S    
C18   C19   1.397170 A    
C7    H7    1.081744 S    
C27   C28   1.522409 S    
C15   C22   1.494814 S    
C18   H11   1.083947 S    
C23   N1    1.365396 A    
C25   H5    1.081637 S    
C19   C20   1.390802 A    
Zn2   O8    1.995712 S    
C16   C17   1.395693 A    
C21   C22   1.525505 S    
C10   C11   1.411224 A    
C21   N9    1.471737 S    
C1    C16   1.399309 S    
C7    C8    1.382275 A    
C5    C12   1.414433 A    
C15   C20   1.374584 A    
N4    O12   1.301768 A    
N8    O20   1.301526 A    
C11   C12   1.387281 A    
N8    O19   1.300975 A    
Zn1   O7    2.019979 S    
C8    N8    1.435462 S    
C15   C16   1.389937 A    
C24   C25   1.417123 A    
O5    C3    1.281875 A    
N1    C24   1.381999 A    
O3    Zn1   1.995712 S    
C27   H6    1.113286 S    
C6    C8    1.415148 A    
C26   C27   1.496965 S    
C17   H10   1.083925 S    
O8    C4    1.287970 A    
C23   C26   1.411332 A    
C14   H8    1.084213 S    
O2    C1    1.282659 A    
C6    C9    1.397524 A    
O4    C2    1.288864 A    
C24   N5    1.422842 S    
O7    C4    1.299616 A    
C12   N3    1.438502 S    
N7    O18   1.301888 A    
O3    C2    1.299109 A    
C28   H3    1.113050 S    
C5    C13   1.399970 A    
C2    C6    1.444582 S    
N5    O13   1.300783 A    
N4    O11   1.299196 A    
C10   C14   1.396048 A    
C3    C19   1.398182 S    
C21   N4    1.466808 S    
N9    O21   1.301302 A    
C22   H2    1.109093 S    
N6    O15   1.302429 A    
Zn2   O6    1.988762 S    
C13   H1    1.083400 S    
Zn2   N1    2.021834 S    
O2    Zn2   1.972747 S    
N2    C26   1.363506 A    
Zn1   O5    1.972747 S    
C23   C28   1.497421 S    
Zn1   N2    2.021602 S    
C4    C5    1.445093 S    
C17   C18   1.382817 A    
N9    O22   1.301610 A    
N5    O14   1.299506 A    
C22   H4    1.107539 S    
O1    Zn1   1.988765 S    
N6    O16   1.298223 A    
C20   C21   1.508485 S    
C7    C11   1.399664 A    
N3    O9    1.301424 A    
C9    C10   1.377209 A    
N3    O10   1.299789 A    
O1    C1    1.283848 A    
O6    C3    1.284013 A    
C25   N2    1.358267 A    
