data_mof_unit_7547.cif
_audit_creation_date              2012-12-10T16:53:30-0500
_audit_creation_method            fapswitch 2.2
_symmetry_space_group_name_H-M    P1
_symmetry_Int_Tables_number       1
_space_group_crystal_system       triclinic
_cell_length_a                    7.833277
_cell_length_b                    8.594469
_cell_length_c                    13.498634
_cell_angle_alpha                 92.042829
_cell_angle_beta                  79.653949
_cell_angle_gamma                 93.165661
_cell_volume                      892.320494616

loop_
_atom_site_label
_atom_site_type_symbol
_atom_type_description
_atom_site_fract_x
_atom_site_fract_y
_atom_site_fract_z
_atom_type_partial_charge
C1    C     C_R   0.544744 0.794178 0.497726 0.939298
C2    C     C_1   0.556840 0.436239 0.120854 -0.032532
C3    C     C_2   0.560855 0.955958 0.513154 0.082394
C4    C     C_2   0.439005 0.044117 0.487151 0.079529
C5    C     C_R   0.240449 0.374343 0.042937 0.145686
C6    C     C_R   0.154157 0.228006 0.035805 -0.127373
C7    C     C_R   0.000197 0.191004 0.102176 -0.123807
C8    C     C_R   0.932071 0.299729 0.175955 -0.081092
C9    C     C_R   0.014808 0.447572 0.181429 -0.128668
C10   C     C_R   0.168222 0.485345 0.114733 -0.155093
C11   C     C_R   0.729151 0.376195 0.950330 0.151958
C12   C     C_R   0.455228 0.205852 0.502415 0.929914
C13   C     C_R   0.856173 0.497164 0.928124 -0.142916
C14   C     C_R   0.004530 0.472511 0.855826 -0.125764
C15   C     C_R   0.027968 0.326355 0.807389 -0.078807
C16   C     C_R   0.903404 0.204871 0.830957 -0.111335
C17   C     C_R   0.753833 0.229756 0.901775 -0.143002
C18   C     C_R   0.471285 0.499201 0.687292 0.887054
C19   C     C_R   0.527969 0.495035 0.312591 0.894589
C20   C     C_1   0.543176 0.466667 0.208402 -0.177791
C21   C     C_1   0.447375 0.467691 0.790247 -0.177671
C22   C     C_2   0.561415 0.403832 0.016708 -0.025474
C23   C     C_2   0.413186 0.403328 0.980016 -0.036500
C24   C     C_1   0.425132 0.435537 0.876620 -0.038009
Cl1   Cl    Cl    0.716391 0.020588 0.589044 -0.606352
Cl2   Cl    Cl    0.283188 0.979647 0.411443 -0.588160
H1    H     H_    0.024021 0.379251 0.425582 0.215832
H2    H     H_    0.142095 0.306053 0.751477 0.157612
H3    H     H_    0.921701 0.092079 0.793390 0.167986
H4    H     H_    0.655727 0.135790 0.917791 0.132673
H5    H     H_    0.975956 0.620725 0.574415 0.215801
H6    H     H_    0.208554 0.141371 0.980544 0.124100
H7    H     H_    0.935166 0.077265 0.097418 0.133393
H8    H     H_    0.815366 0.268586 0.228737 0.155523
H9    H     H_    0.962235 0.532492 0.238099 0.170246
H10   H     H_    0.233158 0.598939 0.120809 0.143613
H11   H     H_    0.837620 0.611123 0.964116 0.127084
H12   H     H_    0.100318 0.567232 0.836988 0.146282
N1    N     N_2   0.954190 0.457600 0.473930 -0.152740
N2    N     N_2   0.045810 0.542400 0.526070 -0.146857
O1    O     O_R   0.388300 0.738660 0.506400 -0.578538
O2    O     O_R   0.611700 0.261340 0.493600 -0.578511
O3    O     O_R   0.679920 0.711490 0.489690 -0.589357
O4    O     O_R   0.320080 0.288510 0.510310 -0.593821
O5    O     O_R   0.333200 0.515510 0.649910 -0.643271
O6    O     O_R   0.666800 0.484490 0.350090 -0.649705
O7    O     O_R   0.624820 0.488340 0.633200 -0.586987
O8    O     O_R   0.375180 0.511660 0.366800 -0.592719
Zn1   Zn    Zn3+2 0.305280 0.518140 0.511160 1.006882
Zn2   Zn    Zn3+2 0.694720 0.481860 0.488840 1.005402

loop_
_geom_bond_atom_site_label_1
_geom_bond_atom_site_label_2
_ccdc_geom_bond_type
O4    Zn1   S    
C2    C22   S    
C6    H6    S    
C23   C24   S    
O3    Zn2   S    
C6    C7    A    
C14   H12   S    
C18   C21   S    
C11   C13   A    
C9    C10   A    
O6    Zn2   S    
C11   C22   S    
C4    Cl2   S    
C19   C20   S    
C5    C23   S    
O5    Zn1   S    
C18   O7    A    
C19   O6    A    
C5    C10   A    
C12   O4    A    
C8    H8    S    
C13   C14   A    
C17   H4    S    
C7    H7    S    
C15   H2    S    
C16   C17   A    
O2    Zn2   S    
O1    Zn1   S    
O8    Zn1   S    
C10   H10   S    
O7    Zn2   S    
C5    C6    A    
C4    C12   S    
C2    C20   T    
C15   C16   A    
C18   O5    A    
C3    Cl1   S    
N1    Zn2   S    
H5    N2    S    
C7    C8    A    
C21   C24   T    
C1    O1    A    
N1    N2    D    
C9    H9    S    
C22   C23   D    
C11   C17   A    
C12   O2    A    
C19   O8    A    
C16   H3    S    
C14   C15   A    
C13   H11   S    
C1    O3    A    
C3    C4    D    
N2    Zn1   S    
H1    N1    S    
C8    C9    A    
C1    C3    S    
