data_mof_unit_28890.cif
_audit_creation_date              2012-12-10T17:34:58-0500
_audit_creation_method            fapswitch 2.2
_symmetry_space_group_name_H-M    P1
_symmetry_Int_Tables_number       1
_space_group_crystal_system       triclinic
_cell_length_a                    12.336509
_cell_length_b                    13.196744
_cell_length_c                    13.86623
_cell_angle_alpha                 105.183004
_cell_angle_beta                  73.892146
_cell_angle_gamma                 116.638362
_cell_volume                      1913.59671892

loop_
_atom_site_label
_atom_site_type_symbol
_atom_type_description
_atom_site_fract_x
_atom_site_fract_y
_atom_site_fract_z
_atom_type_partial_charge
C1    C     C_R   0.144447 0.713563 0.508657 0.771086
C2    C     C_1   0.975152 0.506609 0.791597 -0.176460
C3    C     C_R   0.736658 0.975852 0.366108 -0.191181
C4    C     C_R   0.775110 0.164842 0.464809 -0.047646
C5    C     C_R   0.178053 0.916081 0.574542 -0.189155
C6    C     C_R   0.255020 0.031305 0.594491 -0.145206
C7    C     C_R   0.381509 0.068334 0.559241 -0.181264
C8    C     C_R   0.433709 0.990475 0.499252 0.079640
C9    C     C_R   0.353014 0.875494 0.469147 0.082014
C10   C     C_R   0.563193 0.023195 0.467146 0.073957
C11   C     C_R   0.609128 0.944570 0.398330 0.166981
C12   C     C_R   0.984315 0.504239 0.686370 0.815418
C13   C     C_R   0.527391 0.836695 0.360360 -0.240753
C14   C     C_R   0.401302 0.803268 0.393834 -0.198386
C15   C     C_R   0.648785 0.131649 0.501960 -0.250177
C16   C     C_R   0.819409 0.085908 0.398666 -0.195151
C17   C     C_R   0.225899 0.836616 0.514324 -0.100853
C18   C     C_R   0.640493 0.675291 0.663093 0.162139
C19   C     C_R   0.251647 0.351048 0.364538 0.076898
C20   C     C_R   0.350156 0.318201 0.335407 -0.259182
C21   C     C_R   0.449140 0.374332 0.386772 -0.189769
C22   C     C_R   0.450793 0.464620 0.468627 0.012261
C23   C     C_R   0.856160 0.286342 0.485414 0.796240
C24   C     C_R   0.347259 0.494827 0.495927 0.291457
C25   C     C_R   0.550479 0.525512 0.524480 -0.085291
C26   C     C_R   0.544175 0.614687 0.606700 0.133421
C27   C     C_R   0.442363 0.642723 0.631063 -0.260216
C28   C     C_R   0.346306 0.583721 0.577778 -0.197990
C29   C     C_R   0.657012 0.502062 0.502266 0.004658
C30   C     C_R   0.742916 0.647968 0.635687 -0.003585
C31   C     C_R   0.015844 0.495972 0.313636 0.810901
C32   C     C_1   0.025631 0.494372 0.208448 -0.176810
C33   C     C_2   0.042620 0.492036 0.014476 -0.162773
C34   C     C_2   0.959215 0.510186 0.985629 -0.161636
C35   C     C_1   0.967341 0.508473 0.880212 0.001860
C36   C     C_1   0.034031 0.493161 0.119859 0.001601
Cu1   Cu    Cu3+1 0.899780 0.525060 0.522890 0.935653
Cu2   Cu    Cu3+1 0.100220 0.474940 0.477110 0.924734
H1    H     H_    0.884342 0.526074 0.040897 0.155111
H2    H     H_    0.342638 0.721134 0.357463 0.176739
H3    H     H_    0.817826 0.693629 0.677669 0.127219
H4    H     H_    0.435726 0.711265 0.692411 0.191050
H5    H     H_    0.669450 0.436027 0.441369 0.133995
H6    H     H_    0.175151 0.306898 0.324321 0.125048
H7    H     H_    0.522594 0.344994 0.360932 0.137017
H8    H     H_    0.349761 0.248914 0.272819 0.146008
H9    H     H_    0.272509 0.610944 0.604287 0.208105
H10   H     H_    0.117474 0.476101 0.959214 0.154669
H11   H     H_    0.917204 0.110620 0.368971 0.147675
H12   H     H_    0.561027 0.777740 0.304309 0.145730
H13   H     H_    0.772155 0.916230 0.313433 0.133971
H14   H     H_    0.619866 0.193183 0.557445 0.148558
H15   H     H_    0.081023 0.888780 0.608489 0.150045
H16   H     H_    0.435187 0.158926 0.578449 0.130000
H17   H     H_    0.216840 0.091982 0.640331 0.142873
N1    N     N_R   0.748810 0.563010 0.557590 -0.192578
N2    N     N_R   0.250540 0.437620 0.443020 -0.205945
O1    O     O_R   0.025040 0.682470 0.528790 -0.579000
O2    O     O_R   0.194310 0.640150 0.490130 -0.604203
O3    O     O_R   0.903380 0.524130 0.659910 -0.571990
O4    O     O_R   0.072660 0.481800 0.621240 -0.589603
O5    O     O_R   0.805690 0.359850 0.509870 -0.585035
O6    O     O_R   0.974960 0.317530 0.471210 -0.586278
O7    O     O_R   0.927340 0.518200 0.378760 -0.571995
O8    O     O_R   0.096620 0.475870 0.340090 -0.586303
N3    N     N_2   0.635328 0.763597 0.746848 -0.440694
H18   H     H_    0.720186 0.830329 0.753639 0.247978
C37   C     C_3   0.569958 0.722117 0.842300 -0.709145
H19   H     H_    0.619804 0.682597 0.865334 0.223651
H20   H     H_    0.474714 0.657684 0.835811 0.237934
H21   H     H_    0.563825 0.794989 0.902224 0.231962

loop_
_geom_bond_atom_site_label_1
_geom_bond_atom_site_label_2
_ccdc_geom_bond_type
C2    C35   T    
C4    C16   A    
N3    C37   S    
C9    C14   A    
C30   H3    S    
C6    C7    A    
C18   C30   A    
C29   N1    A    
C18   N3    S    
Cu2   N2    S    
Cu1   O1    S    
C1    C17   S    
C19   C20   A    
C18   C26   A    
Cu2   O8    S    
C6    H17   S    
C31   O7    A    
Cu2   O4    S    
C2    C12   S    
C21   C22   A    
C33   C36   S    
C4    C15   A    
C23   O6    A    
Cu1   O5    S    
C5    H15   S    
C7    H16   S    
C7    C8    A    
C28   H9    S    
C15   H14   S    
C29   H5    S    
C12   O4    A    
C11   C13   A    
C27   H4    S    
C26   C27   A    
Cu1   Cu2   S    
C1    O1    A    
C37   H21   S    
C32   C36   T    
C37   H20   S    
C13   H12   S    
C33   C34   D    
C21   H7    S    
C10   C15   A    
C1    O2    A    
C19   H6    S    
C25   C29   A    
C5    C6    A    
C22   C24   A    
Cu1   O3    S    
C5    C17   A    
C10   C11   A    
C14   H2    S    
Cu2   O2    S    
C12   O3    A    
C24   C28   A    
C16   H11   S    
Cu1   O7    S    
N3    H18   S    
C20   C21   A    
C8    C9    A    
C8    C10   A    
C34   C35   S    
C9    C17   A    
C27   C28   A    
Cu2   O6    S    
C33   H10   S    
C31   O8    A    
C37   H19   S    
C3    H13   S    
C23   O5    A    
C3    C11   A    
C25   C26   A    
C13   C14   A    
Cu1   N1    S    
C30   N1    A    
C34   H1    S    
C19   N2    A    
C4    C23   S    
C20   H8    S    
C3    C16   A    
C31   C32   S    
C24   N2    A    
C22   C25   A    
