data_mof_unit_37204.cif
_audit_creation_date              2012-12-11T14:39:22-0500
_audit_creation_method            fapswitch 2.2
_symmetry_space_group_name_H-M    P1
_symmetry_Int_Tables_number       1
_space_group_crystal_system       triclinic
_cell_length_a                    7.226366
_cell_length_b                    13.714867
_cell_length_c                    16.64216
_cell_angle_alpha                 90.002139
_cell_angle_beta                  97.17359
_cell_angle_gamma                 90.045922
_cell_volume                      1636.47068925

loop_
_atom_site_label
_atom_site_type_symbol
_atom_type_description
_atom_site_fract_x
_atom_site_fract_y
_atom_site_fract_z
_atom_type_partial_charge
O1    O     O_R   0.525340 0.338340 0.164530 -0.548143
O2    O     O_R   0.474660 0.661660 0.835470 -0.539131
O3    O     O_R   0.974660 0.838340 0.835470 -0.551189
O4    O     O_R   0.025340 0.161660 0.164530 -0.541094
O5    O     O_R   0.253520 0.352000 0.336710 -0.535562
O6    O     O_R   0.746480 0.648000 0.663290 -0.531094
O7    O     O_R   0.246480 0.852000 0.663290 -0.534189
O8    O     O_R   0.753520 0.148000 0.336710 -0.533183
O9    O     O_R   0.083330 0.168380 0.337300 -0.538541
O10   O     O_R   0.916670 0.831620 0.662700 -0.546253
O11   O     O_R   0.416670 0.668380 0.662700 -0.537026
O12   O     O_R   0.583330 0.331620 0.337300 -0.536226
C1    C     C_R   0.432411 0.373073 0.360604 0.807454
C2    C     C_R   0.568194 0.627092 0.639288 0.811563
C3    C     C_R   0.067611 0.873001 0.639344 0.797617
C4    C     C_R   0.931682 0.126577 0.360353 0.806288
O13   O     O_R   0.195840 0.349670 0.165140 -0.541182
O14   O     O_R   0.804160 0.650330 0.834860 -0.546585
O15   O     O_R   0.304160 0.849670 0.834860 -0.540726
O16   O     O_R   0.695840 0.150330 0.165140 -0.548256
C5    C     C_R   0.356633 0.370871 0.136845 0.793855
C6    C     C_R   0.642966 0.628753 0.862871 0.794382
C7    C     C_R   0.143365 0.871085 0.863037 0.789337
C8    C     C_R   0.857012 0.128635 0.137190 0.788967
O17   O     O_3   0.387830 0.193120 0.250910 -0.378716
O18   O     O_3   0.612170 0.806880 0.749090 -0.392383
O19   O     O_3   0.112170 0.693120 0.749090 -0.374104
O20   O     O_3   0.887830 0.306880 0.250910 -0.381611
V1    V     V_3+5 0.113010 0.264540 0.250910 1.476944
V2    V     V_3+5 0.886990 0.735460 0.749090 1.434881
V3    V     V_3+5 0.386990 0.764540 0.749090 1.459539
V4    V     V_3+5 0.613010 0.235460 0.250910 1.455914
H1    H     H_    0.934446 0.771695 0.278908 0.144071
H2    H     H_    0.069180 0.223370 0.722070 0.149878
H3    H     H_    0.554780 0.273576 0.721292 0.147932
H4    H     H_    0.412993 0.725317 0.278507 0.146532
C9    C     C_R   0.001224 0.204923 0.517863 -0.252869
C10   C     C_R   0.012699 0.793967 0.481851 -0.249068
C11   C     C_R   0.495418 0.705573 0.481980 -0.252569
C12   C     C_R   0.483833 0.294853 0.518155 -0.250216
C13   C     C_R   0.033560 0.248760 0.593685 -0.025525
C14   C     C_R   0.989856 0.749502 0.406375 -0.008488
C15   C     C_R   0.458327 0.749481 0.406459 -0.016322
C16   C     C_R   0.502414 0.250949 0.593795 0.002218
C17   C     C_R   0.049011 0.190248 0.662524 -0.134032
C18   C     C_R   0.948885 0.806874 0.337565 -0.168755
C19   C     C_R   0.440392 0.691225 0.337467 -0.170533
C20   C     C_R   0.543063 0.308423 0.662529 -0.166695
C21   C     C_R   0.033833 0.088393 0.656195 0.452340
C22   C     C_R   0.922629 0.908828 0.343257 0.467262
C23   C     C_R   0.462105 0.589017 0.343114 0.469911
C24   C     C_R   0.573013 0.409970 0.656654 0.462613
C25   C     C_R   0.020532 0.042054 0.578755 -0.023888
C26   C     C_R   0.962155 0.955904 0.420470 -0.008936
C27   C     C_R   0.477168 0.542840 0.420749 -0.011354
C28   C     C_R   0.535918 0.456789 0.579250 -0.008944
C29   C     C_R   0.995789 0.102003 0.508610 -0.022218
C30   C     C_R   0.002063 0.896508 0.490662 -0.021407
C31   C     C_R   0.502294 0.602729 0.490993 -0.028034
C32   C     C_R   0.496382 0.397293 0.509120 -0.026741
C33   C     C_R   0.030075 0.939032 0.569018 -0.138974
C34   C     C_R   0.964130 0.059584 0.430245 -0.131006
C35   C     C_R   0.469554 0.439613 0.430679 -0.131432
C36   C     C_R   0.535252 0.560316 0.569335 -0.131535
H5    H     H_    0.984639 0.253127 0.466017 0.119002
H6    H     H_    0.043657 0.746602 0.533780 0.118406
H7    H     H_    0.513607 0.753665 0.533897 0.116817
H8    H     H_    0.453240 0.247235 0.466346 0.116482
H9    H     H_    0.139824 0.064050 0.058752 0.154068
H10   H     H_    0.865139 0.928640 0.947032 0.147183
H11   H     H_    0.359889 0.563143 0.940766 0.155945
H12   H     H_    0.635588 0.429802 0.053777 0.151464
C37   C     C_2   0.151286 0.940486 0.932007 -0.306696
C38   C     C_2   0.850414 0.058335 0.068924 -0.332987
C39   C     C_2   0.348583 0.439770 0.067564 -0.318658
C40   C     C_2   0.649635 0.558686 0.931279 -0.337959
C41   C     C_2   0.998547 0.962395 0.968018 -0.159496
C42   C     C_2   0.005353 0.032688 0.035922 -0.103681
C43   C     C_2   0.501690 0.462465 0.032074 -0.165634
C44   C     C_2   0.494610 0.532477 0.963988 -0.110116
H13   H     H_    0.716402 0.027148 0.045141 0.113491
H14   H     H_    0.284437 0.973995 0.953838 0.125355
H15   H     H_    0.783839 0.528088 0.955387 0.114701
H16   H     H_    0.215097 0.472458 0.045207 0.126164
C45   C     C_2   0.051487 0.356168 0.599303 0.367590
H17   H     H_    0.019631 0.400720 0.545423 0.052344
O21   O     O_2   0.106103 0.396154 0.663428 -0.539024
C46   C     C_2   0.010363 0.642311 0.401016 0.362719
H18   H     H_    0.029981 0.598681 0.455865 0.054123
O22   O     O_2   0.008803 0.601446 0.335785 -0.542782
C47   C     C_2   0.438306 0.856845 0.401281 0.368945
H19   H     H_    0.469348 0.901194 0.455344 0.048863
O23   O     O_2   0.383416 0.897026 0.337293 -0.540254
C48   C     C_2   0.476874 0.144289 0.599640 0.339574
H20   H     H_    0.464509 0.099545 0.545400 0.056213
O24   O     O_2   0.464700 0.105304 0.664664 -0.550808
O25   O     O_3   0.032131 0.035838 0.726849 -0.573295
C49   C     C_3   0.850966 0.042169 0.749892 -0.205733
H21   H     H_    0.803230 0.118909 0.754653 0.133527
H22   H     H_    0.850715 0.010138 0.810659 0.165011
H23   H     H_    0.750755 0.999856 0.707309 0.181898
O26   O     O_3   0.866287 0.963734 0.274114 -0.563276
C50   C     C_3   0.730035 0.915112 0.219731 -0.242202
H24   H     H_    0.641346 0.863816 0.249818 0.151662
H25   H     H_    0.798621 0.875904 0.173112 0.134813
H26   H     H_    0.633686 0.969653 0.188561 0.176314
O27   O     O_3   0.463260 0.533626 0.273281 -0.566081
C51   C     C_3   0.582931 0.574378 0.220882 -0.249129
H27   H     H_    0.693821 0.622612 0.251574 0.155078
H28   H     H_    0.499119 0.615504 0.171663 0.143039
H29   H     H_    0.656277 0.514571 0.193373 0.184961
O28   O     O_3   0.630038 0.464794 0.725802 -0.563355
C52   C     C_3   0.763653 0.415317 0.780764 -0.233143
H30   H     H_    0.850372 0.362486 0.751310 0.150458
H31   H     H_    0.692795 0.377614 0.827482 0.137008
H32   H     H_    0.862242 0.469115 0.811668 0.176329

loop_
_geom_bond_atom_site_label_1
_geom_bond_atom_site_label_2
_ccdc_geom_bond_type
O1    C5    A    
C12   C32   A    
C27   C31   A    
O13   V1    S    
O3    C7    A    
C6    C40   S    
O15   V3    S    
O25   C49   S    
C29   C34   A    
C41   C42   S    
C31   C36   A    
C22   C26   A    
C32   C35   A    
O20   V1    S    
O9    C4    A    
C10   C14   A    
H12   C43   S    
O10   C3    A    
O16   V4    S    
O4    C8    A    
O11   C2    A    
C39   H16   S    
O6    C2    A    
C24   O28   S    
C51   H27   S    
H4    C19   S    
C14   C18   A    
O28   C52   S    
C10   C30   A    
C25   C33   A    
O16   C8    A    
C9    H5    S    
O2    C6    A    
O27   C51   S    
C28   C36   A    
O14   V2    S    
O5    C1    A    
O4    V1    S    
O9    V1    S    
C52   H32   S    
C30   C33   A    
O7    C3    A    
O11   V3    S    
O18   V3    S    
O8    C4    A    
O12   V4    S    
O19   V2    S    
H1    C18   S    
H9    C42   S    
C48   H20   S    
C4    C34   S    
C7    C37   S    
H3    C20   S    
C40   H15   S    
H11   C44   S    
O5    V1    S    
C45   O21   D    
H10   C41   S    
O7    V3    S    
O8    V4    S    
C10   H6    S    
C47   H19   S    
C25   C29   A    
C19   C23   A    
C26   C34   A    
C45   H17   S    
O1    V4    S    
O13   C5    A    
C28   C32   A    
C27   C35   A    
O2    V3    S    
O3    V2    S    
O15   C7    A    
C47   O23   D    
O10   V2    S    
C1    C35   S    
C17   C21   A    
C11   C31   A    
C3    C33   S    
C50   H25   S    
H2    C17   S    
O12   C1    A    
C48   O24   D    
C2    C36   S    
O6    V2    S    
C46   O22   D    
C22   O26   S    
C49   H22   S    
C38   C42   D    
C14   C46   S    
C38   H13   S    
C37   H14   S    
C52   H30   S    
C26   C30   A    
C5    C39   S    
C37   C41   D    
O14   C6    A    
C11   H7    S    
C40   C44   D    
C11   C15   A    
C49   H23   S    
C13   C45   S    
C18   C22   A    
C51   H29   S    
C8    C38   S    
C39   C43   D    
O17   V4    S    
C21   C25   A    
C51   H28   S    
C50   H26   S    
C23   C27   A    
C9    C13   A    
O26   C50   S    
C15   C47   S    
C16   C48   S    
C21   O25   S    
C43   C44   S    
C16   C20   A    
C12   C16   A    
C46   H18   S    
C23   O27   S    
C49   H21   S    
C12   H8    S    
C50   H24   S    
C13   C17   A    
C20   C24   A    
C15   C19   A    
C9    C29   A    
C24   C28   A    
C52   H31   S    
