data_mof_unit_36784.cif
_audit_creation_date              2012-10-26T19:45:31-0400
_audit_creation_method            fapswitch 2.2
_symmetry_space_group_name_H-M    P1
_symmetry_Int_Tables_number       1
_space_group_crystal_system       triclinic
_cell_length_a                    10.830491
_cell_length_b                    9.512678
_cell_length_c                    10.741484
_cell_angle_alpha                 89.992259
_cell_angle_beta                  90.226988
_cell_angle_gamma                 89.997076
_cell_volume                      1106.65389096

loop_
_atom_site_label
_atom_site_type_symbol
_atom_type_description
_atom_site_fract_x
_atom_site_fract_y
_atom_site_fract_z
_atom_type_partial_charge
C1    C     C_R   0.262074 0.499996 0.500259 0.535653
C2    C     C_R   0.428099 0.925578 0.417898 0.007240
C3    C     C_R   0.571832 0.925547 0.582275 0.006597
C4    C     C_R   0.571801 0.074430 0.582301 0.006506
C5    C     C_R   0.497424 0.499785 0.259790 0.545679
C6    C     C_R   0.737949 0.499998 0.500421 0.549230
C7    C     C_R   0.493786 0.499681 0.739916 0.543983
C8    C     C_3   0.386275 0.593422 0.073710 -0.215902
C9    C     C_3   0.471978 0.346766 0.073050 -0.212177
C10   C     C_3   0.394265 0.609715 0.930409 -0.099889
C11   C     C_3   0.460316 0.346390 0.929862 -0.094311
C12   C     C_3   0.618019 0.541196 0.926818 -0.266758
C13   C     C_3   0.617586 0.552940 0.070017 -0.250891
C14   C     C_3   0.493333 0.498659 0.121969 0.029226
C15   C     C_3   0.487711 0.498285 0.877867 0.079107
C16   C     C_3   0.265199 0.614032 0.869279 -0.421683
C17   C     C_3   0.336239 0.280402 0.888529 -0.406495
C18   C     C_R   0.063914 0.372252 0.500387 -0.147772
C19   C     C_R   0.063916 0.627733 0.502533 -0.148602
C20   C     C_R   0.936189 0.372250 0.500402 -0.146523
C21   C     C_R   0.936189 0.627737 0.502532 -0.145807
C22   C     C_R   0.871813 0.499996 0.501144 0.016239
C23   C     C_R   0.128265 0.499995 0.501108 0.013870
C24   C     C_R   0.428117 0.074460 0.417882 0.006505
Cu1   Cu    Cu3+1 0.500020 0.640660 0.500000 0.912081
Cu2   Cu    Cu3+1 0.500020 0.359340 0.500000 0.910211
H1    H     H_    0.390892 0.699603 0.117005 0.111288
H2    H     H_    0.695770 0.490973 0.109270 0.115133
H3    H     H_    0.647185 0.643763 0.886489 0.114662
H4    H     H_    0.687906 0.461966 0.897769 0.107890
H5    H     H_    0.111968 0.272384 0.499526 0.124789
H6    H     H_    0.111975 0.727594 0.503438 0.125183
H7    H     H_    0.888152 0.272376 0.499582 0.125821
H8    H     H_    0.888149 0.727609 0.503449 0.125688
H9    H     H_    0.370424 0.130628 0.352183 0.100343
H10   H     H_    0.370371 0.869440 0.352229 0.100957
H11   H     H_    0.216252 0.710407 0.900340 0.117231
H12   H     H_    0.551178 0.278691 0.100742 0.116007
H13   H     H_    0.271486 0.618694 0.766408 0.161794
H14   H     H_    0.206903 0.523766 0.895648 0.130778
H15   H     H_    0.310789 0.308762 0.791713 0.169203
H16   H     H_    0.343455 0.164035 0.893532 0.114172
H17   H     H_    0.259464 0.311351 0.950696 0.119880
H18   H     H_    0.629483 0.869382 0.648009 0.101785
H19   H     H_    0.629396 0.130576 0.648080 0.101470
H20   H     H_    0.296513 0.546123 0.101597 0.116956
H21   H     H_    0.388688 0.300817 0.117915 0.121701
H22   H     H_    0.434387 0.715577 0.911696 0.137026
H23   H     H_    0.533703 0.274949 0.894054 0.132304
H24   H     H_    0.631613 0.664582 0.097717 0.127923
N1    N     N_R   0.500030 0.852070 0.500030 -0.222202
N2    N     N_R   0.500030 0.147930 0.500030 -0.222435
O1    O     O_R   0.319660 0.618740 0.499990 -0.512893
O2    O     O_R   0.319660 0.381260 0.499990 -0.511906
O3    O     O_R   0.499990 0.618790 0.317690 -0.506722
O4    O     O_R   0.499990 0.381210 0.317690 -0.509779
O5    O     O_R   0.680370 0.618830 0.500010 -0.505648
O6    O     O_R   0.680370 0.381170 0.500010 -0.505650
O7    O     O_R   0.500030 0.618780 0.682310 -0.513841
O8    O     O_R   0.500030 0.381220 0.682310 -0.514228

loop_
_geom_bond_atom_site_label_1
_geom_bond_atom_site_label_2
_ccdc_geom_bond_type
C24   N2    A    
C19   C23   A    
C9    C14   S    
Cu1   N1    S    
C13   H2    S    
C1    C23   S    
C11   H23   S    
Cu2   N2    S    
C12   H3    S    
C9    C11   S    
C6    O6    A    
C5    O4    A    
C21   H8    S    
C12   C15   S    
C16   H11   S    
C1    O2    A    
C1    O1    A    
C11   C15   S    
C17   H17   S    
Cu1   Cu2   S    
C10   C16   S    
C21   C22   A    
C10   H22   S    
Cu2   O6    S    
C6    O5    A    
C5    C14   S    
Cu1   O5    S    
C16   H14   S    
C19   H6    S    
Cu2   O2    S    
C7    C15   S    
C9    H12   S    
C19   C21   A    
Cu1   O1    S    
C9    H21   S    
C18   C20   A    
C4    H19   S    
C2    C24   A    
C17   H15   S    
C3    H18   S    
C24   H9    S    
C2    N1    A    
C20   H7    S    
C16   H13   S    
C2    H10   S    
C13   H24   S    
C6    C22   S    
Cu1   O3    S    
C7    O8    A    
C12   C13   S    
C8    C10   S    
C7    O7    A    
C8    H1    S    
C3    N1    A    
C17   H16   S    
C11   C17   S    
C8    C14   S    
C18   H5    S    
Cu1   O7    S    
C8    H20   S    
C12   H4    S    
C10   C15   S    
C13   C14   S    
Cu2   O8    S    
C4    N2    A    
C5    O3    A    
C3    C4    A    
C18   C23   A    
C20   C22   A    
Cu2   O4    S    
