data_mof_unit_53262.cif
_audit_creation_date              2012-12-11T17:45:32-0500
_audit_creation_method            fapswitch 2.2
_symmetry_space_group_name_H-M    P1
_symmetry_Int_Tables_number       1
_space_group_crystal_system       triclinic
_cell_length_a                    14.989295
_cell_length_b                    14.941282
_cell_length_c                    15.067784
_cell_angle_alpha                 110.410646
_cell_angle_beta                  108.864946
_cell_angle_gamma                 108.65407
_cell_volume                      2612.59431795

loop_
_atom_site_label
_atom_site_type_symbol
_atom_type_description
_atom_site_fract_x
_atom_site_fract_y
_atom_site_fract_z
_atom_type_partial_charge
C1    C     C_R   0.977332 0.254056 0.066404 -0.118194
C2    C     C_R   0.320697 0.779846 0.324081 0.085847
C3    C     C_R   0.298892 0.500019 0.929064 -0.003999
C4    C     C_R   0.940520 0.501295 0.303540 -0.104057
C5    C     C_R   0.686741 0.408812 0.935461 -0.129416
C6    C     C_R   0.018201 0.591663 0.781886 -0.099267
C7    C     C_R   0.788719 0.200814 0.695838 -0.129623
C8    C     C_R   0.993707 0.799918 0.090272 -0.138752
C9    C     C_R   0.084789 0.801518 0.999340 -0.160307
C10   C     C_R   0.700702 0.199699 0.790627 -0.029945
C11   C     C_R   0.777195 0.592201 0.024607 -0.090363
C12   C     C_R   0.313523 0.754221 0.223278 -0.129199
C13   C     C_R   0.941132 0.409511 0.686060 -0.138250
C14   C     C_R   0.675527 0.500793 0.950834 -0.005217
C15   C     C_R   0.953721 0.502747 0.678810 0.041039
C16   C     C_R   0.695993 0.141908 0.694418 0.120957
C17   C     C_R   0.047232 0.861694 0.056057 0.048667
C18   C     C_R   0.624862 0.255522 0.088976 -0.117050
C19   C     C_R   0.693212 0.345458 0.194241 -0.167165
C20   C     C_R   0.745035 0.331198 0.280253 0.140446
C21   C     C_R   0.719777 0.224316 0.260115 -0.143867
C22   C     C_R   0.646222 0.134194 0.155713 -0.113411
C23   C     C_R   0.208946 0.409090 0.902082 -0.145280
C24   C     C_R   0.599899 0.149946 0.069843 -0.095852
C25   C     C_R   0.840338 0.433966 0.483394 -0.044910
C26   C     C_R   0.936965 0.511879 0.582970 0.022483
C27   C     C_R   0.022243 0.594190 0.588096 -0.024385
C28   C     C_R   0.012204 0.592596 0.494415 -0.183816
C29   C     C_R   0.924865 0.507156 0.394437 0.085649
C30   C     C_R   0.836148 0.426959 0.386792 0.000620
C31   C     C_R   0.152572 0.789780 0.732794 -0.176004
C32   C     C_R   0.250270 0.870123 0.827660 -0.145634
C33   C     C_R   0.324423 0.841640 0.876117 -0.100665
C34   C     C_R   0.995149 0.591178 0.298411 0.666212
C35   C     C_R   0.301610 0.732859 0.829145 -0.119969
C36   C     C_R   0.204236 0.651783 0.734148 -0.128849
C37   C     C_R   0.127933 0.679555 0.686659 0.124097
C38   C     C_R   0.171630 0.997058 0.378876 -0.200643
C39   C     C_R   0.265508 0.988889 0.394825 0.080891
C40   C     C_R   0.311063 0.964253 0.474480 0.202807
C41   C     C_R   0.263791 0.951353 0.539115 -0.153276
C42   C     C_R   0.170003 0.959196 0.522129 -0.023237
C43   C     C_R   0.123656 0.981526 0.441742 -0.062547
C44   C     C_R   0.504607 0.043528 0.582092 0.673952
C45   C     C_R   0.298102 0.590781 0.993879 -0.137063
C46   C     C_R   0.602317 0.042918 0.604983 -0.178454
C47   C     C_R   0.607715 0.952636 0.539998 0.043150
C48   C     C_R   0.512440 0.864221 0.448659 -0.163660
C49   C     C_R   0.414943 0.865686 0.425465 -0.038179
C50   C     C_R   0.410465 0.955146 0.494158 -0.170147
C51   C     C_R   0.747137 0.928562 0.490892 0.721648
C52   C     C_R   0.844664 0.926326 0.518148 -0.273253
C53   C     C_R   0.905627 0.943190 0.620687 -0.183379
C54   C     C_R   0.869137 0.962093 0.696252 -0.099676
C55   C     C_R   0.771839 0.964398 0.669560 -0.230104
C56   C     C_R   0.912741 0.409553 0.212262 -0.262090
C57   C     C_R   0.710156 0.948253 0.566886 -0.039432
C58   C     C_3   0.474352 0.399917 0.831403 -0.389784
C59   C     C_3   0.369543 0.395226 0.829197 -0.430107
C60   C     C_3   0.563036 0.499654 0.037789 -0.123798
C61   C     C_3   0.573295 0.603840 0.935647 -0.414439
C62   C     C_3   0.574308 0.501752 0.938854 0.340673
C63   C     C_3   0.396623 0.500818 0.927006 0.392324
C64   C     C_3   0.463825 0.509523 0.034889 -0.439271
C65   C     C_3   0.465228 0.599620 0.921286 -0.419698
C66   C     C_R   0.261545 0.133473 0.870044 -0.147268
C67   C     C_R   0.218367 0.742777 0.311271 -0.142637
C68   C     C_R   0.191337 0.107280 0.910248 -0.197143
C69   C     C_R   0.227343 0.166524 0.021968 0.119619
C70   C     C_R   0.334240 0.249639 0.093189 -0.140426
C71   C     C_R   0.405281 0.272025 0.053378 -0.122229
C72   C     C_R   0.369090 0.214191 0.941874 -0.096278
C73   C     C_R   0.153936 0.033463 0.069740 -0.237869
C74   C     C_R   0.076650 0.976377 0.090254 0.045897
C75   C     C_R   0.027859 0.030491 0.137804 0.004460
C76   C     C_R   0.056287 0.136405 0.158059 -0.223447
C77   C     C_R   0.101866 0.173450 0.101622 0.053752
C78   C     C_R   0.071379 0.256485 0.977603 -0.141359
C79   C     C_R   0.160720 0.126704 0.066459 0.025514
C80   C     C_R   0.830036 0.908663 0.045254 -0.121899
C81   C     C_R   0.733213 0.876908 0.048262 -0.185870
C82   C     C_R   0.734494 0.908221 0.147769 -0.089846
C83   C     C_R   0.832790 0.974808 0.244653 -0.072563
C84   C     C_R   0.929700 0.010937 0.242028 -0.218463
C85   C     C_R   0.929207 0.976219 0.142237 0.121586
C86   C     C_R   0.057773 0.231588 0.054886 0.053383
H1    H     H_    0.942654 0.241992 0.116187 0.100241
H2    H     H_    0.041083 0.675623 0.805105 0.118008
H3    H     H_    0.814556 0.173952 0.637069 0.106393
H4    H     H_    0.972342 0.827590 0.152579 0.122731
H5    H     H_    0.142530 0.829587 0.973994 0.107310
H6    H     H_    0.646927 0.171115 0.820050 0.102469
H7    H     H_    0.797152 0.677033 0.060428 0.105778
H8    H     H_    0.901114 0.326098 0.620988 0.097140
H9    H     H_    0.545938 0.080644 0.988255 0.102373
H10   H     H_    0.592575 0.268019 0.021954 0.096210
H11   H     H_    0.712058 0.426727 0.207155 0.124808
H12   H     H_    0.378965 0.775108 0.205270 0.121965
H13   H     H_    0.760217 0.210866 0.324101 0.117371
H14   H     H_    0.627875 0.052445 0.140734 0.115774
H15   H     H_    0.080863 0.652872 0.499799 0.159000
H16   H     H_    0.095205 0.812881 0.696607 0.121472
H17   H     H_    0.268478 0.954335 0.864425 0.139463
H18   H     H_    0.399578 0.903806 0.950118 0.101544
H19   H     H_    0.359376 0.711872 0.867242 0.096336
H20   H     H_    0.187153 0.567481 0.699103 0.109695
H21   H     H_    0.050855 0.987273 0.428716 0.101063
H22   H     H_    0.180565 0.324513 0.846392 0.100042
H23   H     H_    0.136551 0.015797 0.317823 0.121050
H24   H     H_    0.298907 0.933709 0.601573 0.113434
H25   H     H_    0.133098 0.947674 0.571102 0.097447
H26   H     H_    0.513793 0.794169 0.395509 0.154735
H27   H     H_    0.873266 0.911877 0.459857 0.149466
H28   H     H_    0.981060 0.941495 0.641500 0.129830
H29   H     H_    0.915993 0.974806 0.775557 0.121829
H30   H     H_    0.744549 0.978808 0.728961 0.139822
H31   H     H_    0.471499 0.322017 0.821841 0.168138
H32   H     H_    0.477649 0.404579 0.760313 0.183544
H33   H     H_    0.316359 0.385984 0.751505 0.160506
H34   H     H_    0.325702 0.321918 0.832310 0.168652
H35   H     H_    0.550933 0.419248 0.028612 0.118165
H36   H     H_    0.414265 0.444965 0.045219 0.167368
H37   H     H_    0.639242 0.678528 0.012532 0.168779
H38   H     H_    0.586286 0.608984 0.868532 0.158874
H39   H     H_    0.420325 0.590396 0.840938 0.158392
H40   H     H_    0.352432 0.675558 0.025098 0.090290
H41   H     H_    0.483330 0.678576 0.985564 0.145544
H42   H     H_    0.488293 0.588923 0.104140 0.166940
H43   H     H_    0.423843 0.231021 0.910513 0.096321
H44   H     H_    0.233821 0.088317 0.783982 0.112441
H45   H     H_    0.109826 0.039862 0.855149 0.112580
H46   H     H_    0.363749 0.293167 0.179848 0.113878
H47   H     H_    0.488214 0.334754 0.109974 0.115155
H48   H     H_    0.201928 0.000844 0.044849 0.131019
H49   H     H_    0.021526 0.177965 0.197876 0.127559
H50   H     H_    0.862781 0.325245 0.186010 0.159645
H51   H     H_    0.827699 0.885595 0.967600 0.112081
H52   H     H_    0.657002 0.828242 0.973280 0.121411
H53   H     H_    0.659308 0.882327 0.149757 0.127916
H54   H     H_    0.833799 0.001463 0.321773 0.148597
H55   H     H_    0.004570 0.069245 0.317468 0.111955
H56   H     H_    0.195871 0.749302 0.373410 0.149467
H57   H     H_    0.126812 0.251606 0.948239 0.125750
H58   H     H_    0.624513 0.324437 0.889622 0.117056
N1    N     N_R   0.947080 0.293830 0.002870 -0.044026
N2    N     N_R   0.054040 0.556820 0.847890 -0.042051
N3    N     N_R   0.848290 0.293830 0.791110 -0.047983
N4    N     N_R   0.995680 0.706170 0.053910 -0.039281
N5    N     N_R   0.052920 0.706170 0.997130 -0.042669
N6    N     N_R   0.791050 0.293830 0.847890 -0.053578
N7    N     N_R   0.846330 0.556820 0.053910 -0.037543
N8    N     N_R   0.997640 0.443180 0.791110 -0.040557
N9    N     N_R   0.208950 0.706170 0.152110 -0.050776
N10   N     N_R   0.153670 0.443180 0.946090 -0.037602
N11   N     N_R   0.002360 0.556820 0.208890 -0.101631
N12   N     N_R   0.210070 0.556820 0.002870 -0.035324
N13   N     N_R   0.945960 0.443180 0.152110 -0.069955
N14   N     N_R   0.151710 0.706170 0.208890 -0.040602
N15   N     N_R   0.004320 0.293830 0.946090 -0.043488
N16   N     N_R   0.789930 0.443180 0.997130 -0.043628
Ni1   Ni    Ni4+2 0.869690 0.369690 0.000000 0.204816
Ni2   Ni    Ni4+2 0.130310 0.630310 0.000000 0.211679
Ni3   Ni    Ni4+2 0.000970 0.369690 0.869780 0.210410
Ni4   Ni    Ni4+2 0.999030 0.630310 0.130220 0.265264
N17   N     N_3   0.745094 0.364684 0.479292 -0.206717
H59   H     H_    0.756045 0.306148 0.496743 0.109340
H60   H     H_    0.731313 0.412699 0.537185 0.126605
N18   N     N_3   0.314603 0.005671 0.330645 -0.208706
H61   H     H_    0.332730 0.083611 0.341385 0.117690
H62   H     H_    0.257718 0.948502 0.248991 0.118016
F1    F     F_    0.501324 0.134109 0.641490 -0.732851
F2    F     F_    0.690255 0.914038 0.391600 -0.750187
F3    F     F_    0.011496 0.693360 0.355875 -0.739555
N19   N     N_3   0.660239 0.583845 0.143155 -0.206472
H63   H     H_    0.650318 0.570050 0.203646 0.116120
H64   H     H_    0.669543 0.661593 0.161510 0.139731

loop_
_geom_bond_atom_site_label_1
_geom_bond_atom_site_label_2
_ccdc_geom_bond_type
C58   C62   S    
C66   C68   A    
C63   C65   S    
C1    H1    S    
N17   H59   S    
N11   N13   A    
C33   H18   S    
C60   N19   S    
C73   C74   A    
C3    C23   A    
C35   C36   A    
C12   N9    A    
C42   H25   S    
C2    C12   A    
C9    H5    S    
C81   C82   A    
C19   H11   S    
C72   H43   S    
C20   C30   S    
C52   H27   S    
C53   H28   S    
N2    Ni2   S    
C9    N5    A    
C26   C27   A    
C59   H34   S    
C61   H38   S    
C18   C24   A    
C65   H41   S    
C28   C29   A    
C69   C70   A    
C38   C39   A    
C21   H13   S    
C11   C14   A    
C64   H36   S    
C55   H30   S    
C44   C50   A    
C80   H51   S    
C7    H3    S    
C58   H32   S    
C6    H2    S    
C60   C62   S    
C18   C19   A    
C41   C42   A    
N9    N14   A    
N19   H63   S    
C6    C15   A    
C46   C47   A    
C1    N1    A    
C28   H15   S    
C75   C85   S    
C66   C72   A    
C83   C84   A    
C68   C69   A    
C64   H42   S    
C70   C71   A    
C51   C57   A    
C29   C30   A    
N10   N12   A    
C4    C29   S    
N14   Ni4   S    
C78   C86   A    
N18   H62   S    
N12   Ni2   S    
N17   H60   S    
N1    N15   A    
C21   C22   A    
C4    C56   A    
C8    N4    A    
C83   H54   S    
C56   H50   S    
C76   H49   S    
C44   C46   A    
C7    N3    A    
C60   H35   S    
C77   C79   A    
C81   H52   S    
C4    C34   A    
C22   H14   S    
C74   C75   A    
C36   H20   S    
C51   C52   A    
N4    Ni4   S    
C31   H16   S    
N10   Ni3   S    
N3    N6    A    
C84   C85   A    
C2    C67   A    
C24   H9    S    
C16   C46   S    
C39   C40   A    
C10   C16   A    
C15   C26   S    
C25   N17   S    
C58   C59   S    
C34   N11   A    
C3    C45   A    
C58   H31   S    
C31   C37   A    
C39   N18   S    
C65   H39   S    
C68   H45   S    
C75   C76   A    
C80   C85   A    
C35   H19   S    
C2    C49   S    
C47   C57   S    
C56   N13   A    
C47   C48   A    
C45   H40   S    
C48   C49   A    
C5    N16   A    
C54   H29   S    
C20   C21   A    
C82   H53   S    
C70   H46   S    
C73   C79   A    
C32   H17   S    
C45   N12   A    
C43   H21   S    
C76   C77   A    
C38   H23   S    
C5    C14   A    
N2    N8    A    
C9    C17   A    
N18   H61   S    
C48   H26   S    
C77   C86   S    
C49   C50   A    
C41   H24   S    
C13   C15   A    
C17   C74   S    
C22   C24   A    
C69   C79   S    
C8    H4    S    
C42   C43   A    
C6    N2    A    
N13   Ni1   S    
C52   C53   A    
C11   N7    A    
C25   C30   A    
N6    Ni1   S    
C54   C55   A    
C51   F2    S    
C59   H33   S    
C12   H12   S    
C31   C32   A    
C7    C16   A    
C18   H10   S    
C13   N8    A    
C80   C81   A    
C5    H58   S    
C71   H47   S    
C53   C54   A    
C3    C63   S    
N11   Ni4   S    
C13   H8    S    
C59   C63   S    
C8    C17   A    
C60   C64   S    
N9    Ni2   S    
C61   H37   S    
C32   C33   A    
C19   C20   A    
C55   C57   A    
C25   C26   A    
C44   F1    S    
C38   C43   A    
C34   F3    S    
N3    Ni3   S    
C78   H57   S    
N7    N16   A    
C11   H7    S    
N1    Ni1   S    
C84   H55   S    
C27   C37   S    
C40   C50   S    
C23   H22   S    
C33   C35   A    
C67   N14   A    
N15   Ni3   S    
N4    N5    A    
C61   C62   S    
N16   Ni1   S    
N19   H64   S    
N8    Ni3   S    
C10   H6    S    
C63   C64   S    
C61   C65   S    
C78   N15   A    
C1    C86   A    
C71   C72   A    
C73   H48   S    
C36   C37   A    
N7    Ni4   S    
C23   N10   A    
C27   C28   A    
C40   C41   A    
N5    Ni2   S    
C82   C83   A    
C67   H56   S    
C10   N6    A    
C66   H44   S    
C14   C62   S    
