data_mof_unit_17348.cif
_audit_creation_date              2012-12-10T17:15:15-0500
_audit_creation_method            fapswitch 2.2
_symmetry_space_group_name_H-M    P1
_symmetry_Int_Tables_number       1
_space_group_crystal_system       triclinic
_cell_length_a                    10.259426
_cell_length_b                    10.661449
_cell_length_c                    12.844187
_cell_angle_alpha                 91.072765
_cell_angle_beta                  91.674557
_cell_angle_gamma                 96.647105
_cell_volume                      1394.51609606

loop_
_atom_site_label
_atom_site_type_symbol
_atom_type_description
_atom_site_fract_x
_atom_site_fract_y
_atom_site_fract_z
_atom_type_partial_charge
Br1   Br    Br    0.255340 0.380250 0.173052 -0.566945
Br2   Br    Br    0.744660 0.619750 0.826948 -0.566946
Br3   Br    Br    0.390069 0.909255 0.649207 -0.557805
Br4   Br    Br    0.609929 0.090744 0.350791 -0.557807
Br5   Br    Br    0.877942 0.639931 0.400530 -0.460350
Br6   Br    Br    0.122058 0.360069 0.599470 -0.460354
C1    C     C_R   0.443197 0.266528 0.488642 0.937629
C2    C     C_R   0.674124 0.495136 0.040840 -0.169710
C3    C     C_R   0.337133 0.530961 0.853658 0.196906
C4    C     C_R   0.662867 0.469038 0.146342 0.196906
C5    C     C_R   0.576036 0.544757 0.875497 0.210840
C6    C     C_R   0.423964 0.455242 0.124504 0.210840
C7    C     C_R   0.563191 0.511953 0.979358 0.025434
C8    C     C_R   0.436809 0.488046 0.020642 0.025433
C9    C     C_2   0.403304 0.130820 0.479254 0.057423
C10   C     C_2   0.596697 0.869180 0.520745 0.057420
C11   C     C_2   0.498571 0.057212 0.468958 0.103661
C12   C     C_R   0.556803 0.733472 0.511358 0.937628
C13   C     C_2   0.501430 0.942788 0.531041 0.103664
C14   C     C_3   0.905069 0.460979 0.168834 -0.671858
C15   C     C_3   0.094931 0.539021 0.831166 -0.671856
C16   C     C_3   0.809270 0.889703 0.612922 -0.644743
C17   C     C_3   0.190729 0.110301 0.387078 -0.644742
C18   C     C_3   0.809159 0.285189 0.663282 -0.551408
C19   C     C_3   0.190841 0.714812 0.336718 -0.551410
C20   C     C_2   0.070289 0.488304 0.507490 0.289474
C21   C     C_2   0.929711 0.511695 0.492510 0.289479
C22   C     C_R   0.477161 0.514694 0.698472 0.930121
C23   C     C_R   0.522839 0.485306 0.301528 0.930121
C24   C     C_R   0.536990 0.465525 0.189833 -0.188549
C25   C     C_R   0.463010 0.534474 0.810167 -0.188549
C26   C     C_R   0.325875 0.504863 0.959160 -0.169710
H1    H     H_    0.231192 0.500718 0.994031 0.193805
H2    H     H_    0.073344 0.440030 0.856765 0.253018
H3    H     H_    0.748980 0.015934 0.511017 0.262631
H4    H     H_    0.910544 0.938982 0.609362 0.240277
H5    H     H_    0.817762 0.787318 0.616213 0.290133
H6    H     H_    0.764610 0.921337 0.685270 0.244615
H7    H     H_    0.251022 0.984063 0.488975 0.262628
H8    H     H_    0.089459 0.061012 0.390631 0.240271
H9    H     H_    0.235395 0.078685 0.314726 0.244622
H10   H     H_    0.182226 0.212686 0.383798 0.290133
H11   H     H_    0.809692 0.264856 0.501957 0.257749
H12   H     H_    0.768808 0.499281 0.005969 0.193805
H13   H     H_    0.836898 0.189197 0.677319 0.212989
H14   H     H_    0.701436 0.281879 0.669547 0.249896
H15   H     H_    0.858537 0.350829 0.724232 0.245564
H16   H     H_    0.190309 0.735143 0.498044 0.257751
H17   H     H_    0.163105 0.810805 0.322684 0.212989
H18   H     H_    0.141460 0.649175 0.275768 0.245564
H19   H     H_    0.298563 0.718119 0.330452 0.249898
H20   H     H_    0.756251 0.357627 0.249322 0.270141
H21   H     H_    0.977000 0.445436 0.232180 0.266502
H22   H     H_    0.926655 0.559970 0.143235 0.253018
H23   H     H_    0.916704 0.393589 0.103676 0.238165
H24   H     H_    0.243750 0.642373 0.750679 0.270141
H25   H     H_    0.023000 0.554565 0.767820 0.266502
H26   H     H_    0.083296 0.606411 0.896325 0.238165
N1    N     N_2   0.162330 0.550370 0.457540 -0.058059
N2    N     N_2   0.837670 0.449630 0.542460 -0.058059
N3    N     N_2   0.773608 0.439669 0.208066 -0.257698
N4    N     N_2   0.226392 0.560331 0.791934 -0.257697
N5    N     N_2   0.732686 0.920173 0.522138 -0.276411
N6    N     N_2   0.267315 0.079825 0.477859 -0.276410
N7    N     N_2   0.850414 0.324826 0.561123 -0.240426
N8    N     N_2   0.149586 0.675174 0.438878 -0.240425
O1    O     O_R   0.567930 0.307680 0.508550 -0.628891
O2    O     O_R   0.432070 0.692320 0.491450 -0.628891
O3    O     O_R   0.351090 0.340020 0.481290 -0.561357
O4    O     O_R   0.648910 0.659980 0.518710 -0.561356
O5    O     O_R   0.590490 0.486480 0.665020 -0.583810
O6    O     O_R   0.409510 0.513520 0.334980 -0.583810
O7    O     O_R   0.373660 0.518820 0.637760 -0.575382
O8    O     O_R   0.626340 0.481180 0.362240 -0.575383
Zn1   Zn    Zn3+2 0.644780 0.478400 0.518200 1.016426
Zn2   Zn    Zn3+2 0.355220 0.521600 0.481800 1.016426

loop_
_geom_bond_atom_site_label_1
_geom_bond_atom_site_label_2
_ccdc_geom_bond_type
H20   N3    S    
C12   O4    A    
C9    N6    S    
C19   H19   S    
Br3   C13   S    
C23   C24   S    
C23   O8    A    
C10   N5    S    
O2    Zn2   S    
C16   H4    S    
C20   N1    D    
C4    C24   A    
N2    Zn1   S    
C2    C7    A    
C17   H9    S    
H11   N7    S    
O6    Zn2   S    
C23   O6    A    
C18   H14   S    
C26   H1    S    
C18   H15   S    
C1    C9    S    
C1    O3    A    
C15   N4    S    
C5    C25   A    
C15   H26   S    
C7    C8    A    
O5    Zn1   S    
H7    N6    S    
C5    C7    A    
C20   C21   S    
Br6   C20   S    
C17   H10   S    
C18   N7    S    
C10   C13   D    
C22   C25   S    
Br2   C5    S    
C10   C12   S    
C17   N6    S    
C11   C13   S    
C6    C8    A    
N2    N7    S    
C19   H17   S    
C21   N2    D    
C14   H23   S    
N1    N8    S    
O7    Zn2   S    
H24   N4    S    
C4    N3    S    
O1    Zn1   S    
O8    Zn1   S    
Br4   C11   S    
C12   O2    A    
C1    O1    A    
C3    N4    S    
C22   O5    A    
C15   H25   S    
C2    H12   S    
C18   H13   S    
C14   N3    S    
O3    Zn2   S    
C14   H22   S    
O4    Zn1   S    
C9    C11   D    
C3    C25   A    
C19   H18   S    
H3    N5    S    
C15   H2    S    
C22   O7    A    
C3    C26   A    
H16   N8    S    
C16   N5    S    
Br5   C21   S    
C16   H5    S    
C6    C24   A    
N1    Zn2   S    
C2    C4    A    
Br1   C6    S    
C19   N8    S    
C17   H8    S    
C8    C26   A    
C14   H21   S    
C16   H6    S    
