data_mof_unit_64815.cif
_audit_creation_date              2013-03-05T16:29:45-0500
_audit_creation_method            fapswitch 2.2
_symmetry_space_group_name_H-M    P1
_symmetry_Int_Tables_number       1
_space_group_crystal_system       triclinic
_cell_length_a                    38.925103
_cell_length_b                    32.232052
_cell_length_c                    21.741844
_cell_angle_alpha                 89.980338
_cell_angle_beta                  124.112474
_cell_angle_gamma                 89.996512
_cell_volume                      22584.5793283

loop_
_atom_site_label
_atom_site_type_symbol
_atom_site_description
_atom_site_fract_x
_atom_site_fract_y
_atom_site_fract_z
_atom_type_partial_charge
O1    O     O_R   0.940150 0.034650 0.440170 -0.573732
O2    O     O_R   0.059850 0.034650 0.559830 -0.573796
O3    O     O_R   0.440150 0.534650 0.440170 -0.573872
O4    O     O_R   0.559850 0.534650 0.559830 -0.573759
O5    O     O_R   0.940170 0.965370 0.440140 -0.578594
O6    O     O_R   0.059830 0.965370 0.559860 -0.578646
O7    O     O_R   0.440170 0.465370 0.440140 -0.578504
O8    O     O_R   0.559830 0.465370 0.559860 -0.578649
C1    C     C_R   0.920413 1.000000 0.420813 0.825279
C2    C     C_R   0.079587 0.999986 0.579181 0.825018
C3    C     C_R   0.420412 0.499999 0.420787 0.824660
C4    C     C_R   0.579587 0.499986 0.579181 0.825079
O9    O     O_R   0.000000 0.034650 0.590170 -0.575082
O10   O     O_R   0.000000 0.034650 0.409830 -0.575022
O11   O     O_R   0.500000 0.534650 0.590170 -0.574979
O12   O     O_R   0.500000 0.534650 0.409830 -0.574903
O13   O     O_R   0.000010 0.965370 0.590140 -0.587209
O14   O     O_R   0.999990 0.965370 0.409860 -0.587540
O15   O     O_R   0.500010 0.465370 0.590140 -0.587258
O16   O     O_R   0.499990 0.465370 0.409860 -0.587498
C5    C     C_R   0.000907 0.000034 0.619941 0.793586
C6    C     C_R   0.999107 0.000043 0.380070 0.793701
C7    C     C_R   0.500908 0.500034 0.619942 0.793692
C8    C     C_R   0.499110 0.500046 0.380067 0.793189
Cu1   Cu    Cu3+1 0.000000 0.041020 0.500000 0.982255
Cu2   Cu    Cu3+1 0.500000 0.541020 0.500000 0.982373
Cu3   Cu    Cu3+1 0.000000 0.958990 0.500000 0.967922
Cu4   Cu    Cu3+1 0.500000 0.458990 0.500000 0.967817
H1    H     H_    0.135955 0.132271 0.752061 0.127756
H2    H     H_    0.863604 0.131925 0.247254 0.128474
H3    H     H_    0.635975 0.632251 0.752084 0.127751
H4    H     H_    0.365308 0.633540 0.249368 0.128488
C9    C     C_R   0.081359 0.126238 0.753623 -0.136562
C10   C     C_R   0.918402 0.126109 0.246272 -0.136458
C11   C     C_R   0.581374 0.626225 0.753632 -0.136441
C12   C     C_R   0.419584 0.627006 0.246930 -0.136260
H5    H     H_    0.078088 0.159305 0.757511 0.131570
H6    H     H_    0.921635 0.159198 0.242528 0.131852
H7    H     H_    0.578104 0.659292 0.757516 0.131665
H8    H     H_    0.422998 0.660030 0.242898 0.132063
C13   C     C_R   0.053095 0.098787 0.752136 -0.137360
C14   C     C_R   0.946799 0.098763 0.247951 -0.137229
C15   C     C_R   0.553107 0.598778 0.752142 -0.137219
C16   C     C_R   0.447579 0.599306 0.248080 -0.137971
H9    H     H_    0.028077 0.110942 0.754986 0.126448
H10   H     H_    0.971878 0.111018 0.245379 0.126508
H11   H     H_    0.528087 0.610935 0.754985 0.126500
H12   H     H_    0.472541 0.611232 0.244850 0.126558
C17   C     C_R   0.057046 0.055853 0.746692 0.121043
C18   C     C_R   0.942894 0.055802 0.253208 0.121299
C19   C     C_R   0.557056 0.555842 0.746703 0.120970
C20   C     C_R   0.443448 0.556423 0.253715 0.121046
C21   C     C_R   0.089927 0.040740 0.743710 -0.128133
C22   C     C_R   0.909930 0.040554 0.255812 -0.129412
C23   C     C_R   0.589939 0.540725 0.743729 -0.128177
C24   C     C_R   0.410640 0.541619 0.257203 -0.126316
H13   H     H_    0.093777 0.007698 0.740519 0.108101
H14   H     H_    0.906116 0.007488 0.258848 0.108108
H15   H     H_    0.593788 0.507682 0.740541 0.108121
H16   H     H_    0.406640 0.508623 0.260539 0.107246
C25   C     C_R   0.118339 0.068314 0.745890 -0.119741
C26   C     C_R   0.881373 0.068020 0.253400 -0.120317
C27   C     C_R   0.618354 0.568297 0.745914 -0.119744
C28   C     C_R   0.382520 0.569444 0.255433 -0.119560
H17   H     H_    0.143891 0.056642 0.744375 0.129257
H18   H     H_    0.855736 0.056237 0.254557 0.129967
H19   H     H_    0.643908 0.556622 0.744406 0.129259
H20   H     H_    0.357064 0.558009 0.257462 0.128670
C29   C     C_R   0.113966 0.111008 0.750525 -0.103109
C30   C     C_R   0.885702 0.110744 0.248964 -0.102456
C31   C     C_R   0.613983 0.610992 0.750544 -0.103137
C32   C     C_R   0.387075 0.612082 0.250599 -0.103741
C33   C     C_R   0.026705 0.025556 0.810241 -0.232957
C34   C     C_R   0.973353 0.025631 0.189791 -0.233260
C35   C     C_R   0.526712 0.525547 0.810248 -0.232897
C36   C     C_R   0.473564 0.525861 0.189969 -0.233448
H21   H     H_    0.046829 0.045969 0.856602 0.151661
H22   H     H_    0.953255 0.046085 0.143441 0.151617
H23   H     H_    0.546841 0.545955 0.856615 0.151733
H24   H     H_    0.453645 0.546477 0.143776 0.151251
C37   C     C_R   0.999905 0.998437 0.814013 -0.069071
C38   C     C_R   0.000091 0.998434 0.185978 -0.069006
C39   C     C_R   0.499904 0.498435 0.814010 -0.069065
C40   C     C_R   0.500083 0.498450 0.185954 -0.068608
C41   C     C_R   0.973457 0.971901 0.753933 0.026379
C42   C     C_R   0.026446 0.971785 0.245978 0.026211
C43   C     C_R   0.473445 0.471910 0.753918 0.026457
C44   C     C_R   0.526225 0.471604 0.245739 0.025811
C45   C     C_R   0.974853 0.972819 0.691311 -0.223857
C46   C     C_R   0.025104 0.972753 0.308657 -0.224298
C47   C     C_R   0.474844 0.472829 0.691299 -0.223836
C48   C     C_R   0.524870 0.472558 0.308397 -0.223980
H25   H     H_    0.954744 0.952374 0.644995 0.156186
H26   H     H_    0.045153 0.952233 0.354927 0.155966
H27   H     H_    0.454730 0.452389 0.644975 0.156021
H28   H     H_    0.544761 0.451878 0.354496 0.156272
C49   C     C_R   0.001615 0.999976 0.687486 -0.075077
C50   C     C_R   0.998413 0.999995 0.312535 -0.075091
C51   C     C_R   0.501616 0.499977 0.687485 -0.075020
C52   C     C_R   0.498394 0.500011 0.312499 -0.075383
C53   C     C_R   0.027716 0.026880 0.747230 0.001806
C54   C     C_R   0.972325 0.026926 0.252784 0.001782
C55   C     C_R   0.527723 0.526873 0.747236 0.001767
C56   C     C_R   0.472543 0.527182 0.252975 0.002184
C57   C     C_R   0.901944 0.945971 0.703893 -0.215179
C58   C     C_R   0.097736 0.945228 0.295686 -0.215203
C59   C     C_R   0.401921 0.445986 0.703798 -0.215425
C60   C     C_R   0.597341 0.444752 0.294889 -0.214559
H29   H     H_    0.889972 0.971579 0.664906 0.171840
H30   H     H_    0.109948 0.970793 0.334725 0.171782
H31   H     H_    0.389963 0.471585 0.664793 0.171959
H32   H     H_    0.609734 0.470379 0.333794 0.171778
C61   C     C_R   0.874522 0.917064 0.702816 0.383271
C62   C     C_R   0.124887 0.915998 0.296641 0.384495
C63   C     C_R   0.374485 0.417082 0.702682 0.383272
C64   C     C_R   0.624296 0.415324 0.295688 0.384483
C65   C     C_R   0.890933 0.883882 0.753557 -0.178667
C66   C     C_R   0.108164 0.882859 0.245878 -0.181080
C67   C     C_R   0.390877 0.383910 0.753447 -0.178720
C68   C     C_R   0.607334 0.382096 0.245138 -0.180737
H33   H     H_    0.870688 0.860972 0.753825 0.173040
H34   H     H_    0.128193 0.859698 0.245539 0.171332
H35   H     H_    0.370621 0.361003 0.753687 0.173030
H36   H     H_    0.627207 0.358776 0.244703 0.171166
C69   C     C_R   0.933762 0.879768 0.804210 -0.188724
C70   C     C_R   0.065295 0.879109 0.195307 -0.192475
C71   C     C_R   0.433702 0.379803 0.804156 -0.188767
C72   C     C_R   0.564425 0.378461 0.194913 -0.193062
H37   H     H_    0.946010 0.853770 0.842162 0.156322
H38   H     H_    0.052803 0.853132 0.157355 0.154317
H39   H     H_    0.445936 0.353812 0.842123 0.156209
H40   H     H_    0.551748 0.352410 0.157150 0.154491
C73   C     C_R   0.960756 0.908843 0.805522 -0.125517
C74   C     C_R   0.038574 0.908510 0.194099 -0.125864
C75   C     C_R   0.460710 0.408873 0.805503 -0.125419
C76   C     C_R   0.537900 0.408071 0.193819 -0.127245
H41   H     H_    0.993914 0.905133 0.844852 0.123408
H42   H     H_    0.005380 0.905071 0.154849 0.122658
H43   H     H_    0.493864 0.405164 0.844872 0.123344
H44   H     H_    0.504673 0.404729 0.154831 0.123415
C77   C     C_R   0.944985 0.942117 0.755345 0.057174
C78   C     C_R   0.054656 0.941736 0.244322 0.057439
C79   C     C_R   0.444958 0.442137 0.755306 0.057199
C80   C     C_R   0.554223 0.441372 0.243864 0.057168
H45   H     H_    0.788234 0.004556 0.190349 0.133476
H46   H     H_    0.211774 0.008915 0.808969 0.133064
H47   H     H_    0.288194 0.513203 0.191897 0.132335
H48   H     H_    0.711774 0.508894 0.808978 0.133067
C81   C     C_R   0.728242 0.002966 0.173398 -0.169620
C82   C     C_R   0.271758 0.005299 0.826180 -0.165859
C83   C     C_R   0.228223 0.507820 0.174318 -0.170540
C84   C     C_R   0.771758 0.505290 0.826186 -0.165914
H49   H     H_    0.711742 0.004817 0.113503 0.140530
H50   H     H_    0.288255 0.009164 0.885779 0.141699
H51   H     H_    0.211715 0.513502 0.115155 0.139952
H52   H     H_    0.788256 0.509145 0.885787 0.141699
C85   C     C_R   0.706346 0.000658 0.207028 0.141572
C86   C     C_R   0.293656 0.000410 0.792925 0.142038
C87   C     C_R   0.206339 0.500599 0.207036 0.141459
C88   C     C_R   0.793656 0.500414 0.792929 0.142108
C89   C     C_R   0.728198 0.998279 0.284619 -0.163932
C90   C     C_R   0.271807 0.995444 0.715716 -0.166209
C91   C     C_R   0.228200 0.493296 0.283682 -0.163041
C92   C     C_R   0.771807 0.495460 0.715717 -0.166326
H53   H     H_    0.711660 0.996494 0.311320 0.152595
H54   H     H_    0.288347 0.991639 0.689310 0.151744
H55   H     H_    0.211670 0.487671 0.309669 0.153355
H56   H     H_    0.788347 0.491665 0.689309 0.151605
C93   C     C_R   0.771653 0.998111 0.328280 -0.154416
C94   C     C_R   0.228351 0.995305 0.672068 -0.154257
C95   C     C_R   0.271655 0.493142 0.327298 -0.154643
C96   C     C_R   0.728351 0.495320 0.672069 -0.154434
H57   H     H_    0.788160 0.996219 0.388175 0.157600
H58   H     H_    0.211847 0.991410 0.612471 0.157881
H59   H     H_    0.288168 0.487422 0.386454 0.158874
H60   H     H_    0.711847 0.491436 0.612470 0.157541
C97   C     C_R   0.793540 0.000322 0.294627 0.146188
C98   C     C_R   0.206462 0.000127 0.705349 0.146229
C99   C     C_R   0.293533 0.500279 0.294547 0.146281
C100  C     C_R   0.706462 0.500129 0.705353 0.146359
C101  C     C_R   0.771694 0.002805 0.217053 -0.181580
C102  C     C_R   0.228307 0.005157 0.782540 -0.182016
C103  C     C_R   0.271675 0.507653 0.217923 -0.180880
C104  C     C_R   0.728307 0.505147 0.782546 -0.182042
C105  C     C_1   0.661554 0.000531 0.161995 -0.062873
C106  C     C_1   0.338447 0.000341 0.837967 -0.060415
C107  C     C_1   0.161549 0.500490 0.162003 -0.062783
C108  C     C_1   0.838447 0.500345 0.837969 -0.060482
C109  C     C_1   0.838315 0.000059 0.339533 -0.071458
C110  C     C_1   0.161686 0.999939 0.660456 -0.071250
C111  C     C_1   0.338311 0.500040 0.339413 -0.070780
C112  C     C_1   0.661686 0.499940 0.660459 -0.071335
C113  C     C_1   0.875793 0.999965 0.376778 -0.173101
C114  C     C_1   0.124207 0.999907 0.623214 -0.173428
C115  C     C_1   0.375790 0.499960 0.376686 -0.173785
C116  C     C_1   0.624207 0.499907 0.623216 -0.173462
C117  C     C_1   0.624066 0.000341 0.124308 -0.159278
C118  C     C_1   0.375934 0.000223 0.875675 -0.157538
C119  C     C_1   0.124063 0.500318 0.124309 -0.159201
C120  C     C_1   0.875934 0.500225 0.875676 -0.157569
O17   O     O_R   0.034640 0.940140 0.034570 -0.572786
O18   O     O_R   0.965360 0.940140 0.965430 -0.574197
O19   O     O_R   0.534640 0.440140 0.034570 -0.572644
O20   O     O_R   0.465360 0.440140 0.965430 -0.574338
C121  C     C_R   0.000008 0.920425 0.000031 0.825276
C122  C     C_R   0.500007 0.420425 0.000019 0.825566
O21   O     O_R   0.034650 0.999980 0.944430 -0.588869
O22   O     O_R   0.965350 0.999980 0.055570 -0.589308
O23   O     O_R   0.534650 0.499980 0.944430 -0.588859
O24   O     O_R   0.465350 0.499980 0.055570 -0.589205
O25   O     O_R   0.965370 1.000000 0.875180 -0.571904
O26   O     O_R   0.034630 0.000000 0.124820 -0.571716
O27   O     O_R   0.465370 0.500000 0.875180 -0.571885
O28   O     O_R   0.534630 0.500000 0.124820 -0.571854
C123  C     C_R   0.999928 0.999069 0.880851 0.792626
C124  C     C_R   0.000071 0.999064 0.119147 0.792686
C125  C     C_R   0.499927 0.499068 0.880850 0.792525
C126  C     C_R   0.500069 0.499061 0.119139 0.792962
Cu5   Cu    Cu3+1 0.041030 0.999980 0.040990 0.985169
Cu6   Cu    Cu3+1 0.958970 0.999980 0.959010 0.983713
Cu7   Cu    Cu3+1 0.541030 0.499980 0.040990 0.985340
Cu8   Cu    Cu3+1 0.458970 0.499980 0.959010 0.983889
O29   O     O_R   0.034650 0.059830 0.034650 -0.577675
O30   O     O_R   0.965350 0.059830 0.965350 -0.577707
O31   O     O_R   0.534650 0.559830 0.034650 -0.577708
O32   O     O_R   0.465350 0.559830 0.965350 -0.577689
C127  C     C_R   0.999994 0.079586 0.999995 0.822868
C128  C     C_R   0.499994 0.579587 0.999996 0.822762
O33   O     O_R   0.500020 0.940200 0.052240 -0.577108
O34   O     O_R   0.499980 0.940200 0.947760 -0.577057
O35   O     O_R   0.000020 0.440200 0.052240 -0.577195
O36   O     O_R   0.999980 0.440200 0.947760 -0.576996
C129  C     C_R   0.500000 0.920636 0.000009 0.819919
C130  C     C_R   1.000000 0.420636 0.000009 0.819852
O37   O     O_R   0.559850 0.000040 0.112000 -0.574735
O38   O     O_R   0.440150 0.000040 0.888000 -0.577969
O39   O     O_R   0.059850 0.500040 0.112000 -0.574723
O40   O     O_R   0.940150 0.500040 0.888000 -0.577958
O41   O     O_R   0.559860 0.999980 0.007620 -0.580479
O42   O     O_R   0.440140 0.999980 0.992380 -0.577786
O43   O     O_R   0.059860 0.499980 0.007620 -0.580426
O44   O     O_R   0.940140 0.499980 0.992380 -0.577803
C131  C     C_R   0.579422 0.000101 0.079458 0.818827
C132  C     C_R   0.420578 0.000070 0.920540 0.819632
C133  C     C_R   0.079421 0.500096 0.079457 0.818813
C134  C     C_R   0.920578 0.500071 0.920540 0.819616
Cu9   Cu    Cu3+1 0.500010 0.000050 0.061790 0.978904
Cu10  Cu    Cu3+1 0.499990 0.000050 0.938210 0.967627
Cu11  Cu    Cu3+1 0.000010 0.500050 0.061790 0.978932
Cu12  Cu    Cu3+1 0.999990 0.500050 0.938210 0.967714
O45   O     O_R   0.499990 0.059890 0.052110 -0.573690
O46   O     O_R   0.500010 0.059890 0.947890 -0.585229
O47   O     O_R   0.999990 0.559890 0.052110 -0.573613
O48   O     O_R   0.000010 0.559890 0.947890 -0.585278
C135  C     C_R   0.500007 0.079430 0.999983 0.819160
C136  C     C_R   0.000007 0.579430 0.999984 0.819188
H61   H     H_    0.935543 0.789071 0.911318 0.140566
H62   H     H_    0.065194 0.789172 0.085720 0.141626
H63   H     H_    0.435644 0.289064 0.910749 0.140430
H64   H     H_    0.565103 0.289179 0.086173 0.141736
C137  C     C_R   0.463700 0.228441 0.947068 0.004290
C138  C     C_R   0.537723 0.228488 0.047333 0.004036
C139  C     C_R   0.963629 0.728445 0.947383 0.004244
C140  C     C_R   0.037763 0.728484 0.047054 0.004025
C141  C     C_R   0.500778 0.206385 0.996972 0.051773
C142  C     C_R   0.000760 0.706385 0.996977 0.051781
C143  C     C_R   0.036975 0.772057 0.047659 -0.220435
C144  C     C_R   0.963836 0.772011 0.949266 -0.221042
C145  C     C_R   0.536928 0.272062 0.047895 -0.220550
C146  C     C_R   0.463898 0.272007 0.948924 -0.220951
C147  C     C_R   0.000275 0.793721 0.999019 0.121198
C148  C     C_R   0.500279 0.293722 0.998948 0.121064
C149  C     C_1   0.500405 0.161411 0.998991 -0.055234
C150  C     C_1   0.000397 0.661411 0.998991 -0.055177
C151  C     C_1   0.000121 0.838438 0.999555 -0.076388
C152  C     C_1   0.500119 0.338438 0.999478 -0.076512
C153  C     C_1   0.000040 0.875876 0.999834 -0.183601
C154  C     C_1   0.500038 0.375876 0.999782 -0.182918
C155  C     C_1   0.500172 0.123978 0.999888 -0.154030
C156  C     C_1   0.000168 0.623978 0.999886 -0.153980
H65   H     H_    0.000231 0.211888 0.901113 0.136614
H66   H     H_    0.999722 0.211831 0.098879 0.136705
H67   H     H_    0.495768 0.711889 0.896831 0.136878
H68   H     H_    0.504186 0.711830 0.103170 0.136895
C157  C     C_R   0.497613 0.771846 0.942008 -0.168619
C158  C     C_R   0.502351 0.771813 0.058016 -0.168311
C159  C     C_R   0.000122 0.271845 0.944414 -0.168548
C160  C     C_R   0.999840 0.271813 0.055603 -0.168359
H69   H     H_    0.495770 0.788374 0.896842 0.141400
H70   H     H_    0.504198 0.788316 0.103190 0.141588
H71   H     H_    0.000234 0.288373 0.901126 0.141262
H72   H     H_    0.999732 0.288317 0.098899 0.141417
C161  C     C_R   0.499984 0.793706 0.000017 0.149455
C162  C     C_R   0.999984 0.293705 0.000014 0.149573
C163  C     C_R   0.999834 0.228361 0.055592 -0.170749
C164  C     C_R   0.000120 0.228393 0.944405 -0.170860
C165  C     C_R   0.502345 0.728360 0.058006 -0.170851
C166  C     C_R   0.497610 0.728394 0.942000 -0.170894
C167  C     C_R   0.999975 0.206503 0.999994 0.153445
C168  C     C_R   0.499976 0.706503 0.999999 0.153274
C169  C     C_1   0.499991 0.838500 0.000026 -0.059652
C170  C     C_1   0.999990 0.338500 0.000023 -0.059669
C171  C     C_1   0.999977 0.161712 0.999990 -0.062517
C172  C     C_1   0.499978 0.661712 0.999994 -0.062563
C173  C     C_1   0.999983 0.124227 0.999989 -0.167839
C174  C     C_1   0.499983 0.624227 0.999992 -0.167846
C175  C     C_1   0.499996 0.875988 0.000024 -0.157543
C176  C     C_1   0.999995 0.375988 0.000023 -0.157585
C177  C     C_R   0.424275 0.206781 0.892882 0.114353
C178  C     C_R   0.422192 0.178412 0.841766 -0.134826
C179  C     C_R   0.385020 0.157921 0.791191 -0.130810
C180  C     C_R   0.349600 0.165798 0.790804 -0.102616
C181  C     C_R   0.351256 0.194292 0.840832 -0.125470
C182  C     C_R   0.388384 0.214812 0.891590 -0.149465
H73   H     H_    0.449285 0.172269 0.840935 0.131671
H74   H     H_    0.383659 0.135986 0.752196 0.137214
H75   H     H_    0.320853 0.149897 0.751634 0.132300
H76   H     H_    0.323777 0.200431 0.840378 0.134013
H77   H     H_    0.389270 0.236628 0.930340 0.131026
C183  C     C_R   0.577470 0.206896 0.100266 0.117930
C184  C     C_R   0.593969 0.178230 0.074639 -0.136485
C185  C     C_R   0.631306 0.157852 0.124837 -0.137107
C186  C     C_R   0.652655 0.166173 0.200821 -0.101325
C187  C     C_R   0.636761 0.194979 0.226720 -0.119443
C188  C     C_R   0.599378 0.215361 0.176737 -0.149551
H78   H     H_    0.578018 0.171779 0.015839 0.129425
H79   H     H_    0.643739 0.135673 0.104801 0.133229
H80   H     H_    0.681559 0.150378 0.239599 0.131901
H81   H     H_    0.653376 0.201469 0.285577 0.138613
H82   H     H_    0.587321 0.237429 0.197678 0.129528
C189  C     C_R   0.924141 0.706789 0.893496 0.114393
C190  C     C_R   0.921848 0.678428 0.842178 -0.134867
C191  C     C_R   0.884621 0.657938 0.791892 -0.130836
C192  C     C_R   0.849352 0.665808 0.791995 -0.102608
C193  C     C_R   0.851216 0.694294 0.842225 -0.125495
C194  C     C_R   0.888401 0.714813 0.892696 -0.149395
H83   H     H_    0.948821 0.672290 0.840969 0.131654
H84   H     H_    0.883098 0.636009 0.752741 0.137189
H85   H     H_    0.820562 0.649907 0.753049 0.132246
H86   H     H_    0.823854 0.700428 0.842151 0.133951
H87   H     H_    0.889449 0.736622 0.931609 0.131006
C195  C     C_R   0.077567 0.706886 0.099634 0.117899
C196  C     C_R   0.093877 0.678238 0.073630 -0.136527
C197  C     C_R   0.131270 0.657855 0.123497 -0.137236
C198  C     C_R   0.152863 0.666153 0.199522 -0.101018
C199  C     C_R   0.137156 0.694940 0.225793 -0.119534
C200  C     C_R   0.099718 0.715328 0.176141 -0.149622
H88   H     H_    0.077735 0.671805 0.014789 0.129411
H89   H     H_    0.143557 0.635690 0.103172 0.132857
H90   H     H_    0.181811 0.650355 0.238044 0.132279
H91   H     H_    0.153959 0.701412 0.284680 0.138693
H92   H     H_    0.087808 0.737380 0.197370 0.129631
N1    N     N_R   0.830389 0.921223 0.650279 0.123947
O49   O     O_R   0.815152 0.951748 0.602924 -0.362391
O50   O     O_R   0.804996 0.894526 0.649288 -0.353514
N2    N     N_R   0.169061 0.919779 0.349099 0.123438
O51   O     O_R   0.184587 0.950264 0.396473 -0.363021
O52   O     O_R   0.194203 0.892774 0.349999 -0.354753
N3    N     N_R   0.330357 0.421232 0.650080 0.123721
O53   O     O_R   0.315139 0.451739 0.602685 -0.362862
O54   O     O_R   0.304951 0.394542 0.649062 -0.353763
N4    N     N_R   0.668512 0.418989 0.347790 0.123378
O55   O     O_R   0.684260 0.449560 0.394962 -0.362758
O56   O     O_R   0.693471 0.391795 0.348557 -0.354733

loop_
_geom_bond_atom_site_label_1
_geom_bond_atom_site_label_2
_geom_bond_distance
_ccdc_geom_bond_type
C51   C55   1.411393 A    
Cu11  O47   1.940096 S    
C43   C47   1.393019 A    
C10   C14   1.398068 A    
C76   H44   1.083202 S    
O39   Cu11  1.940407 S    
C181  H76   1.082346 S    
C171  C173  1.208218 T    
C25   C29   1.397191 A    
C191  C192  1.397272 A    
C73   H41   1.083196 S    
O25   Cu6   1.973140 S    
C94   C98   1.401883 A    
O43   C133  1.298203 A    
C137  C177  1.484339 S    
C3    C115  1.438141 S    
C23   H15   1.083153 S    
C195  C200  1.405703 A    
H65   C164  1.083485 S    
C1    C113  1.438072 S    
H66   C163  1.083481 S    
Cu7   O31   1.939953 S    
H68   C165  1.083480 S    
O42   C132  1.298255 A    
O31   C128  1.285485 A    
C26   C30   1.397218 A    
C93   C97   1.401889 A    
H64   C145  1.084648 S    
C81   H49   1.083372 S    
O48   C136  1.296190 A    
C192  H85   1.082378 S    
C117  C131  1.438792 S    
C84   H52   1.083405 S    
C187  C188  1.398458 A    
C160  C162  1.402027 A    
O4    C4    1.285548 A    
C15   H11   1.083220 S    
O22   C124  1.281684 A    
C9    C29   1.397252 A    
C33   C53   1.393068 A    
C11   C31   1.397248 A    
C35   C55   1.393070 A    
C4    C116  1.438096 S    
C13   C17   1.404724 A    
N1    O50   1.301584 A    
C58   C78   1.404082 A    
C110  C114  1.207865 T    
H1    C29   1.082320 S    
C186  C187  1.397489 A    
C92   H56   1.083406 S    
O17   Cu5   1.939792 S    
C82   C102  1.400317 A    
C42   C46   1.393058 A    
C195  C196  1.406501 A    
C139  C189  1.484342 S    
O16   Cu4   1.970280 S    
C50   C54   1.411305 A    
O13   C5    1.282377 A    
O7    Cu4   1.939054 S    
O41   Cu10  1.940026 S    
O15   C7    1.282378 A    
C5    C49   1.453266 S    
O27   Cu8   1.973140 S    
O36   C130  1.298705 A    
O9    C5    1.280235 A    
O44   C134  1.298253 A    
O37   C131  1.298317 A    
C98   C102  1.401953 A    
H63   C146  1.084628 S    
C40   C126  1.452500 S    
C27   C31   1.397191 A    
Cu10  O46   1.940239 S    
O8    Cu4   1.939176 S    
C146  C148  1.396896 A    
C12   C16   1.398036 A    
C59   C79   1.404112 A    
C160  H72   1.083456 S    
C60   C80   1.404015 A    
C94   H58   1.083454 S    
C197  H89   1.082440 S    
O27   C125  1.280441 A    
C8    C52   1.453598 S    
O44   Cu11  1.940024 S    
O3    Cu2   1.939788 S    
C40   C44   1.410418 A    
C67   H35   1.082376 S    
O23   C125  1.281769 A    
C72   C76   1.396335 A    
C16   H12   1.083220 S    
C138  C145  1.405027 A    
C20   C24   1.404633 A    
C39   C125  1.452849 S    
O35   C130  1.298741 A    
C19   C23   1.404524 A    
C71   H39   1.081002 S    
O3    C3    1.285524 A    
C193  C194  1.398447 A    
C69   H37   1.081022 S    
C99   C111  1.443100 S    
C70   C74   1.396352 A    
C184  C185  1.398232 A    
C121  C153  1.435935 S    
N3    O53   1.301610 A    
C33   H21   1.085100 S    
O41   C131  1.298211 A    
C105  C117  1.208146 T    
C35   H23   1.085099 S    
C89   H53   1.083460 S    
C100  C104  1.401952 A    
O24   Cu8   1.970874 S    
C170  C176  1.208318 T    
C157  C166  1.400544 A    
O38   Cu10  1.940407 S    
C63   N3    1.439692 S    
C52   C56   1.411678 A    
C15   C19   1.404722 A    
C199  H91   1.082339 S    
Cu11  Cu12  2.686423 S    
C28   H20   1.081052 S    
C57   C61   1.407168 A    
C85   C105  1.443552 S    
C17   C21   1.404525 A    
N4    O55   1.301611 A    
C108  C120  1.208124 T    
C62   N2    1.439685 S    
C157  H69   1.083455 S    
C48   H28   1.085085 S    
C180  C181  1.397437 A    
C66   H34   1.082395 S    
C87   C107  1.443483 S    
C198  H90   1.082371 S    
C200  H92   1.083233 S    
O5    Cu3   1.939054 S    
C21   C25   1.398793 A    
C164  C167  1.401997 A    
O6    Cu3   1.939176 S    
C23   C27   1.398794 A    
O42   Cu9   1.940024 S    
C24   C28   1.398774 A    
C11   C15   1.398032 A    
C189  C194  1.405522 A    
C89   C93   1.400475 A    
C16   C20   1.404784 A    
H3    C31   1.082322 S    
O40   Cu12  1.940407 S    
C95   C99   1.401880 A    
C129  C175  1.439084 S    
O33   C129  1.298741 A    
C130  C176  1.439084 S    
Cu2   Cu4   2.643992 S    
C26   H18   1.081154 S    
O13   Cu3   1.970422 S    
C190  C191  1.398199 A    
O28   C126  1.280458 A    
C41   C77   1.479538 S    
O26   C124  1.280479 A    
C192  C193  1.397437 A    
C187  H81   1.082339 S    
C64   C68   1.406374 A    
C83   C87   1.401918 A    
O5    C1    1.284906 A    
Cu7   Cu8   2.644611 S    
C25   H17   1.081035 S    
O8    C4    1.284858 A    
N2    O52   1.301581 A    
O15   Cu4   1.970422 S    
C14   C18   1.404649 A    
O46   C135  1.296188 A    
C61   C65   1.406312 A    
C141  C149  1.450567 S    
C83   H51   1.083409 S    
C92   C96   1.400500 A    
C161  C169  1.443822 S    
O35   Cu11  1.940325 S    
C182  H77   1.083165 S    
C57   H29   1.083210 S    
C13   H9    1.083222 S    
O14   C6    1.282264 A    
C59   H31   1.083210 S    
C36   H24   1.085099 S    
C152  C154  1.206725 T    
C21   H13   1.083152 S    
C190  H83   1.083083 S    
O47   C136  1.296695 A    
C83   C103  1.400342 A    
Cu9   O45   1.940096 S    
C63   C67   1.406307 A    
C64   N4    1.439676 S    
O10   C6    1.280386 A    
C37   C123  1.452832 S    
C81   C85   1.401989 A    
C140  C143  1.405033 A    
C97   C101  1.401921 A    
C87   C91   1.402029 A    
C45   H25   1.085096 S    
C111  C115  1.207885 T    
C47   H27   1.085096 S    
O33   Cu9   1.940325 S    
C109  C113  1.207864 T    
C197  C198  1.397199 A    
C93   H57   1.083426 S    
C47   C51   1.398388 A    
C65   C69   1.396519 A    
C37   C41   1.410749 A    
C96   H60   1.083452 S    
C67   C71   1.396517 A    
Cu12  O48   1.940239 S    
C39   C43   1.410770 A    
O23   Cu7   1.970870 S    
O25   C123  1.280444 A    
C179  C180  1.397274 A    
C128  C174  1.438855 S    
C36   C40   1.398169 A    
C138  C141  1.417411 A    
N1    O49   1.301610 A    
H4    C32   1.082320 S    
C18   C22   1.404548 A    
C6    C50   1.453353 S    
C112  C116  1.207868 T    
C71   C75   1.396298 A    
C2    C114  1.438100 S    
C17   C53   1.480109 S    
C193  H86   1.082348 S    
C98   C110  1.443060 S    
C70   H38   1.081135 S    
C19   C55   1.480102 S    
C184  H78   1.083051 S    
C122  C154  1.435932 S    
C14   H10   1.083216 S    
C33   C37   1.398239 A    
C90   H54   1.083408 S    
C143  C147  1.397004 A    
O18   C121  1.284600 A    
C158  C165  1.400554 A    
C91   C95   1.400463 A    
C10   C30   1.397310 A    
C34   C54   1.393076 A    
C96   C100  1.401884 A    
C185  C186  1.397200 A    
C81   C101  1.400351 A    
C166  C168  1.401995 A    
C34   C38   1.398282 A    
C86   C106  1.443524 S    
H2    C30   1.082320 S    
C46   H26   1.085085 S    
C178  H73   1.083083 S    
O12   Cu2   1.971256 S    
C139  C144  1.404727 A    
O19   C122  1.284520 A    
H46   C102  1.083435 S    
O1    C1    1.285492 A    
Cu5   Cu6   2.644611 S    
C158  H70   1.083461 S    
C22   C26   1.398770 A    
C38   C42   1.410686 A    
C9    H5    1.082320 S    
C60   H32   1.083212 S    
C107  C119  1.208098 T    
O7    C3    1.284903 A    
C36   C56   1.393193 A    
C137  C141  1.417228 A    
O28   Cu7   1.973141 S    
C74   C78   1.401918 A    
O45   C135  1.296701 A    
C90   C94   1.400500 A    
C148  C152  1.441389 S    
O40   C134  1.298252 A    
O21   C123  1.281755 A    
C188  H82   1.083233 S    
C183  C188  1.405709 A    
C38   C124  1.452741 S    
C18   C54   1.480010 S    
O30   C127  1.285507 A    
C85   C89   1.402031 A    
C42   C78   1.479644 S    
C178  C179  1.398197 A    
C20   C56   1.480366 S    
C41   C45   1.393018 A    
C82   C86   1.401937 A    
O20   Cu8   1.939666 S    
O21   Cu5   1.970870 S    
O43   Cu12  1.940026 S    
O6    C2    1.284857 A    
O4    Cu2   1.939660 S    
C177  C182  1.405519 A    
C68   C72   1.396500 A    
O26   Cu5   1.973141 S    
C75   H43   1.083198 S    
C73   C77   1.401839 A    
C9    C13   1.398029 A    
C60   C64   1.407239 A    
C76   C80   1.401825 A    
C35   C39   1.398246 A    
C181  C182  1.398446 A    
N4    O56   1.301588 A    
C191  H84   1.082364 S    
C142  C150  1.450567 S    
O2    Cu1   1.939660 S    
C140  C195  1.484818 S    
O10   Cu1   1.971256 S    
C162  C170  1.443825 S    
Cu5   O29   1.939953 S    
C24   H16   1.083143 S    
C140  C142  1.417405 A    
C34   H22   1.085097 S    
C145  C148  1.397000 A    
C169  C175  1.208318 T    
C106  C118  1.208128 T    
C167  C171  1.443703 S    
C168  C172  1.443699 S    
O22   Cu6   1.970874 S    
C139  C142  1.417224 A    
C7    C51   1.453249 S    
C196  C197  1.398232 A    
C84   C88   1.401937 A    
H45   C101  1.083535 S    
C11   H7    1.082319 S    
C189  C190  1.406227 A    
C177  C178  1.406227 A    
C147  C151  1.441392 S    
C149  C155  1.206817 T    
C58   C62   1.407224 A    
C150  C156  1.206813 T    
C151  C153  1.206724 T    
C57   C77   1.404101 A    
Cu8   O32   1.940078 S    
O18   Cu6   1.939666 S    
C88   C92   1.402046 A    
C159  C164  1.400544 A    
O19   Cu7   1.939792 S    
O34   C129  1.298705 A    
C186  H80   1.082373 S    
C160  C163  1.400550 A    
C138  C183  1.484819 S    
C65   H33   1.082378 S    
N2    O51   1.301617 A    
C44   C48   1.392937 A    
C84   C104  1.400320 A    
C163  C167  1.402007 A    
O11   C7    1.280225 A    
O12   C8    1.280348 A    
C179  H74   1.082360 S    
O1    Cu1   1.939788 S    
O9    Cu1   1.971114 S    
H61   C144  1.084635 S    
H62   C143  1.084647 S    
C72   H40   1.081098 S    
O37   Cu9   1.940407 S    
C99   C103  1.401995 A    
C27   H19   1.081030 S    
C97   C109  1.443035 S    
O39   C133  1.298287 A    
O16   C8    1.282423 A    
C12   H8    1.082318 S    
C100  C112  1.443060 S    
C120  C134  1.438763 S    
C86   C90   1.402049 A    
O11   Cu2   1.971114 S    
C118  C132  1.438766 S    
C95   H59   1.083460 S    
C158  C161  1.402025 A    
C45   C49   1.398408 A    
C91   H55   1.083408 S    
C194  H87   1.083165 S    
C185  H79   1.082436 S    
C144  C147  1.396902 A    
H48   C104  1.083433 S    
C69   C73   1.396303 A    
O29   C127  1.285483 A    
N3    O54   1.301586 A    
C59   C63   1.407162 A    
C137  C146  1.404722 A    
C62   C66   1.406360 A    
O20   C122  1.284591 A    
O32   C128  1.285508 A    
C165  C168  1.402009 A    
C159  H71   1.083452 S    
O36   Cu12  1.940183 S    
C88   C108  1.443524 S    
O2    C2    1.285546 A    
Cu6   O30   1.940078 S    
O34   Cu10  1.940183 S    
C48   C52   1.398591 A    
C22   H14   1.083155 S    
H47   C103  1.083398 S    
O17   C121  1.284514 A    
C135  C155  1.435904 S    
C10   H6    1.082314 S    
C136  C156  1.435900 S    
O14   Cu3   1.970280 S    
C74   H42   1.083197 S    
Cu9   Cu10  2.686423 S    
C127  C173  1.438858 S    
Cu1   Cu3   2.643992 S    
C61   N1    1.439690 S    
O24   C126  1.281584 A    
C159  C162  1.402027 A    
C183  C184  1.406495 A    
O38   C132  1.298250 A    
H67   C166  1.083486 S    
C199  C200  1.398460 A    
C172  C174  1.208222 T    
C75   C79   1.401837 A    
C44   C80   1.479407 S    
C28   C32   1.397173 A    
C119  C133  1.438721 S    
C12   C32   1.397250 A    
C58   H30   1.083211 S    
C82   H50   1.083405 S    
C157  C161  1.402028 A    
C180  H75   1.082375 S    
C66   C70   1.396493 A    
C43   C79   1.479553 S    
C198  C199  1.397492 A    
C196  H88   1.083050 S    
C46   C50   1.398503 A    
C49   C53   1.411405 A    
C68   H36   1.082400 S    
