data_mof_unit_35828.cif
_audit_creation_date              2012-12-10T19:08:32-0500
_audit_creation_method            fapswitch 2.2
_symmetry_space_group_name_H-M    P1
_symmetry_Int_Tables_number       1
_space_group_crystal_system       triclinic
_cell_length_a                    15.939009
_cell_length_b                    10.827466
_cell_length_c                    9.682555
_cell_angle_alpha                 90.617048
_cell_angle_beta                  91.246452
_cell_angle_gamma                 92.699415
_cell_volume                      1668.64085709

loop_
_atom_site_label
_atom_site_type_symbol
_atom_type_description
_atom_site_fract_x
_atom_site_fract_y
_atom_site_fract_z
_atom_type_partial_charge
C1    C     C_R   0.500275 0.262872 0.499307 0.817229
C2    C     C_R   0.041745 0.385218 0.543389 -0.076405
C3    C     C_1   0.822089 0.484689 0.503949 0.083038
C4    C     C_1   0.177050 0.493792 0.495080 0.094599
C5    C     C_1   0.252323 0.496590 0.496235 -0.054359
C6    C     C_1   0.747009 0.487732 0.504604 -0.014511
C7    C     C_R   0.536973 0.066906 0.608514 0.105155
C8    C     C_R   0.503441 0.129689 0.496523 -0.156875
C9    C     C_R   0.474636 0.061611 0.379057 -0.129860
C10   C     C_R   0.469948 0.932876 0.382056 -0.109735
C11   C     C_R   0.497248 0.870661 0.500098 -0.066360
C12   C     C_R   0.341615 0.499376 0.498778 0.806896
C13   C     C_R   0.533081 0.939423 0.610253 0.064265
C14   C     C_3   0.512900 0.935839 0.759628 -0.493508
C15   C     C_3   0.519604 0.076482 0.759147 0.263199
C16   C     C_R   0.572793 0.525774 0.074670 0.094461
C17   C     C_R   0.431063 0.455630 0.066968 0.486789
C18   C     C_R   0.431087 0.463310 0.920429 -0.062035
C19   C     C_R   0.572830 0.518186 0.929464 0.162219
C20   C     C_3   0.640570 0.614234 0.912547 -0.420677
C21   C     C_3   0.638267 0.634775 0.071077 0.583796
C22   C     C_R   0.497529 0.736992 0.500468 0.822951
C23   C     C_R   0.658107 0.495506 0.501472 0.851549
C24   C     C_R   0.954127 0.383487 0.545968 -0.157758
C25   C     C_R   0.911623 0.485744 0.500526 0.050504
C26   C     C_R   0.955896 0.590080 0.451561 -0.171651
C27   C     C_R   0.043634 0.593735 0.448256 0.436752
C28   C     C_R   0.086864 0.490710 0.494896 -0.038490
Cu1   Cu    Cu3+1 0.500000 0.499980 0.640670 1.006915
Cu2   Cu    Cu3+1 0.500000 0.500020 0.359330 1.113446
H1    H     H_    0.375347 0.436040 0.860381 0.191384
H2    H     H_    0.620303 0.691508 0.847200 0.190237
H3    H     H_    0.919049 0.302862 0.583596 0.173459
H4    H     H_    0.921774 0.668534 0.416590 0.201741
H5    H     H_    0.451897 0.107058 0.287605 0.217710
H6    H     H_    0.443126 0.882138 0.293653 0.191215
H7    H     H_    0.448145 0.897573 0.777736 0.190785
H8    H     H_    0.562733 0.891507 0.819306 0.279830
H9    H     H_    0.459805 0.120761 0.781906 0.105583
N1    N     N_R   0.500520 0.500930 0.147930 -0.236734
N2    N     N_R   0.500520 0.500890 0.852020 -0.200727
O1    O     O_R   0.500000 0.319640 0.618810 -0.565861
O2    O     O_R   0.500010 0.319680 0.381230 -0.532332
O3    O     O_R   0.380300 0.499950 0.618760 -0.603664
O4    O     O_R   0.380310 0.499990 0.381180 -0.500623
O5    O     O_R   0.499990 0.680320 0.618770 -0.591161
O6    O     O_R   0.500000 0.680360 0.381190 -0.525806
O7    O     O_R   0.619690 0.500010 0.618820 -0.592085
O8    O     O_R   0.619700 0.500050 0.381240 -0.516995
C29   C     C_1   0.084112 0.278095 0.591392 0.315222
N3    N     N_1   0.118087 0.192349 0.629779 -0.197364
S1    S     S_3+6 0.609047 0.140047 0.855387 0.048897
O9    O     O_2   0.625875 0.272537 0.816462 -0.289878
O10   O     O_2   0.591516 0.133316 0.007075 -0.241439
O11   O     O_3   0.694111 0.060048 0.820119 -0.480781
H10   H     H_    0.739945 0.099026 0.878682 0.397831
S2    S     S_3+6 0.336884 0.381461 0.128404 0.033423
O12   O     O_2   0.277156 0.478803 0.167151 -0.250731
O13   O     O_2   0.295648 0.303001 0.014614 -0.301497
O14   O     O_3   0.352892 0.287576 0.262132 -0.544682
H11   H     H_    0.295995 0.258906 0.290676 0.363596
C30   C     C_1   0.716031 0.557040 0.860479 0.485477
N4    N     N_1   0.775592 0.511821 0.821453 -0.214484
S3    S     S_3+6 0.738062 0.614264 0.160374 0.056453
O15   O     O_2   0.751851 0.478862 0.177469 -0.274601
O16   O     O_2   0.808896 0.670970 0.078470 -0.264288
O17   O     O_3   0.740960 0.684794 0.316130 -0.528758
H12   H     H_    0.776657 0.761383 0.305824 0.390438
S4    S     S_3+6 0.600787 0.785393 0.106590 0.027845
O18   O     O_2   0.611587 0.818826 0.256566 -0.247266
O19   O     O_2   0.652634 0.877877 0.026533 -0.244093
O20   O     O_3   0.499070 0.790194 0.057973 -0.593241
H13   H     H_    0.487830 0.879319 0.054860 0.371942
S5    S     S_3+6 0.098026 0.727898 0.386887 0.041919
O21   O     O_2   0.037516 0.820397 0.335656 -0.244574
O22   O     O_2   0.151645 0.784925 0.502560 -0.288427
O23   O     O_3   0.160038 0.687688 0.257134 -0.476279
H14   H     H_    0.196502 0.762363 0.240188 0.381845

loop_
_geom_bond_atom_site_label_1
_geom_bond_atom_site_label_2
_ccdc_geom_bond_type
O11   H10   S    
C16   C21   S    
Cu1   O1    S    
C1    C8    S    
Cu2   O4    S    
C19   C20   S    
C3    C6    T    
C7    C8    A    
O23   H14   S    
C26   C27   A    
Cu1   Cu2   S    
S5    O22   D    
S2    O13   D    
S4    O19   D    
C21   S3    S    
C2    C29   S    
C1    O2    A    
S1    O10   D    
C8    C9    A    
S5    O23   S    
C27   S5    S    
C9    C10   A    
S1    O11   S    
C7    C15   S    
C22   O6    A    
C13   C14   S    
C4    C28   S    
C26   H4    S    
C29   N3    T    
S5    O21   D    
Cu1   O7    S    
O17   H12   S    
S3    O17   S    
Cu2   O6    S    
C3    C25   S    
C24   C25   A    
C5    C12   S    
C18   N2    A    
O20   H13   S    
S2    O14   S    
C25   C26   A    
C21   S4    S    
O14   H11   S    
C17   N1    A    
S3    O16   D    
S4    O20   S    
C30   N4    T    
C14   H8    S    
C17   C18   A    
Cu2   N1    S    
C15   S1    S    
C4    C5    T    
C15   H9    S    
C16   N1    A    
C22   O5    A    
Cu2   O8    S    
Cu1   O3    S    
C2    C24   A    
Cu2   O2    S    
S1    O9    D    
C20   H2    S    
C23   O7    A    
Cu1   N2    S    
C12   O4    A    
C10   H6    S    
C11   C22   S    
C24   H3    S    
Cu1   O5    S    
S3    O15   D    
C12   O3    A    
C14   H7    S    
C11   C13   A    
S2    O12   D    
C16   C19   A    
C6    C23   S    
C20   C30   S    
S4    O18   D    
C23   O8    A    
C10   C11   A    
C1    O1    A    
C7    C13   A    
C20   C21   S    
C27   C28   A    
C9    H5    S    
C14   C15   S    
C2    C28   A    
C18   H1    S    
C19   N2    A    
C17   S2    S    
