data_mof_unit_22860.cif
_audit_creation_date              2012-12-10T20:42:44-0500
_audit_creation_method            fapswitch 2.2
_symmetry_space_group_name_H-M    P1
_symmetry_Int_Tables_number       1
_space_group_crystal_system       triclinic
_cell_length_a                    8.890615
_cell_length_b                    10.679414
_cell_length_c                    9.937829
_cell_angle_alpha                 89.330704
_cell_angle_beta                  90.815094
_cell_angle_gamma                 91.305817
_cell_volume                      943.161290181

loop_
_atom_site_label
_atom_site_type_symbol
_atom_type_description
_atom_site_fract_x
_atom_site_fract_y
_atom_site_fract_z
_atom_type_partial_charge
C1    C     C_R   0.506537 0.260026 0.500290 0.859104
C2    C     C_R   0.538391 0.937192 0.373720 -0.227335
C3    C     C_R   0.536507 0.871424 0.496632 -0.099906
C4    C     C_R   0.567719 0.934869 0.615690 0.121937
C5    C     C_3   0.494715 0.923815 0.749732 -0.480885
C6    C     C_3   0.495043 0.065369 0.750218 -0.511828
C7    C     C_R   0.377059 0.456103 0.069882 0.081616
C8    C     C_R   0.610970 0.558743 0.074331 -0.142343
C9    C     C_R   0.610707 0.561867 0.931121 0.193321
C10   C     C_R   0.379849 0.451593 0.928191 0.085251
C11   C     C_3   0.320361 0.319026 0.929621 -0.115864
C12   C     C_R   0.218962 0.499508 0.499414 0.934332
C13   C     C_3   0.303096 0.329704 0.083145 -0.056463
C14   C     C_R   0.506881 0.739897 0.499184 0.867781
C15   C     C_R   0.781050 0.499967 0.500627 0.931724
C16   C     C_1   0.065467 0.499315 0.499247 -0.227470
C17   C     C_1   0.934533 0.499479 0.500943 -0.205696
C18   C     C_R   0.568172 0.063064 0.616404 0.142405
C19   C     C_R   0.536022 0.129062 0.498169 -0.100507
C20   C     C_R   0.538164 0.066593 0.374491 -0.229856
H1    H     H_    0.526867 0.115874 0.279191 0.165440
H2    H     H_    0.411738 0.254688 0.906104 0.142710
H3    H     H_    0.376472 0.264255 0.140219 0.164378
H4    H     H_    0.526863 0.889875 0.278161 0.172232
H5    H     H_    0.379639 0.880866 0.744491 0.214368
H6    H     H_    0.570481 0.883320 0.827820 0.193838
H7    H     H_    0.380408 0.103513 0.742672 0.219168
H8    H     H_    0.571154 0.106124 0.828703 0.199594
H9    H     H_    0.701160 0.604471 0.130810 0.156548
N1    N     N_R   0.499010 0.499140 0.142800 -0.126011
N2    N     N_R   0.499010 0.499180 0.857150 -0.128584
O1    O     O_R   0.500020 0.316790 0.614690 -0.622631
O2    O     O_R   0.500000 0.316760 0.385350 -0.626696
O3    O     O_R   0.285350 0.500020 0.614650 -0.625411
O4    O     O_R   0.285340 0.499980 0.385310 -0.616262
O5    O     O_R   0.500000 0.683240 0.614650 -0.637922
O6    O     O_R   0.499980 0.683210 0.385310 -0.619592
O7    O     O_R   0.714660 0.500020 0.614690 -0.620276
O8    O     O_R   0.714650 0.499980 0.385350 -0.620052
Zn1   Zn    Zn3+2 0.500010 0.500020 0.653130 0.921456
Zn2   Zn    Zn3+2 0.499990 0.499980 0.346870 0.930384
C21   C     C_3   0.142297 0.338313 0.140450 -0.309730
C22   C     C_3   0.100901 0.221999 0.223925 -0.886238
H10   H     H_    0.110435 0.136106 0.163097 0.263980
H11   H     H_    0.176990 0.215029 0.313261 0.259522
H12   H     H_    0.983401 0.228455 0.259252 0.250955
H13   H     H_    0.134019 0.420620 0.206020 0.227948
H14   H     H_    0.055079 0.353510 0.062193 0.205633
C23   C     C_3   0.736454 0.637107 0.866988 -0.363883
C24   C     C_3   0.883462 0.566007 0.872959 -0.873545
H15   H     H_    0.866314 0.470451 0.831997 0.276232
H16   H     H_    0.970257 0.616852 0.812883 0.253704
H17   H     H_    0.924989 0.557974 0.978575 0.235212
H18   H     H_    0.709186 0.665572 0.763253 0.256364
H19   H     H_    0.753358 0.726664 0.921726 0.161198
C25   C     C_3   0.181744 0.298136 0.836770 -0.310349
C26   C     C_3   0.100703 0.171840 0.860872 -0.913397
H20   H     H_    0.180539 0.098674 0.893490 0.263654
H21   H     H_    0.012622 0.179495 0.937820 0.267743
H22   H     H_    0.043685 0.141044 0.766330 0.246122
H23   H     H_    0.102000 0.375899 0.843132 0.204694
H24   H     H_    0.222413 0.298106 0.731844 0.228184

loop_
_geom_bond_atom_site_label_1
_geom_bond_atom_site_label_2
_ccdc_geom_bond_type
C5    H5    S    
C7    C10   A    
C24   H16   S    
C22   H10   S    
N1    Zn2   S    
C22   H11   S    
C11   H2    S    
C19   C20   A    
C6    H7    S    
C7    C13   S    
C8    N1    A    
C2    C3    A    
C3    C4    A    
C1    O2    A    
O8    Zn2   S    
C7    N1    A    
C21   H14   S    
C20   H1    S    
C14   O6    A    
O7    Zn1   S    
C4    C5    S    
C11   C13   S    
C15   O8    A    
C26   H20   S    
C3    C14   S    
C15   O7    A    
O3    Zn1   S    
C8    H9    S    
C10   N2    A    
C13   C21   S    
C23   C24   S    
O2    Zn2   S    
C21   H13   S    
O1    Zn1   S    
O6    Zn2   S    
C5    C6    S    
O4    Zn2   S    
C22   H12   S    
C25   H24   S    
C6    C18   S    
C26   H21   S    
C24   H17   S    
C1    C19   S    
C21   C22   S    
C9    N2    A    
C12   O3    A    
C23   H18   S    
C12   C16   S    
O5    Zn1   S    
C9    C23   S    
C25   C26   S    
C13   H3    S    
C18   C19   A    
C10   C11   S    
C14   O5    A    
C15   C17   S    
C25   H23   S    
C16   C17   T    
C26   H22   S    
C2    H4    S    
C24   H15   S    
N2    Zn1   S    
C23   H19   S    
C2    C20   A    
C4    C18   A    
C1    O1    A    
C6    H8    S    
C11   C25   S    
C5    H6    S    
C8    C9    A    
C12   O4    A    
