data_mof_unit_7342.cif
_audit_creation_date              2013-03-05T16:32:18-0500
_audit_creation_method            fapswitch 2.2
_symmetry_space_group_name_H-M    P1
_symmetry_Int_Tables_number       1
_space_group_crystal_system       triclinic
_cell_length_a                    15.873653
_cell_length_b                    10.830125
_cell_length_c                    9.562486
_cell_angle_alpha                 90.004547
_cell_angle_beta                  90.464101
_cell_angle_gamma                 90.342004
_cell_volume                      1643.83860629

loop_
_atom_site_label
_atom_site_type_symbol
_atom_site_description
_atom_site_fract_x
_atom_site_fract_y
_atom_site_fract_z
_atom_type_partial_charge
O1    O     O_R   0.500000 0.319640 0.618810 -0.576568
O2    O     O_R   0.500010 0.319680 0.381230 -0.554483
C1    C     C_R   0.498514 0.262431 0.500110 0.811845
O3    O     O_R   0.379430 0.499990 0.618840 -0.588127
O4    O     O_R   0.379440 0.500030 0.381260 -0.558048
C2    C     C_R   0.340234 0.499936 0.499517 0.813312
Cu1   Cu    Cu3+1 0.500000 0.499980 0.640670 0.980781
Cu2   Cu    Cu3+1 0.500000 0.500020 0.359330 0.985705
O5    O     O_R   0.499990 0.680320 0.618770 -0.594852
O6    O     O_R   0.500000 0.680360 0.381190 -0.553169
O7    O     O_R   0.620560 0.499970 0.618740 -0.532148
O8    O     O_R   0.620570 0.500010 0.381160 -0.585236
C3    C     C_R   0.497053 0.737639 0.499582 0.798537
C4    C     C_R   0.659728 0.499954 0.500323 0.818504
C5    C     C_3   0.049779 0.539357 0.642602 -0.396414
C6    C     C_3   0.048120 0.370283 0.461383 -0.367753
C7    C     C_3   0.950615 0.369064 0.466116 -0.347314
H1    H     H_    0.929421 0.473389 0.724997 0.235547
H2    H     H_    0.073729 0.474733 0.724044 0.188241
H3    H     H_    0.069195 0.342056 0.355405 0.186764
H4    H     H_    0.073316 0.301534 0.537227 0.165254
H5    H     H_    0.929595 0.303970 0.549108 0.169991
H6    H     H_    0.924272 0.332854 0.366239 0.217886
C8    C     C_1   0.749357 0.499814 0.500617 -0.080636
C9    C     C_3   0.082772 0.500762 0.496841 0.256476
C10   C     C_3   0.952127 0.538700 0.643478 -0.388871
C11   C     C_3   0.917084 0.500368 0.497781 0.160754
C12   C     C_3   0.950973 0.595415 0.388510 0.215033
C13   C     C_3   0.048989 0.592747 0.385896 -0.418015
C14   C     C_1   0.824894 0.499872 0.499742 -0.009307
C15   C     C_1   0.174955 0.500433 0.497287 -0.085292
C16   C     C_1   0.250535 0.500165 0.498201 -0.175360
H7    H     H_    0.074101 0.687005 0.408084 0.139767
H8    H     H_    0.072358 0.566501 0.280664 0.203822
H9    H     H_    0.931991 0.689217 0.424140 0.093270
H10   H     H_    0.073483 0.633335 0.669825 0.175598
H11   H     H_    0.928964 0.632080 0.672186 0.187899
C17   C     C_R   0.496442 0.063215 0.624866 0.094781
C18   C     C_R   0.489458 0.129495 0.500549 -0.126731
C19   C     C_R   0.468035 0.066118 0.377251 -0.241260
H12   H     H_    0.456161 0.116621 0.281736 0.167326
C20   C     C_R   0.465486 0.936697 0.374900 0.144880
C21   C     C_R   0.486774 0.870858 0.498576 -0.110795
C22   C     C_R   0.495544 0.936322 0.623709 0.080244
C23   C     C_3   0.561470 0.928508 0.735747 -0.469349
C24   C     C_3   0.562423 0.068803 0.736969 -0.396815
H13   H     H_    0.536533 0.887582 0.833801 0.196881
H14   H     H_    0.621238 0.887613 0.697995 0.197983
H15   H     H_    0.537964 0.108743 0.835657 0.204471
H16   H     H_    0.622733 0.109584 0.699978 0.212176
C25   C     C_R   0.543669 0.588351 0.074564 0.152573
N1    N     N_R   0.500530 0.500930 0.147930 -0.161653
C26   C     C_R   0.448385 0.422803 0.073285 0.264933
C27   C     C_R   0.448620 0.423210 0.924188 -0.081808
H17   H     H_    0.408405 0.359512 0.867035 0.128450
N2    N     N_R   0.500530 0.500890 0.852020 -0.169821
C28   C     C_R   0.545388 0.586291 0.927667 0.117357
C29   C     C_3   0.638876 0.610159 0.928593 0.135626
C30   C     C_3   0.635179 0.617596 0.087180 -0.442738
H18   H     H_    0.657026 0.698684 0.877792 0.095970
H19   H     H_    0.671901 0.544605 0.141355 0.258365
H20   H     H_    0.646242 0.712485 0.127940 0.180034
N3    N     N_R   0.914811 0.575668 0.248258 0.132233
O9    O     O_R   0.863385 0.656749 0.195579 -0.358705
O10   O     O_R   0.936311 0.481293 0.172505 -0.362206
N4    N     N_3   0.444515 0.873284 0.246990 -0.560871
H21   H     H_    0.385619 0.831489 0.260760 0.215235
H22   H     H_    0.437679 0.935711 0.164303 0.201708
N5    N     N_3   0.393662 0.339758 0.145356 -0.534070
H23   H     H_    0.331720 0.361790 0.117568 0.192683
H24   H     H_    0.405260 0.250700 0.108413 0.175542
N6    N     N_R   0.689389 0.504869 0.883470 0.184633
O11   O     O_R   0.763410 0.524980 0.830592 -0.360065
O12   O     O_R   0.667379 0.392227 0.914780 -0.350592

loop_
_geom_bond_atom_site_label_1
_geom_bond_atom_site_label_2
_geom_bond_distance
_ccdc_geom_bond_type
C9    C15   1.463269 S    
C2    C16   1.423813 S    
N3    O10   1.301509 A    
C6    H4    1.113227 S    
N4    H22   1.045776 S    
H1    C10   1.113319 S    
C26   N5    1.427901 S    
Cu1   Cu2   2.690310 S    
C23   C24   1.519439 S    
C22   C23   1.494334 S    
C5    H2    1.113259 S    
C24   H15   1.111887 S    
C10   C11   1.551597 S    
C7    H6    1.110101 S    
C12   C13   1.556725 S    
O4    C2    1.295179 A    
O7    C4    1.296224 A    
C5    C9    1.551171 S    
C29   H18   1.112296 S    
C13   H7    1.113430 S    
N2    C28   1.367275 A    
C4    C8    1.422741 S    
N5    H24   1.045033 S    
O5    C3    1.298507 A    
C12   H9    1.115417 S    
C6    C7    1.548773 S    
C25   C28   1.405364 A    
Cu2   N1    2.021620 S    
Cu2   O8    1.923554 S    
C19   C20   1.402157 A    
N4    H21   1.045563 S    
C1    C18   1.446030 S    
C11   C14   1.463629 S    
Cu1   N2    2.021004 S    
O3    Cu1   1.923557 S    
C23   H13   1.111897 S    
C9    C13   1.550118 S    
C27   N2    1.365288 A    
C30   H19   1.110733 S    
C25   N1    1.362964 A    
C7    C11   1.552012 S    
O3    C2    1.295200 A    
C18   C19   1.402666 A    
C5    C10   1.550157 S    
C29   C30   1.520239 S    
C26   C27   1.425785 A    
C13   H8    1.112771 S    
O1    C1    1.293093 A    
Cu1   O7    1.926870 S    
C21   C22   1.396370 A    
C17   C22   1.374302 A    
C15   C16   1.199722 T    
C6    H3    1.113122 S    
N6    O12   1.302545 A    
C19   H12   1.080476 S    
O8    C4    1.293575 A    
C25   C30   1.488810 S    
C20   C21   1.420497 A    
C5    H10   1.113128 S    
C3    C21   1.452965 S    
N1    C26   1.375689 A    
C23   H14   1.112255 S    
C6    C9    1.549837 S    
Cu1   O5    1.964316 S    
C27   H17   1.082177 S    
C30   H20   1.111534 S    
O1    Cu1   1.964243 S    
O2    Cu2   1.964316 S    
N6    O11   1.300110 A    
O6    C3    1.292207 A    
O4    Cu2   1.926873 S    
C10   H11   1.113262 S    
C24   H16   1.112278 S    
C7    H5    1.113421 S    
O2    C1    1.295240 A    
C29   N6    1.464874 S    
C28   C29   1.504767 S    
C17   C18   1.392737 A    
N5    H23   1.045420 S    
C8    C14   1.199145 T    
C17   C24   1.493595 S    
N3    O9    1.301230 A    
C12   N3    1.469674 S    
Cu2   O6    1.964243 S    
C11   C12   1.563164 S    
C20   N4    1.438432 S    
