data_mof_unit_15329.cif
_audit_creation_date              2013-03-05T15:49:55-0500
_audit_creation_method            fapswitch 2.2
_symmetry_space_group_name_H-M    P1
_symmetry_Int_Tables_number       1
_space_group_crystal_system       triclinic
_cell_length_a                    6.940237
_cell_length_b                    19.918004
_cell_length_c                    23.660001
_cell_angle_alpha                 93.140569
_cell_angle_beta                  90.397697
_cell_angle_gamma                 89.362954
_cell_volume                      3265.47642045

loop_
_atom_site_label
_atom_site_type_symbol
_atom_site_description
_atom_site_fract_x
_atom_site_fract_y
_atom_site_fract_z
_atom_type_partial_charge
O1    O     O_R   0.620100 0.812200 0.810870 -0.592244
O2    O     O_R   0.379900 0.187800 0.189130 -0.591938
O3    O     O_R   0.296960 0.671650 0.794750 -0.594528
O4    O     O_R   0.703040 0.328350 0.205250 -0.593753
O5    O     O_R   0.120160 0.687800 0.689130 -0.550878
O6    O     O_R   0.879840 0.312200 0.310870 -0.552582
C1    C     C_R   0.464945 0.646067 0.804133 1.066018
C2    C     C_R   0.535068 0.353931 0.195850 1.067775
O7    O     O_R   0.290810 0.810670 0.817290 -0.586313
O8    O     O_R   0.709190 0.189330 0.182710 -0.586133
O9    O     O_R   0.113980 0.827820 0.711840 -0.559704
O10   O     O_R   0.886020 0.172180 0.288160 -0.567602
C3    C     C_R   0.458915 0.832348 0.833809 1.052358
C4    C     C_R   0.541087 0.167661 0.166188 1.052342
O11   O     O_R   0.626290 0.672180 0.788160 -0.589224
O12   O     O_R   0.373710 0.327820 0.211840 -0.588170
O13   O     O_3   0.451520 0.755460 0.715370 -0.219851
O14   O     O_3   0.548480 0.244540 0.284630 -0.225236
V1    V     V_3+5 0.179200 0.748980 0.756420 1.306290
V2    V     V_3+5 0.820800 0.251020 0.243580 1.300785
O15   O     O_R   0.783880 0.828350 0.705250 -0.576344
O16   O     O_R   0.216120 0.171650 0.294750 -0.581582
C5    C     C_R   0.951370 0.852613 0.694379 1.023876
C6    C     C_R   0.049371 0.147421 0.305655 1.031717
O17   O     O_R   0.790030 0.689320 0.682700 -0.567940
O18   O     O_R   0.209970 0.310680 0.317300 -0.563500
C7    C     C_R   0.959730 0.669964 0.664614 1.062987
C8    C     C_R   0.039912 0.329636 0.335606 1.068370
V3    V     V_3+5 0.678400 0.751010 0.743570 1.313397
V4    V     V_3+5 0.321600 0.248990 0.256430 1.308055
O19   O     O_3   0.955950 0.744540 0.784620 -0.296994
O20   O     O_3   0.044050 0.255460 0.215380 -0.295480
C9    C     C_R   0.163486 0.427045 0.393570 -0.056542
C10   C     C_R   0.834059 0.572446 0.606819 -0.057100
C11   C     C_R   0.026932 0.376430 0.386686 -0.284465
C12   C     C_R   0.971140 0.622999 0.613582 -0.288934
C13   C     C_R   0.874776 0.373448 0.426318 0.309854
C14   C     C_R   0.120774 0.626444 0.573329 0.286762
C15   C     C_R   0.862478 0.422211 0.473044 -0.159065
C16   C     C_R   0.131666 0.577883 0.526500 -0.159596
C17   C     C_R   0.002061 0.474427 0.477705 0.061231
C18   C     C_R   0.993142 0.525365 0.522184 0.060797
C19   C     C_R   0.151695 0.475881 0.437952 0.131099
C20   C     C_R   0.844065 0.523924 0.562070 0.124818
C21   C     C_R   0.716458 0.421705 0.515221 0.349735
C22   C     C_R   0.275002 0.579234 0.483729 0.347188
C23   C     C_R   0.707630 0.472965 0.557928 -0.254159
C24   C     C_R   0.286169 0.527482 0.441571 -0.257585
H1    H     H_    0.275727 0.430096 0.362446 0.179697
H2    H     H_    0.722520 0.569348 0.638144 0.180888
H3    H     H_    0.595184 0.471614 0.589468 0.189038
H4    H     H_    0.397381 0.529315 0.409700 0.188170
C25   C     C_R   0.954042 0.915415 0.663660 -0.201875
C26   C     C_R   0.055953 0.085989 0.338230 -0.203044
C27   C     C_R   0.871215 0.033622 0.661118 -0.078677
C28   C     C_R   0.205299 0.976411 0.346803 -0.106486
C29   C     C_R   0.872009 0.973858 0.688984 -0.031493
C30   C     C_R   0.150444 0.029249 0.313947 -0.049073
C31   C     C_R   0.029417 0.916964 0.608619 -0.105259
C32   C     C_R   0.015425 0.088677 0.396650 -0.151334
C33   C     C_R   0.033586 0.977812 0.579566 0.144272
C34   C     C_R   0.085337 0.037804 0.432095 0.146045
C35   C     C_R   0.949500 0.036008 0.606735 0.076100
C36   C     C_R   0.176199 0.980492 0.405491 0.086684
C37   C     C_R   0.107007 0.982050 0.523235 -0.103117
C38   C     C_R   0.065466 0.040929 0.492680 -0.116165
C39   C     C_R   0.013787 0.100871 0.524699 0.328827
C40   C     C_R   0.224736 0.930992 0.496471 0.331900
C41   C     C_R   0.948414 0.096870 0.580208 -0.233934
C42   C     C_R   0.249373 0.929401 0.437821 -0.257549
H5    H     H_    0.901952 0.142343 0.603755 0.203108
H6    H     H_    0.335117 0.889328 0.417410 0.198918
H7    H     H_    0.934991 0.131646 0.413711 0.180496
H8    H     H_    0.074947 0.869722 0.588303 0.177351
H9    H     H_    0.189360 0.026964 0.269642 0.201169
H10   H     H_    0.808077 0.973282 0.730571 0.196131
H11   H     H_    0.807445 0.078170 0.682059 0.166684
H12   H     H_    0.279134 0.933402 0.326535 0.168564
C43   C     C_R   0.461892 0.581649 0.833100 -0.318869
C44   C     C_R   0.538241 0.418263 0.166724 -0.319477
C45   C     C_R   0.300604 0.474366 0.843174 0.230070
C46   C     C_R   0.700602 0.525296 0.156367 0.229673
C47   C     C_R   0.359359 0.526178 0.808714 0.410218
C48   C     C_R   0.641140 0.473731 0.190968 0.411475
C49   C     C_R   0.524260 0.580312 0.889622 -0.252670
C50   C     C_R   0.476088 0.419436 0.110159 -0.252056
C51   C     C_R   0.472488 0.527415 0.924545 0.150070
C52   C     C_R   0.528401 0.472145 0.075091 0.150456
C53   C     C_R   0.341850 0.478230 0.902192 -0.210666
C54   C     C_R   0.659415 0.521269 0.097356 -0.210895
C55   C     C_R   0.538836 0.523999 0.981934 0.083191
C56   C     C_R   0.462259 0.475454 0.017659 0.083317
C57   C     C_R   0.314452 0.433821 0.995874 -0.274397
C58   C     C_R   0.687013 0.565509 0.003638 -0.274578
C59   C     C_R   0.252962 0.434943 0.939716 0.386366
C60   C     C_R   0.748746 0.564351 0.059756 0.386404
H13   H     H_    0.401371 0.375542 0.093058 0.130180
H14   H     H_    0.598654 0.624223 0.906838 0.130431
H15   H     H_    0.235526 0.402019 0.022799 0.163727
H16   H     H_    0.766152 0.597174 0.976644 0.163858
C61   C     C_R   0.644975 0.056554 0.117181 0.535155
C62   C     C_R   0.354894 0.943473 0.882799 0.534497
C63   C     C_R   0.533021 0.116669 0.117991 -0.321253
C64   C     C_R   0.466994 0.883382 0.881984 -0.321969
C65   C     C_R   0.404909 0.127519 0.073434 -0.197167
C66   C     C_R   0.595216 0.872579 0.926523 -0.196791
C67   C     C_R   0.387034 0.080317 0.027716 0.188626
C68   C     C_R   0.613060 0.919785 0.972238 0.189033
C69   C     C_R   0.509391 0.023453 0.023605 0.033050
C70   C     C_R   0.490670 0.976644 0.976343 0.032949
C71   C     C_R   0.649533 0.013350 0.066678 -0.206298
C72   C     C_R   0.350457 0.986730 0.933281 -0.206051
C73   C     C_R   0.241434 0.088048 0.987464 -0.241060
C74   C     C_R   0.758678 0.912065 0.012495 -0.240308
C75   C     C_R   0.214434 0.040241 0.942489 0.392939
C76   C     C_R   0.785601 0.959865 0.057481 0.392239
H17   H     H_    0.313819 0.172202 0.075382 0.139218
H18   H     H_    0.686369 0.827911 0.924575 0.139163
H19   H     H_    0.138832 0.129247 0.993365 0.177524
H20   H     H_    0.861305 0.870874 0.006596 0.177397
N1    N     N_R   0.083126 0.397763 0.923933 0.259381
O21   O     O_R   0.067528 0.335655 0.937572 -0.325894
O22   O     O_R   0.929999 0.429783 0.907491 -0.357413
N2    N     N_R   0.919166 0.601264 0.075428 0.259422
O23   O     O_R   0.935670 0.663293 0.061660 -0.325710
O24   O     O_R   0.071847 0.569022 0.091908 -0.357727
S1    S     S_3+6 0.701071 0.479049 0.264477 0.010075
O25   O     O_2   0.912207 0.463571 0.271044 -0.287888
O26   O     O_2   0.660309 0.549050 0.288810 -0.201185
O27   O     O_3   0.574894 0.425018 0.301138 -0.554494
H21   H     H_    0.613558 0.435386 0.340980 0.363106
S2    S     S_3+6 0.299115 0.521146 0.735211 0.010698
O28   O     O_2   0.341758 0.451424 0.710558 -0.200027
O29   O     O_2   0.087502 0.535911 0.728816 -0.286831
O30   O     O_3   0.423341 0.575912 0.698738 -0.556192
H22   H     H_    0.382440 0.566454 0.658964 0.363769
N3    N     N_R   0.210797 0.415524 0.817476 0.285800
O31   O     O_R   0.044038 0.419824 0.792366 -0.232009
O32   O     O_R   0.293897 0.356961 0.820680 -0.267534
N4    N     N_R   0.791285 0.584057 0.181908 0.285946
O33   O     O_R   0.709001 0.642741 0.178592 -0.266232
O34   O     O_R   0.957994 0.579540 0.207016 -0.232065
S3    S     S_3+6 0.735132 0.029466 0.183235 0.004941
O35   O     O_2   0.747241 0.954057 0.182971 -0.217046
O36   O     O_2   0.931200 0.058713 0.194174 -0.294227
O37   O     O_3   0.587822 0.056284 0.236187 -0.563003
H23   H     H_    0.653865 0.043302 0.271266 0.366333
S4    S     S_3+6 0.263551 0.970300 0.816794 0.003755
O38   O     O_2   0.067450 0.940903 0.806294 -0.294915
O39   O     O_2   0.251062 0.045691 0.816871 -0.220812
O40   O     O_3   0.409904 0.943371 0.763641 -0.556396
H24   H     H_    0.344027 0.956810 0.728673 0.375546
N5    N     N_R   0.033976 0.041590 0.912559 0.268731
O41   O     O_R   0.930804 0.987482 0.907798 -0.380325
O42   O     O_R   0.954441 0.098794 0.901104 -0.302780
N6    N     N_R   0.965963 0.958532 0.087470 0.268758
O43   O     O_R   0.045769 0.901334 0.098813 -0.301123
O44   O     O_R   0.068755 0.012719 0.092462 -0.380020
N7    N     N_R   0.734529 0.321312 0.418231 0.259080
O45   O     O_R   0.788829 0.258541 0.416983 -0.357193
O46   O     O_R   0.558886 0.336189 0.403570 -0.371919
N8    N     N_R   0.259488 0.679117 0.580732 0.259882
O47   O     O_R   0.436850 0.664967 0.594141 -0.367496
O48   O     O_R   0.202626 0.741625 0.582236 -0.360598
N9    N     N_R   0.580686 0.368394 0.518075 0.272167
O49   O     O_R   0.640353 0.309531 0.532331 -0.239965
O50   O     O_R   0.397573 0.382708 0.521261 -0.346971
N10   N     N_R   0.401738 0.634792 0.478954 0.273016
O51   O     O_R   0.586362 0.623896 0.474450 -0.346224
O52   O     O_R   0.330728 0.692145 0.464566 -0.259596
N11   N     N_R   0.058088 0.166317 0.505704 0.242137
O53   O     O_R   0.218755 0.175366 0.479215 -0.337933
O54   O     O_R   0.960456 0.218872 0.524578 -0.282298
N12   N     N_R   0.346683 0.888008 0.528569 0.237016
O55   O     O_R   0.431465 0.912122 0.574446 -0.394530
O56   O     O_R   0.403519 0.829872 0.506648 -0.273759

loop_
_geom_bond_atom_site_label_1
_geom_bond_atom_site_label_2
_geom_bond_distance
_ccdc_geom_bond_type
S3    O37   1.682997 S    
V4    O20   2.156995 S    
N11   O53   1.302000 A    
N9    O49   1.300179 A    
C51   C55   1.435631 A    
O13   V3    1.709147 S    
C17   C18   1.422395 A    
C62   C72   1.434251 A    
S4    O40   1.683062 S    
C44   C48   1.414945 A    
V1    O19   1.696324 S    
C64   C66   1.398662 A    
C25   C31   1.408811 A    
O30   H22   0.989792 S    
C15   C17   1.428519 A    
C26   C32   1.410486 A    
C45   N3    1.436910 S    
N11   O54   1.300589 A    
O9    V1    1.985553 S    
C22   N10   1.430975 S    
C29   H10   1.082861 S    
C32   C34   1.428979 A    
N6    O43   1.301595 A    
C11   C13   1.420974 A    
S4    O39   1.503075 D    
O37   H23   0.990655 S    
N2    O24   1.301491 A    
O3    C1    1.289864 A    
C69   C71   1.424575 A    
V2    O20   1.696325 S    
C27   H11   1.083888 S    
C50   C52   1.424981 A    
N10   O52   1.300574 A    
C6    C26   1.481515 S    
S3    O35   1.503074 D    
C32   H7    1.077829 S    
C28   C36   1.402371 A    
C28   H12   1.084000 S    
C33   C35   1.416309 A    
C68   C74   1.396936 A    
C41   H5    1.084165 S    
C50   H13   1.079526 S    
O7    C3    1.298740 A    
N12   O55   1.302086 A    
C67   C73   1.396808 A    
C34   C36   1.416939 A    
C49   H14   1.079608 S    
C70   C72   1.424672 A    
C62   S4    1.787841 S    
O5    C7    1.295997 A    
O7    V1    1.998928 S    
O6    C8    1.294061 A    
C52   C56   1.435945 A    
C8    C11   1.487831 S    
O8    V2    1.998929 S    
S2    O28   1.503626 D    
C43   C47   1.414906 A    
C27   C35   1.403584 A    
C44   C50   1.404597 A    
O40   H24   0.990682 S    
N7    O46   1.300556 A    
O3    V1    1.994386 S    
C71   C76   1.424477 A    
O14   V4    1.709147 S    
C36   C42   1.395355 A    
N5    O42   1.301594 A    
C19   C24   1.394739 A    
C57   H15   1.078831 S    
C46   N4    1.436914 S    
C20   C23   1.394851 A    
O4    C2    1.289843 A    
C15   C21   1.427692 A    
C45   C53   1.421561 A    
C40   C42   1.397920 A    
C59   N1    1.435347 S    
C48   S1    1.783219 S    
C16   C18   1.427666 A    
C38   C39   1.422384 A    
N9    O50   1.301123 A    
C73   H19   1.084332 S    
C75   N5    1.435193 S    
C17   C19   1.407535 A    
C65   H17   1.085026 S    
C18   C20   1.406791 A    
C45   C47   1.415002 A    
C30   H9    1.082732 S    
O11   V3    1.977013 S    
N8    O48   1.300588 A    
C21   C23   1.397712 A    
O15   C5    1.296608 A    
O17   V3    1.996142 S    
C57   C59   1.393993 A    
C22   C24   1.396465 A    
C10   H2    1.079999 S    
C31   C33   1.426376 A    
C34   C38   1.438895 A    
C49   C51   1.424722 A    
C9    C19   1.393920 A    
C35   C41   1.395209 A    
C10   C20   1.395434 A    
N4    O33   1.301195 A    
O8    C4    1.298688 A    
C55   C56   1.427968 A    
C25   C29   1.397051 A    
C23   H3    1.085081 S    
C1    O11   1.306747 A    
C39   N11   1.439025 S    
O15   V3    1.979460 S    
C76   N6    1.435283 S    
C39   C41   1.399143 A    
C53   C59   1.419675 A    
C58   C60   1.393659 A    
S1    O26   1.503668 D    
C65   C67   1.399534 A    
N7    O45   1.300664 A    
C58   H16   1.078916 S    
V3    O19   2.156997 S    
C37   C40   1.421612 A    
O10   V2    1.985555 S    
O1    V3    1.992477 S    
C63   C65   1.398663 A    
C74   H20   1.084323 S    
S4    O38   1.501317 D    
C3    C64   1.486287 S    
C62   C64   1.419559 A    
N3    O32   1.301192 A    
C31   H8    1.078084 S    
N1    O21   1.301310 A    
C60   N2    1.435395 S    
S2    O29   1.502830 D    
N10   O51   1.301330 A    
C52   C54   1.420683 A    
O18   V4    1.996142 S    
C46   C48   1.414802 A    
C27   C29   1.391930 A    
O16   C6    1.291891 A    
O1    C3    1.296764 A    
C16   C22   1.425457 A    
S1    O25   1.502810 D    
C43   C49   1.404317 A    
C12   C14   1.418701 A    
C1    C43   1.487825 S    
N8    O47   1.300740 A    
C26   C30   1.398209 A    
S3    O36   1.501405 D    
C40   N12   1.439531 S    
O16   V4    1.979458 S    
N4    O34   1.301396 A    
C74   C76   1.401579 A    
C68   C70   1.407563 A    
C54   C60   1.419591 A    
O5    V1    1.994253 S    
C7    C12   1.488330 S    
O17   C7    1.302949 A    
O6    V2    1.994252 S    
N3    O31   1.301374 A    
O10   C6    1.305076 A    
O18   C8    1.304751 A    
C46   C54   1.421343 A    
C61   C63   1.419442 A    
O2    V4    1.992476 S    
C13   N7    1.435444 S    
N6    O44   1.299910 A    
O27   H21   0.989771 S    
S1    O27   1.676658 S    
C47   S2    1.783526 S    
C13   C15   1.433410 A    
C69   C70   1.422319 A    
C55   C58   1.403535 A    
C14   C16   1.432127 A    
C61   S3    1.787863 S    
C9    C11   1.393623 A    
C4    C63   1.486132 S    
C67   C69   1.407507 A    
C66   C68   1.399513 A    
S2    O30   1.676991 S    
C61   C71   1.434062 A    
C5    C25   1.481090 S    
O9    C5    1.300635 A    
C56   C57   1.403700 A    
O13   V1    2.139295 S    
C10   C12   1.395043 A    
C28   C30   1.390486 A    
C21   N9    1.432123 S    
O14   V2    2.139296 S    
O2    C4    1.296748 A    
N12   O56   1.300906 A    
N1    O22   1.301491 A    
O4    V2    1.994384 S    
C33   C37   1.437320 A    
C14   N8    1.434631 S    
C2    O12   1.306950 A    
C37   C38   1.436505 A    
C9    H1    1.080137 S    
C2    C44   1.488228 S    
C51   C53   1.420503 A    
C42   H6    1.084262 S    
N5    O41   1.299855 A    
C24   H4    1.085084 S    
O12   V4    1.977013 S    
C72   C75   1.424670 A    
C66   H18   1.085026 S    
N2    O23   1.301315 A    
C73   C75   1.401539 A    
