data_mof_unit_54715.cif
_audit_creation_date              2012-12-10T18:53:43-0500
_audit_creation_method            fapswitch 2.2
_symmetry_space_group_name_H-M    P1
_symmetry_Int_Tables_number       1
_space_group_crystal_system       triclinic
_cell_length_a                    10.631573
_cell_length_b                    9.866528
_cell_length_c                    19.074993
_cell_angle_alpha                 89.688608
_cell_angle_beta                  89.704255
_cell_angle_gamma                 90.403617
_cell_volume                      2000.79781072

loop_
_atom_site_label
_atom_site_type_symbol
_atom_type_description
_atom_site_fract_x
_atom_site_fract_y
_atom_site_fract_z
_atom_type_partial_charge
C1    C     C_R   0.260166 0.500235 0.498521 0.856123
C2    C     C_R   0.739911 0.500569 0.499638 0.855671
C3    C     C_R   0.506054 0.596664 0.928713 0.308085
C4    C     C_R   0.507655 0.593898 0.069639 0.307984
C5    C     C_R   0.506359 0.500819 0.364978 0.871900
C6    C     C_R   0.494788 0.499892 0.634958 0.867669
C7    C     C_R   0.064207 0.410442 0.454239 -0.208680
C8    C     C_R   0.936199 0.602137 0.534883 -0.196724
C9    C     C_R   0.935087 0.409175 0.455369 -0.241286
C10   C     C_R   0.064995 0.602961 0.533786 -0.190317
C11   C     C_R   0.872321 0.502874 0.497172 0.001492
C12   C     C_R   0.127844 0.503180 0.496013 0.008372
C13   C     C_R   0.596071 0.072361 0.531109 0.361303
C14   C     C_R   0.409259 0.926479 0.465221 0.336665
C15   C     C_R   0.402115 0.070262 0.471469 0.358338
C16   C     C_R   0.591122 0.927133 0.534957 0.353888
C17   C     C_R   0.589176 0.622597 0.259541 0.103841
C18   C     C_R   0.547047 0.413959 0.756588 0.066306
C19   C     C_R   0.410487 0.612263 0.740714 0.112146
C20   C     C_R   0.470565 0.408995 0.242645 0.080226
C21   C     C_R   0.568492 0.659142 0.189214 0.107965
C22   C     C_R   0.555016 0.444008 0.829060 0.132102
C23   C     C_R   0.434552 0.653867 0.809705 0.109004
C24   C     C_R   0.467072 0.436708 0.169615 0.128974
C25   C     C_R   0.510120 0.564914 0.144544 -0.052725
C26   C     C_R   0.504256 0.567976 0.853896 -0.058021
C27   C     C_R   0.523905 0.507875 0.288011 -0.171535
C28   C     C_R   0.481755 0.504835 0.711936 -0.164840
H1    H     H_    0.114373 0.341328 0.420447 0.172788
H2    H     H_    0.886768 0.676545 0.565996 0.179497
H3    H     H_    0.884365 0.336929 0.423397 0.139215
H4    H     H_    0.115435 0.679236 0.563332 0.154081
N1    N     N_R   0.500000 0.857200 0.500000 -0.199319
N2    N     N_R   0.500000 0.142800 0.500000 -0.190317
N3    N     N_R   0.397284 0.593525 0.034773 -0.191992
N4    N     N_R   0.616344 0.603573 0.963612 -0.191986
N5    N     N_R   0.396614 0.593313 0.965265 -0.170929
N6    N     N_R   0.617095 0.600757 0.033155 -0.172198
O1    O     O_R   0.316770 0.614620 0.500000 -0.571869
O2    O     O_R   0.683230 0.385380 0.500000 -0.581622
O3    O     O_R   0.683230 0.614620 0.500000 -0.566262
O4    O     O_R   0.316770 0.385380 0.500000 -0.582459
O5    O     O_R   0.499990 0.614700 0.398140 -0.603604
O6    O     O_R   0.500010 0.385300 0.601860 -0.588643
O7    O     O_R   0.500010 0.614700 0.601860 -0.610752
O8    O     O_R   0.499990 0.385300 0.398140 -0.600334
Zn1   Zn    Zn3+2 0.500000 0.653120 0.500000 0.992841
Zn2   Zn    Zn3+2 0.500000 0.346880 0.500000 0.993962
C29   C     C_3   0.690597 0.697516 0.301767 -0.398686
C30   C     C_3   0.798342 0.602676 0.320495 -0.840013
H5    H     H_    0.868610 0.657521 0.352811 0.257473
H6    H     H_    0.763457 0.513556 0.350515 0.239341
H7    H     H_    0.845319 0.566627 0.271971 0.253937
H8    H     H_    0.734272 0.782698 0.272614 0.217796
H9    H     H_    0.653184 0.746692 0.349294 0.224848
C31   C     C_3   0.596885 0.280459 0.727956 -0.340184
C32   C     C_3   0.489043 0.178139 0.719835 -0.834950
H10   H     H_    0.453680 0.145599 0.772195 0.231683
H11   H     H_    0.409375 0.221771 0.690142 0.267842
H12   H     H_    0.522457 0.087839 0.691474 0.232908
H13   H     H_    0.648647 0.296521 0.678103 0.247035
H14   H     H_    0.669064 0.233360 0.761335 0.194620
C33   C     C_3   0.295273 0.666269 0.701938 -0.410910
C34   C     C_3   0.193198 0.556575 0.699171 -0.889454
H15   H     H_    0.220865 0.474960 0.662429 0.249804
H16   H     H_    0.177122 0.511988 0.752111 0.267714
H17   H     H_    0.103271 0.601153 0.681407 0.243530
H18   H     H_    0.253058 0.755099 0.727721 0.219985
H19   H     H_    0.317074 0.702979 0.648398 0.220738
C35   C     C_3   0.426180 0.271579 0.271361 -0.351061
C36   C     C_3   0.538334 0.178585 0.284847 -0.849387
H20   H     H_    0.611171 0.228887 0.317234 0.270481
H21   H     H_    0.506355 0.085488 0.312527 0.222872
H22   H     H_    0.582317 0.149003 0.234325 0.236657
H23   H     H_    0.366880 0.283393 0.318785 0.234275
H24   H     H_    0.361823 0.217132 0.235989 0.196141
C37   C     C_3   0.597678 0.803124 0.163621 -0.408317
C38   C     C_3   0.731684 0.819709 0.134464 -0.836483
H25   H     H_    0.796615 0.743121 0.156658 0.265186
H26   H     H_    0.732294 0.810493 0.076585 0.269480
H27   H     H_    0.768232 0.922302 0.147272 0.233463
H28   H     H_    0.529290 0.835520 0.123086 0.203385
H29   H     H_    0.582442 0.875779 0.207148 0.182269
C39   C     C_3   0.613325 0.342522 0.880243 -0.380830
C40   C     C_3   0.756600 0.358069 0.883568 -0.860136
H30   H     H_    0.800782 0.345530 0.831268 0.242747
H31   H     H_    0.783504 0.459528 0.903370 0.277293
H32   H     H_    0.795296 0.280252 0.919597 0.247327
H33   H     H_    0.574080 0.352411 0.933914 0.206409
H34   H     H_    0.587537 0.236946 0.866481 0.197984
C41   C     C_3   0.394771 0.794428 0.834175 -0.405900
C42   C     C_3   0.261688 0.796915 0.865626 -0.830065
H35   H     H_    0.203326 0.710461 0.847269 0.268418
H36   H     H_    0.265443 0.793668 0.923683 0.267233
H37   H     H_    0.214553 0.892733 0.850497 0.232079
H38   H     H_    0.462479 0.835342 0.873037 0.201251
H39   H     H_    0.401252 0.866908 0.789430 0.180834
C43   C     C_3   0.421490 0.328755 0.118037 -0.381631
C44   C     C_3   0.277962 0.327643 0.110930 -0.861289
H40   H     H_    0.230316 0.315451 0.162407 0.243071
H41   H     H_    0.244406 0.423297 0.087113 0.278732
H42   H     H_    0.248964 0.242468 0.076674 0.246076
H43   H     H_    0.463810 0.342861 0.065216 0.205207
H44   H     H_    0.455073 0.226814 0.133552 0.198829
O9    O     O_3   0.690532 0.144017 0.564359 -0.573202
C45   C     C_3   0.807381 0.118233 0.531622 -0.264759
H45   H     H_    0.801418 0.122529 0.473342 0.136847
H46   H     H_    0.846908 0.019944 0.548811 0.189917
H47   H     H_    0.875300 0.197235 0.548384 0.178350
O10   O     O_3   0.316761 0.854096 0.430814 -0.551749
C46   C     C_3   0.330620 0.874060 0.357947 -0.244366
H48   H     H_    0.300865 0.977536 0.342256 0.178418
H49   H     H_    0.428532 0.854439 0.339820 0.132270
H50   H     H_    0.268363 0.800905 0.330683 0.175006
O11   O     O_3   0.294639 0.136005 0.450147 -0.571672
C47   C     C_3   0.197268 0.106340 0.499078 -0.272570
H51   H     H_    0.105957 0.136709 0.476540 0.163781
H52   H     H_    0.212045 0.163473 0.548462 0.161914
H53   H     H_    0.187050 0.996588 0.511628 0.168561
O12   O     O_3   0.681871 0.854158 0.570010 -0.575124
C48   C     C_3   0.662139 0.864515 0.642918 -0.282654
H54   H     H_    0.702233 0.960959 0.662850 0.182333
H55   H     H_    0.561074 0.854125 0.658046 0.146220
H56   H     H_    0.713034 0.780701 0.669105 0.170794

loop_
_geom_bond_atom_site_label_1
_geom_bond_atom_site_label_2
_ccdc_geom_bond_type
C37   C38   S    
C7    H1    S    
C6    O7    A    
C46   H48   S    
C14   N1    A    
C4    C25   S    
C40   H30   S    
C31   C32   S    
C24   C43   S    
C3    N4    A    
N3    N5    A    
C16   O12   S    
C38   H26   S    
C32   H11   S    
C45   H45   S    
C37   H29   S    
C2    O3    A    
C29   H8    S    
C15   O11   S    
C47   H51   S    
O2    Zn2   S    
C23   C26   A    
O10   C46   S    
C48   H56   S    
C41   H38   S    
C5    C27   S    
C39   C40   S    
C6    C28   S    
C33   H19   S    
C19   C33   S    
C43   H43   S    
C30   H6    S    
C35   C36   S    
C15   N2    A    
C18   C31   S    
O7    Zn1   S    
C5    O5    A    
C4    N3    A    
C6    O6    A    
C20   C35   S    
C1    C12   S    
C39   H34   S    
C2    C11   S    
C40   H31   S    
C7    C12   A    
O8    Zn2   S    
C30   H7    S    
C17   C27   A    
C34   H17   S    
C20   C24   A    
C18   C28   A    
C24   C25   A    
C13   O9    S    
C17   C29   S    
C41   C42   S    
C36   H21   S    
C9    H3    S    
C38   H25   S    
C32   H12   S    
C29   H9    S    
C42   H37   S    
C17   C21   A    
C34   H16   S    
C19   C23   A    
C10   H4    S    
C16   N1    A    
C44   H40   S    
C14   C15   A    
C42   H36   S    
C30   H5    S    
O3    Zn1   S    
C46   H49   S    
O4    Zn2   S    
C41   H39   S    
C19   C28   A    
C9    C11   A    
C48   H54   S    
C10   C12   A    
C44   H41   S    
C4    N6    A    
C43   C44   S    
C35   H24   S    
N1    Zn1   S    
C23   C41   S    
N2    Zn2   S    
C39   H33   S    
O12   C48   S    
O1    Zn1   S    
C5    O8    A    
C40   H32   S    
C7    C9    A    
C21   C25   A    
C33   H18   S    
C18   C22   A    
C3    C26   S    
C36   H22   S    
C20   C27   A    
O9    C45   S    
C47   H53   S    
C8    H2    S    
C34   H15   S    
N4    N6    A    
C13   N2    A    
C38   H27   S    
C32   H10   S    
C45   H46   S    
C37   H28   S    
C8    C11   A    
C14   O10   S    
C42   H35   S    
C47   H52   S    
C46   H50   S    
C31   H14   S    
C48   H55   S    
C1    O1    A    
C33   C34   S    
C2    O2    A    
C1    O4    A    
C36   H20   S    
C44   H42   S    
C3    N5    A    
C8    C10   A    
C29   C30   S    
C22   C26   A    
C13   C16   A    
C21   C37   S    
C35   H23   S    
C31   H13   S    
O11   C47   S    
O5    Zn1   S    
C43   H44   S    
O6    Zn2   S    
C22   C39   S    
C45   H47   S    
