data_mof_unit_55785.cif
_audit_creation_date              2012-12-10T17:38:59-0500
_audit_creation_method            fapswitch 2.2
_symmetry_space_group_name_H-M    P1
_symmetry_Int_Tables_number       1
_space_group_crystal_system       triclinic
_cell_length_a                    12.067359
_cell_length_b                    12.81211
_cell_length_c                    23.036825
_cell_angle_alpha                 90.654594
_cell_angle_beta                  86.861345
_cell_angle_gamma                 94.015268
_cell_volume                      3547.51006514

loop_
_atom_site_label
_atom_site_type_symbol
_atom_type_description
_atom_site_fract_x
_atom_site_fract_y
_atom_site_fract_z
_atom_type_partial_charge
C1    C     C_R   0.522606 0.700095 0.497817 0.935937
C2    C     C_R   0.503401 0.367387 0.311906 -0.281367
C3    C     C_R   0.579549 0.518712 0.766579 0.421376
C4    C     C_R   0.489530 0.335986 0.254467 0.441800
C5    C     C_R   0.493063 0.452024 0.793013 0.135514
C6    C     C_R   0.473001 0.412576 0.212920 0.136300
C7    C     C_R   0.463467 0.188272 0.509205 -0.198500
C8    C     C_R   0.538133 0.811758 0.494471 -0.173791
C9    C     C_R   0.622771 0.970150 0.450129 0.368868
C10   C     C_R   0.398041 0.033226 0.563653 0.456038
C11   C     C_R   0.616173 0.860448 0.454352 0.069121
C12   C     C_R   0.477349 0.299828 0.502677 0.888382
C13   C     C_R   0.393393 0.140737 0.553586 0.073213
C14   C     C_R   0.468510 0.868051 0.530538 -0.193101
C15   C     C_R   0.535208 0.131603 0.474700 -0.181037
C16   C     C_R   0.500358 0.499392 0.610883 0.881042
C17   C     C_R   0.499342 0.498936 0.389312 0.872343
C18   C     C_R   0.469948 0.975567 0.526566 -0.052022
C19   C     C_R   0.543450 0.026059 0.483626 -0.025508
C20   C     C_R   0.951286 0.414565 0.438959 0.110719
C21   C     C_R   0.048675 0.582507 0.562988 0.116345
C22   C     C_R   0.836199 0.421740 0.446338 -0.034080
C23   C     C_R   0.409196 0.406189 0.759503 -0.096628
C24   C     C_R   0.164115 0.581540 0.552436 -0.076849
C25   C     C_R   0.857638 0.538043 0.526506 0.296836
C26   C     C_R   0.140405 0.455626 0.476725 0.298552
C27   C     C_R   0.975742 0.529700 0.523791 -0.063165
C28   C     C_R   0.022912 0.466005 0.479226 -0.095799
C29   C     C_R   0.560772 0.361903 0.121220 0.650570
C30   C     C_R   0.393769 0.460550 0.886320 0.556182
C31   C     C_R   0.370366 0.402738 0.126597 0.554818
C32   C     C_R   0.565744 0.378833 0.878185 0.650100
C33   C     C_R   0.369095 0.404074 0.066180 -0.049165
C34   C     C_R   0.464920 0.517452 0.230070 -0.110955
C35   C     C_R   0.562109 0.363854 0.938220 -0.055064
C36   C     C_R   0.465253 0.380195 0.032782 -0.051663
C37   C     C_R   0.467724 0.391124 0.971993 -0.049287
C38   C     C_R   0.560208 0.349629 0.060235 -0.137674
C39   C     C_R   0.377214 0.432041 0.945187 -0.127506
C40   C     C_R   0.274756 0.431911 0.038927 -0.213203
C41   C     C_R   0.650715 0.322410 0.964756 -0.189503
C42   C     C_R   0.276634 0.445259 0.978864 0.374452
C43   C     C_R   0.651409 0.314325 0.025173 0.386563
C44   C     C_3   0.231129 0.367713 0.391867 -0.579009
C45   C     C_R   0.409749 0.425960 0.700682 -0.199961
C46   C     C_3   0.821241 0.719457 0.547315 -0.636117
C47   C     C_3   0.958503 0.263357 0.373999 -0.584106
C48   C     C_3   0.994050 0.559532 0.664133 -0.673195
C49   C     C_3   0.209983 0.205271 0.574918 -0.589318
C50   C     C_3   0.635548 0.778994 0.359175 -0.665081
C51   C     C_R   0.472929 0.546712 0.287928 -0.216939
C52   C     C_R   0.498160 0.486461 0.673527 -0.099492
C53   C     C_R   0.494174 0.471994 0.328491 -0.097938
C54   C     C_R   0.583289 0.532136 0.706268 -0.262727
H1    H     H_    0.199571 0.445988 0.064793 0.237910
H2    H     H_    0.517429 0.309762 0.344351 0.178489
H3    H     H_    0.584883 0.172781 0.440686 0.234193
H4    H     H_    0.409513 0.825183 0.559874 0.227895
H5    H     H_    0.138298 0.295113 0.461138 0.215118
H6    H     H_    0.230716 0.447136 0.372983 0.241282
H7    H     H_    0.316214 0.340567 0.391051 0.234437
H8    H     H_    0.184874 0.311236 0.363823 0.224477
H9    H     H_    0.805121 0.596472 0.607858 0.243135
H10   H     H_    0.903716 0.753947 0.559170 0.240721
H11   H     H_    0.756004 0.764387 0.569842 0.242033
H12   H     H_    0.721533 0.298633 0.938229 0.237210
H13   H     H_    0.815412 0.727304 0.499772 0.232073
H14   H     H_    0.988332 0.419270 0.351004 0.247658
H15   H     H_    0.006203 0.235598 0.334944 0.242653
H16   H     H_    0.869048 0.255958 0.364694 0.285873
H17   H     H_    0.974676 0.213123 0.411127 0.270103
H18   H     H_    0.053844 0.698648 0.625736 0.265463
H19   H     H_    0.955021 0.600122 0.702024 0.287660
H20   H     H_    0.075844 0.533918 0.676165 0.245778
H21   H     H_    0.938770 0.489753 0.653350 0.240070
H22   H     H_    0.036895 0.363254 0.999959 0.391556
H23   H     H_    0.219667 0.624313 0.581018 0.168423
H24   H     H_    0.785636 0.130843 0.988921 0.370398
H25   H     H_    0.564973 0.659347 0.868950 0.367055
H26   H     H_    0.337166 0.186979 0.191291 0.367334
H27   H     H_    0.360669 0.272246 0.604130 0.219883
H28   H     H_    0.193579 0.286229 0.563015 0.205833
H29   H     H_    0.153664 0.182031 0.612936 0.268841
H30   H     H_    0.190231 0.151699 0.537977 0.227990
H31   H     H_    0.764206 0.806942 0.416632 0.274983
H32   H     H_    0.679271 0.715650 0.336392 0.243540
H33   H     H_    0.648190 0.851169 0.332808 0.265419
H34   H     H_    0.781008 0.384396 0.415728 0.171847
H35   H     H_    0.545364 0.754653 0.363563 0.209335
H36   H     H_    0.627823 0.041630 0.332800 0.381503
H37   H     H_    0.352597 0.851709 0.685094 0.394204
H38   H     H_    0.341983 0.356275 0.779575 0.190443
H39   H     H_    0.451642 0.576258 0.198250 0.175567
H40   H     H_    0.341818 0.392223 0.676313 0.164709
H41   H     H_    0.463336 0.627148 0.300822 0.152905
H42   H     H_    0.650189 0.580871 0.685090 0.179239
N1    N     N_R   0.466619 0.387072 0.152563 -0.348822
N2    N     N_2   0.679103 0.796612 0.415913 -0.290711
N3    N     N_R   0.485599 0.431831 0.854151 -0.353452
N4    N     N_R   0.207800 0.519350 0.510590 -0.129033
N5    N     N_R   0.792200 0.480650 0.489410 -0.134657
N6    N     N_2   0.184270 0.364048 0.451128 -0.280542
N7    N     N_2   0.804894 0.610587 0.564009 -0.267351
N8    N     N_2   0.994438 0.371157 0.386107 -0.347495
N9    N     N_2   0.008744 0.630215 0.615325 -0.329483
N10   N     N_2   0.324424 0.201820 0.590460 -0.254140
O1    O     O_R   0.421690 0.658830 0.502820 -0.620640
O2    O     O_2   0.321943 0.519945 0.861479 -0.459465
O3    O     O_2   0.277566 0.421268 0.159459 -0.536711
O4    O     O_2   0.649010 0.341948 0.844104 -0.495710
O5    O     O_2   0.149084 0.584025 0.934211 -0.155434
O6    O     O_2   0.132077 0.405509 0.894715 -0.232890
O7    O     O_3   0.041040 0.440520 0.996935 -0.471161
O8    O     O_2   0.843021 0.335470 0.079223 -0.171737
O9    O     O_2   0.724027 0.175529 0.098909 -0.186744
O10   O     O_3   0.836135 0.191368 0.999783 -0.520250
O11   O     O_2   0.779833 0.527475 0.811048 -0.183305
O12   O     O_R   0.578310 0.341170 0.497180 -0.602074
O13   O     O_2   0.716330 0.691580 0.776961 -0.274289
O14   O     O_3   0.628970 0.616866 0.874620 -0.504659
O15   O     O_2   0.606756 0.173286 0.223902 -0.149765
O16   O     O_2   0.440903 0.137557 0.288018 -0.323246
O17   O     O_3   0.414207 0.171363 0.178922 -0.510847
O18   O     O_2   0.784151 0.122376 0.444529 -0.316581
O19   O     O_2   0.819976 0.972546 0.382284 -0.284506
O20   O     O_3   0.675384 0.097532 0.350995 -0.513956
O21   O     O_2   0.278949 0.051611 0.667897 -0.237466
O22   O     O_2   0.224179 0.906820 0.602903 -0.338520
O23   O     O_R   0.609320 0.646410 0.496030 -0.584650
O24   O     O_3   0.403853 0.896435 0.659325 -0.551761
O25   O     O_R   0.390680 0.353590 0.503970 -0.602242
O26   O     O_R   0.406170 0.506240 0.587240 -0.629859
O27   O     O_R   0.593830 0.493760 0.412760 -0.607751
O28   O     O_R   0.593790 0.493820 0.580450 -0.600984
O29   O     O_R   0.406210 0.506180 0.419550 -0.609164
O30   O     O_2   0.655291 0.355547 0.149012 -0.434326
S1    S     S_3+6 0.148442 0.470007 0.948917 0.128965
S2    S     S_3+6 0.765153 0.253565 0.053020 0.119997
S3    S     S_3+6 0.680107 0.590422 0.807083 0.083436
S4    S     S_3+6 0.489097 0.201109 0.237051 0.075347
S5    S     S_3+6 0.730861 0.039290 0.406562 -0.007916
S6    S     S_3+6 0.321276 0.973029 0.624712 0.028474
Zn1   Zn    Zn3+2 0.374720 0.508290 0.504530 0.955407
Zn2   Zn    Zn3+2 0.625280 0.491710 0.495470 0.982112

loop_
_geom_bond_atom_site_label_1
_geom_bond_atom_site_label_2
_ccdc_geom_bond_type
C23   C45   A    
C12   O25   A    
C1    C8    S    
C41   C43   A    
C14   C18   A    
C34   H39   S    
C16   O28   A    
O23   Zn2   S    
C15   C19   A    
C34   C51   A    
C22   N5    A    
C32   O4    S    
C11   N2    S    
O15   S4    D    
C36   C37   A    
C35   C37   A    
C44   H6    S    
C1    O23   A    
C3    C54   A    
C33   C36   A    
C43   S2    S    
C18   C19   A    
C10   S6    S    
C47   H15   S    
H31   N2    S    
C9    C19   A    
C5    N3    S    
O19   S5    D    
C29   C38   A    
C17   O29   A    
C31   C33   A    
C22   H34   S    
C54   H42   S    
O26   Zn1   S    
C40   C42   A    
C21   C27   A    
C10   C13   A    
C42   S1    S    
C15   H3    S    
C48   H21   S    
O11   S3    D    
O24   S6    S    
C45   H40   S    
C48   H19   S    
C52   C54   A    
C39   C42   A    
O10   S2    S    
C31   O3    S    
C7    C12   S    
C14   H4    S    
C50   N2    S    
C33   C40   A    
C32   C35   A    
C48   H20   S    
C46   H11   S    
C4    C6    A    
H37   O24   S    
C44   N6    S    
C25   N7    S    
C20   C28   A    
C45   C52   A    
C44   H8    S    
C30   N3    A    
N4    Zn1   S    
C6    C34   A    
C46   H10   S    
C51   C53   A    
O21   S6    D    
C49   H28   S    
C16   O26   A    
C2    C4    A    
C6    N1    S    
C47   H16   S    
C4    S4    S    
C50   H35   S    
C48   N9    S    
C5    C23   A    
O9    S2    D    
C7    C13   A    
C40   H1    S    
H25   O14   S    
H22   O7    S    
H36   O20   S    
O14   S3    S    
C9    C11   A    
C47   H17   S    
C49   N10   S    
C50   H33   S    
C1    O1    A    
C12   O12   A    
O8    S2    D    
H9    N7    S    
C20   C22   A    
C17   O27   A    
O7    S1    S    
O18   S5    D    
C3    S3    S    
O12   Zn2   S    
O1    Zn1   S    
C36   C38   A    
C17   C53   S    
O25   Zn1   S    
O5    S1    D    
C49   H30   S    
H27   N10   S    
O27   Zn2   S    
C8    C14   A    
C47   N8    S    
C30   O2    S    
C24   N4    A    
H5    N6    S    
O6    S1    D    
H24   O10   S    
C16   C52   S    
C13   N10   S    
C3    C5    A    
C2    C53   A    
C41   H12   S    
C20   N8    S    
C44   H7    S    
C25   C27   A    
C46   N7    S    
O20   S5    S    
C26   C28   A    
C32   N3    A    
C29   N1    A    
O13   S3    D    
C49   H29   S    
H14   N8    S    
O16   S4    D    
C46   H13   S    
C37   C39   A    
C2    H2    S    
C26   N6    S    
C25   N5    A    
C10   C18   A    
C8    C11   A    
O17   S4    S    
C7    C15   A    
O29   Zn1   S    
N5    Zn2   S    
C30   C39   A    
C31   N1    A    
C35   C41   A    
C9    S5    S    
C50   H32   S    
O28   Zn2   S    
C24   H23   S    
C38   C43   A    
C29   O30   S    
H18   N9    S    
C21   C24   A    
C26   N4    A    
C27   C28   A    
C23   H38   S    
O22   S6    D    
C21   N9    S    
C51   H41   S    
H26   O17   S    
