data_mof_unit_5404.cif
_audit_creation_date              2012-12-11T14:01:39-0500
_audit_creation_method            fapswitch 2.2
_symmetry_space_group_name_H-M    P1
_symmetry_Int_Tables_number       1
_space_group_crystal_system       triclinic
_cell_length_a                    19.059635
_cell_length_b                    10.969358
_cell_length_c                    18.896566
_cell_angle_alpha                 89.770518
_cell_angle_beta                  90.068251
_cell_angle_gamma                 89.946284
_cell_volume                      3950.70583922

loop_
_atom_site_label
_atom_site_type_symbol
_atom_type_description
_atom_site_fract_x
_atom_site_fract_y
_atom_site_fract_z
_atom_type_partial_charge
C1    C     C_R   0.272742 0.041667 0.853691 0.553651
C2    C     C_R   0.018695 0.663094 0.960281 -0.127061
C3    C     C_3   0.115968 0.129510 0.633696 -0.414200
C4    C     C_R   0.504386 0.167016 0.032355 -0.125920
C5    C     C_R   0.518695 0.163094 0.960281 -0.127060
C6    C     C_2   0.249290 0.580843 0.920746 -0.113284
C7    C     C_2   0.750803 0.581593 0.079312 -0.113371
C8    C     C_2   0.749290 0.080843 0.920746 -0.113284
C9    C     C_2   0.250803 0.081593 0.079312 -0.113371
C10   C     C_2   0.249191 0.586359 0.076926 -0.106992
C11   C     C_2   0.750663 0.585945 0.922901 -0.107668
C12   C     C_2   0.749191 0.086359 0.076926 -0.106992
C13   C     C_R   0.727225 0.041923 0.146280 0.556786
C14   C     C_2   0.250663 0.085945 0.922901 -0.107668
C15   C     C_2   0.294475 0.521966 0.037430 -0.165220
C16   C     C_2   0.705850 0.521207 0.962965 -0.164132
C17   C     C_2   0.794475 0.021966 0.037430 -0.165220
C18   C     C_2   0.205850 0.021207 0.962965 -0.164132
C19   C     C_2   0.303692 0.547629 0.961800 -0.162010
C20   C     C_2   0.696530 0.547552 0.038455 -0.162195
C21   C     C_2   0.803692 0.047629 0.961800 -0.162010
C22   C     C_2   0.196530 0.047552 0.038455 -0.162195
C23   C     C_2   0.490280 0.830585 0.573900 -0.111456
C24   C     C_R   0.772742 0.541667 0.853691 0.553651
C25   C     C_2   0.494166 0.833550 0.418478 -0.123856
C26   C     C_2   0.990280 0.330585 0.573900 -0.111456
C27   C     C_2   0.994167 0.333550 0.418478 -0.123856
C28   C     C_2   0.488169 0.733270 0.457952 -0.172239
C29   C     C_2   0.471653 0.737732 0.531841 -0.165656
C30   C     C_2   0.988169 0.233270 0.457952 -0.172239
C31   C     C_2   0.971653 0.237732 0.531841 -0.165657
C32   C     C_2   0.248104 0.581586 0.582047 -0.119673
C33   C     C_2   0.744975 0.612131 0.429377 -0.115489
C34   C     C_2   0.748104 0.081587 0.582047 -0.119673
C35   C     C_R   0.227225 0.541923 0.146280 0.556786
C36   C     C_2   0.244975 0.112131 0.429377 -0.115489
C37   C     C_2   0.249681 0.602495 0.414253 0.024263
C38   C     C_2   0.740380 0.614602 0.588457 0.011759
C39   C     C_2   0.749681 0.102495 0.414253 0.024263
C40   C     C_2   0.240380 0.114602 0.588457 0.011759
C41   C     C_R   0.470907 0.821785 0.853531 0.538172
C42   C     C_R   0.528651 0.822656 0.146745 0.539872
C43   C     C_R   0.970907 0.321785 0.853531 0.538172
C44   C     C_R   0.028651 0.322656 0.146745 0.539872
C45   C     C_2   0.203242 0.608641 0.467978 -0.004395
C46   C     C_R   0.494945 0.059067 0.070352 -0.082829
C47   C     C_2   0.780023 0.686902 0.545189 -0.014880
C48   C     C_2   0.703241 0.108641 0.467978 -0.004395
C49   C     C_2   0.280023 0.186902 0.545189 -0.014879
C50   C     C_2   0.225926 0.658348 0.532738 -0.130224
C51   C     C_2   0.756638 0.706930 0.472573 -0.131710
C52   C     C_2   0.725925 0.158348 0.532738 -0.130224
C53   C     C_2   0.256638 0.206930 0.472573 -0.131709
C54   C     C_R   0.261148 0.636578 0.851609 0.550962
C55   C     C_R   0.738837 0.636989 0.148353 0.553786
C56   C     C_R   0.761147 0.136578 0.851609 0.550962
C57   C     C_R   0.519096 0.051733 0.925025 -0.087914
C58   C     C_R   0.238837 0.136989 0.148353 0.553786
C59   C     C_R   0.271423 0.048619 0.648939 0.556187
C60   C     C_R   0.727534 0.046610 0.350374 0.552266
C61   C     C_R   0.771423 0.548619 0.648939 0.556187
C62   C     C_R   0.227534 0.546610 0.350374 0.552266
C63   C     C_R   0.468127 0.823593 0.646635 0.546237
C64   C     C_R   0.528891 0.823803 0.351224 0.542879
C65   C     C_R   0.968127 0.323593 0.646635 0.546237
C66   C     C_R   0.028891 0.323803 0.351224 0.542879
C67   C     C_R   0.259709 0.633596 0.649065 0.549402
C68   C     C_R   0.994945 0.559067 0.070352 -0.082829
C69   C     C_R   0.738692 0.639956 0.355185 0.540336
C70   C     C_R   0.759709 0.133596 0.649065 0.549403
C71   C     C_R   0.238692 0.139956 0.355185 0.540336
C72   C     C_R   0.500052 0.832441 0.074802 -0.000639
C73   C     C_R   0.497161 0.828872 0.926356 0.002034
C74   C     C_R   0.000052 0.332441 0.074802 -0.000639
C75   C     C_R   0.997161 0.328872 0.926356 0.002034
C76   C     C_R   0.500014 0.944497 0.036585 0.026211
C77   C     C_R   0.505530 0.941722 0.961793 0.025368
C78   C     C_R   0.000014 0.444497 0.036585 0.026211
C79   C     C_R   0.019096 0.551733 0.925025 -0.087914
C80   C     C_R   0.005530 0.441722 0.961793 0.025368
C81   C     C_R   0.493389 0.720583 0.965736 -0.151528
C82   C     C_R   0.493548 0.722521 0.038211 -0.153991
C83   C     C_R   0.993389 0.220583 0.965736 -0.151528
C84   C     C_R   0.993548 0.222521 0.038211 -0.153991
C85   C     C_3   0.130158 0.552588 0.470339 -0.239073
C86   C     C_3   0.074188 0.651165 0.460022 -0.408656
C87   C     C_3   0.853251 0.733892 0.564667 -0.248626
C88   C     C_3   0.886142 0.823827 0.511978 -0.463392
C89   C     C_3   0.630157 0.052587 0.470338 -0.239074
C90   C     C_R   0.004386 0.667016 0.032355 -0.125919
C91   C     C_3   0.574187 0.151165 0.460022 -0.408656
C92   C     C_3   0.353250 0.233893 0.564668 -0.248626
C93   C     C_3   0.386142 0.323828 0.511978 -0.463392
C94   C     C_3   0.321267 0.662354 0.415105 -0.284591
C95   C     C_3   0.314200 0.801115 0.410397 -0.429550
C96   C     C_3   0.662991 0.588277 0.572977 -0.293213
C97   C     C_3   0.615968 0.629509 0.633696 -0.414199
C98   C     C_3   0.821267 0.162354 0.415105 -0.284591
C99   C     C_3   0.814200 0.301115 0.410398 -0.429550
C100  C     C_3   0.162991 0.088277 0.572977 -0.293214
Cr1   Cr    Cr6+3 0.230530 0.836340 0.748870 1.003076
Cr2   Cr    Cr6+3 0.614360 0.677860 0.250770 1.011137
Cr3   Cr    Cr6+3 0.885640 0.177860 0.749230 1.004608
Cr4   Cr    Cr6+3 0.114360 0.177860 0.250770 1.011137
Cr5   Cr    Cr6+3 0.769470 0.836340 0.251130 1.005844
Cr6   Cr    Cr6+3 0.730530 0.336340 0.748870 1.003076
Cr7   Cr    Cr6+3 0.269470 0.336340 0.251130 1.005844
Cr8   Cr    Cr6+3 0.387420 0.989430 0.750820 1.007642
Cr9   Cr    Cr6+3 0.612580 0.989430 0.249180 1.002254
Cr10  Cr    Cr6+3 0.887420 0.489430 0.750820 1.007642
Cr11  Cr    Cr6+3 0.112580 0.489430 0.249180 1.002254
Cr12  Cr    Cr6+3 0.385640 0.677860 0.749230 1.004608
H1    H     H_    0.256480 0.484949 0.572691 0.084881
H2    H     H_    0.446373 0.656334 0.552618 0.153421
H3    H     H_    0.997802 0.142874 0.436695 0.153938
H4    H     H_    0.946373 0.156334 0.552618 0.153421
H5    H     H_    0.480768 0.922740 0.438784 0.098256
H6    H     H_    0.515040 0.912697 0.554033 0.087251
H7    H     H_    0.980769 0.422740 0.438784 0.098256
H8    H     H_    0.015040 0.412697 0.554033 0.087251
H9    H     H_    0.487367 0.632504 0.940714 0.136054
H10   H     H_    0.492002 0.635518 0.065551 0.136674
H11   H     H_    0.987367 0.132504 0.940714 0.136054
H12   H     H_    0.741490 0.519129 0.448535 0.077016
H13   H     H_    0.992002 0.135518 0.065551 0.136674
H14   H     H_    0.080732 0.724356 0.499962 0.139331
H15   H     H_    0.077860 0.692014 0.406351 0.178673
H16   H     H_    0.021092 0.611916 0.466851 0.118011
H17   H     H_    0.123523 0.477296 0.432304 0.174152
H18   H     H_    0.121679 0.509180 0.522868 0.124171
H19   H     H_    0.893911 0.779888 0.459698 0.168436
H20   H     H_    0.852868 0.906172 0.505717 0.143524
H21   H     H_    0.938270 0.853116 0.531968 0.128771
H22   H     H_    0.850281 0.781135 0.616518 0.164893
H23   H     H_    0.756481 0.984950 0.572690 0.084881
H24   H     H_    0.889982 0.655420 0.568646 0.175644
H25   H     H_    0.580732 0.224356 0.499961 0.139331
H26   H     H_    0.577860 0.192013 0.406351 0.178673
H27   H     H_    0.521092 0.111915 0.466851 0.118011
H28   H     H_    0.623522 0.977296 0.432304 0.174152
H29   H     H_    0.621679 0.009179 0.522868 0.124171
H30   H     H_    0.393911 0.279890 0.459699 0.168435
H31   H     H_    0.352867 0.406174 0.505717 0.143525
H32   H     H_    0.438269 0.353119 0.531969 0.128771
H33   H     H_    0.350280 0.281136 0.616518 0.164893
H34   H     H_    0.241490 0.019129 0.448535 0.077016
H35   H     H_    0.389982 0.155421 0.568647 0.175644
H36   H     H_    0.219397 0.755802 0.541376 0.144580
H37   H     H_    0.758069 0.799504 0.451755 0.150443
H38   H     H_    0.719395 0.255802 0.541376 0.144580
H39   H     H_    0.258069 0.299505 0.451755 0.150443
H40   H     H_    0.360703 0.841096 0.384175 0.148375
H41   H     H_    0.267647 0.827879 0.378405 0.152167
H42   H     H_    0.309824 0.840360 0.464231 0.144248
H43   H     H_    0.350440 0.635175 0.463466 0.143468
H44   H     H_    0.352786 0.630935 0.369132 0.150735
H45   H     H_    0.001419 0.753938 0.059123 0.106049
H46   H     H_    0.561542 0.600078 0.622427 0.160596
H47   H     H_    0.631416 0.588304 0.685035 0.169793
H48   H     H_    0.617767 0.730323 0.638546 0.145245
H49   H     H_    0.643127 0.635311 0.524899 0.155455
H50   H     H_    0.655960 0.488837 0.564348 0.143223
H51   H     H_    0.860703 0.341096 0.384177 0.148375
H52   H     H_    0.767647 0.327879 0.378405 0.152167
H53   H     H_    0.809823 0.340359 0.464231 0.144248
H54   H     H_    0.850440 0.135175 0.463466 0.143467
H55   H     H_    0.852786 0.130936 0.369132 0.150735
H56   H     H_    0.028365 0.746767 0.931340 0.108259
H57   H     H_    0.061541 0.100081 0.622426 0.160597
H58   H     H_    0.131416 0.088303 0.685034 0.169794
H59   H     H_    0.117768 0.230323 0.638547 0.145245
H60   H     H_    0.143126 0.135311 0.524899 0.155455
H61   H     H_    0.155960 0.988837 0.564349 0.143223
H62   H     H_    0.481856 0.066837 0.125777 0.131239
H63   H     H_    0.531628 0.052636 0.869242 0.128173
H64   H     H_    0.981856 0.566837 0.125777 0.131239
H65   H     H_    0.031628 0.552636 0.869242 0.128173
H66   H     H_    0.324635 0.447419 0.060204 0.152419
H67   H     H_    0.501419 0.253938 0.059123 0.106049
H68   H     H_    0.676115 0.446045 0.940759 0.151705
H69   H     H_    0.824635 0.947419 0.060204 0.152419
H70   H     H_    0.176116 0.946045 0.940759 0.151705
H71   H     H_    0.356431 0.541545 0.940387 0.150241
H72   H     H_    0.643807 0.541125 0.059924 0.153179
H73   H     H_    0.856431 0.041545 0.940387 0.150241
H74   H     H_    0.143807 0.041125 0.059924 0.153179
H75   H     H_    0.220803 0.663096 0.054184 0.113930
H76   H     H_    0.778651 0.663182 0.945106 0.113734
H77   H     H_    0.720803 0.163096 0.054184 0.113930
H78   H     H_    0.528364 0.246767 0.931340 0.108259
H79   H     H_    0.278651 0.163182 0.945106 0.113734
H80   H     H_    0.196395 0.583354 0.942166 0.113846
H81   H     H_    0.803668 0.584515 0.057837 0.112507
H82   H     H_    0.696395 0.083354 0.942166 0.113846
H83   H     H_    0.303668 0.084515 0.057837 0.112507
H84   H     H_    0.497802 0.642874 0.436695 0.153939
O1    O     O_R   0.215090 0.709860 0.828130 -0.523310
O2    O     O_R   0.543740 0.718170 0.330000 -0.517678
O3    O     O_R   0.956260 0.218170 0.670000 -0.530064
O4    O     O_R   0.043740 0.218170 0.330000 -0.517677
O5    O     O_R   0.320940 0.626760 0.674370 -0.503369
O6    O     O_R   0.679060 0.626760 0.325630 -0.498304
O7    O     O_R   0.820940 0.126760 0.674370 -0.503369
O8    O     O_R   0.179060 0.126760 0.325630 -0.498304
O9    O     O_3   0.334530 0.834540 0.749640 -0.240801
O10   O     O_3   0.665470 0.834540 0.250360 -0.245665
O11   O     O_3   0.834530 0.334540 0.749640 -0.240801
O12   O     O_R   0.784910 0.709860 0.171870 -0.520958
O13   O     O_3   0.165470 0.334540 0.250360 -0.245665
O14   O     O_R   0.236990 0.958390 0.823710 -0.502321
O15   O     O_R   0.763010 0.958390 0.176290 -0.498777
O16   O     O_R   0.736990 0.458390 0.823710 -0.502321
O17   O     O_R   0.263010 0.458390 0.176290 -0.498777
O18   O     O_R   0.332380 0.074750 0.830850 -0.511972
O19   O     O_R   0.667620 0.074750 0.169150 -0.512562
O20   O     O_R   0.832380 0.574750 0.830850 -0.511972
O21   O     O_R   0.167620 0.574750 0.169150 -0.512562
O22   O     O_R   0.445800 0.917770 0.825070 -0.504739
O23   O     O_R   0.715090 0.209860 0.828130 -0.523310
O24   O     O_R   0.554200 0.917770 0.174930 -0.507696
O25   O     O_R   0.945800 0.417770 0.825070 -0.504739
O26   O     O_R   0.054200 0.417770 0.174930 -0.507696
O27   O     O_R   0.456410 0.716580 0.829970 -0.526602
O28   O     O_R   0.543590 0.716580 0.170030 -0.524454
O29   O     O_R   0.956410 0.216580 0.829970 -0.526602
O30   O     O_R   0.043590 0.216580 0.170030 -0.524454
O31   O     O_R   0.321080 0.625290 0.822650 -0.498037
O32   O     O_R   0.678920 0.625290 0.177350 -0.495793
O33   O     O_R   0.821080 0.125290 0.822650 -0.498037
O34   O     O_R   0.284910 0.209860 0.171870 -0.520958
O35   O     O_R   0.178920 0.125290 0.177350 -0.495793
O36   O     O_R   0.214930 0.711450 0.668160 -0.517811
O37   O     O_R   0.785070 0.711450 0.331840 -0.516473
O38   O     O_R   0.714930 0.211450 0.668160 -0.517811
O39   O     O_R   0.285070 0.211450 0.331840 -0.516473
O40   O     O_R   0.236850 0.959870 0.675420 -0.505115
O41   O     O_R   0.763150 0.959870 0.324580 -0.516883
O42   O     O_R   0.736850 0.459870 0.675420 -0.505115
O43   O     O_R   0.263150 0.459870 0.324580 -0.516883
O44   O     O_R   0.332230 0.076350 0.670880 -0.537713
O45   O     O_R   0.445660 0.919250 0.676780 -0.500517
O46   O     O_R   0.667770 0.076350 0.329120 -0.525411
O47   O     O_R   0.832230 0.576350 0.670880 -0.537713
O48   O     O_R   0.167770 0.576350 0.329120 -0.525411
O49   O     O_R   0.554340 0.919250 0.323220 -0.512783
O50   O     O_R   0.945660 0.419250 0.676780 -0.500517
O51   O     O_R   0.054340 0.419250 0.323220 -0.512782
O52   O     O_R   0.456260 0.718170 0.670000 -0.530064

loop_
_geom_bond_atom_site_label_1
_geom_bond_atom_site_label_2
_ccdc_geom_bond_type
Cr3   O33   S    
C65   O50   A    
C49   C53   S    
C61   O47   A    
Cr11  O48   S    
C64   O2    A    
C86   H14   S    
C13   O15   A    
C45   C85   S    
C59   O40   A    
C7    C55   S    
C72   C76   A    
C3    H59   S    
C8    C56   S    
C23   H6    S    
C46   C76   A    
C37   C62   S    
C68   H64   S    
Cr2   O28   S    
Cr5   O10   S    
C4    C46   A    
C85   C86   S    
C25   C28   D    
C15   C19   S    
C55   O12   A    
Cr3   O29   S    
C54   O1    A    
C39   C48   D    
C67   O5    A    
C61   O42   A    
C23   C29   D    
C28   C29   S    
C43   O25   A    
C26   H8    S    
C88   H21   S    
C48   C52   S    
C42   O24   A    
C10   C15   D    
Cr2   O2    S    
C30   C31   S    
C14   C18   D    
C78   C80   A    
C9    C22   D    
C12   H77   S    
C18   H70   S    
C50   H36   S    
C40   C49   D    
C63   O45   A    
C35   O21   A    
C11   C24   S    
C70   O7    A    
C96   H49   S    
C16   H68   S    
C9    C58   S    
C70   O38   A    
C2    C90   A    
C69   O37   A    
C58   O35   A    
C29   H2    S    
C85   H17   S    
C91   H25   S    
C40   C59   S    
C3    C100  S    
C64   O49   A    
Cr8   O44   S    
C94   H43   S    
Cr8   O45   S    
C37   C94   S    
C33   H12   S    
C68   C90   A    
C46   H62   S    
C8    H82   S    
C10   C35   S    
C2    C79   A    
C71   O39   A    
C32   H1    S    
C7    H81   S    
C75   C80   A    
C34   C70   S    
C74   C78   A    
C98   H55   S    
C93   H31   S    
C36   C71   S    
C33   C69   S    
C20   H72   S    
C38   C61   S    
Cr8   O22   S    
Cr10  O50   S    
C23   C63   S    
Cr6   O23   S    
C1    O14   A    
Cr9   O49   S    
C69   O6    A    
Cr12  O31   S    
C65   O3    A    
C27   C30   D    
C68   C78   A    
Cr4   O4    S    
C87   H22   S    
C1    C14   S    
Cr9   O10   S    
Cr4   O13   S    
C6    C54   S    
C42   O28   A    
Cr10  O47   S    
C73   C81   A    
C41   O22   A    
C66   O51   A    
C43   C75   S    
C71   O8    A    
C86   H16   S    
C57   H63   S    
C97   H48   S    
C57   C77   A    
C76   C77   A    
C98   H54   S    
C19   H71   S    
Cr6   O11   S    
C3    H57   S    
Cr4   O35   S    
C47   C51   S    
Cr3   O11   S    
Cr9   O19   S    
C79   H65   S    
Cr7   O43   S    
C81   C82   A    
C62   O43   A    
C11   H76   S    
C81   H9    S    
C95   H41   S    
Cr11  O26   S    
C47   C87   S    
C55   O32   A    
C22   H74   S    
Cr10  O20   S    
Cr11  O13   S    
C40   C100  S    
C58   O34   A    
C36   C53   D    
C85   H18   S    
C91   H26   S    
C35   O17   A    
C11   C16   D    
C86   H15   S    
C2    H56   S    
C83   C84   A    
Cr7   O17   S    
Cr8   O18   S    
C16   C20   S    
C89   H28   S    
Cr6   O16   S    
C96   C97   S    
Cr1   O40   S    
C42   C72   S    
C10   H75   S    
Cr3   O3    S    
C44   C74   S    
Cr2   O10   S    
C32   C50   D    
C38   C47   D    
Cr10  O11   S    
C93   H32   S    
Cr1   O9    S    
C32   C67   S    
C91   H27   S    
C14   H79   S    
Cr4   O8    S    
C94   H44   S    
C95   H40   S    
C41   O27   A    
C67   O36   A    
C98   C99   S    
C48   C89   S    
Cr9   O24   S    
Cr2   O32   S    
C72   C82   A    
Cr12  O27   S    
C99   H51   S    
C15   H66   S    
C89   C91   S    
C88   H20   S    
C49   C92   S    
C37   C45   D    
Cr4   O30   S    
C34   C52   D    
C97   H47   S    
C31   H4    S    
C100  H61   S    
C100  H60   S    
Cr5   O12   S    
C24   O16   A    
C84   H13   S    
Cr12  O52   S    
Cr7   O39   S    
Cr5   O41   S    
Cr6   O38   S    
C92   H33   S    
C18   C22   S    
C26   C65   S    
Cr5   O37   S    
C87   H24   S    
Cr12  O9    S    
C74   C84   A    
Cr8   O9    S    
C39   C98   S    
C8    C21   D    
C62   O48   A    
C5    H78   S    
Cr12  O5    S    
C30   H3    S    
C9    H83   S    
C3    H58   S    
C21   H73   S    
Cr7   O13   S    
C27   H7    S    
Cr1   O14   S    
C33   C51   D    
Cr11  O21   S    
C82   H10   S    
C60   O46   A    
C99   H52   S    
Cr5   O15   S    
C5    C57   A    
C95   H42   S    
C97   H46   S    
C13   O19   A    
C90   H45   S    
C59   O44   A    
Cr2   O6    S    
C27   C66   S    
C36   H34   S    
C12   C17   D    
C45   C50   S    
C24   O20   A    
C75   C83   A    
Cr9   O46   S    
C89   H29   S    
C4    C5    A    
C92   C93   S    
C28   H84   S    
C96   H50   S    
C56   O33   A    
Cr1   O36   S    
Cr1   O1    S    
Cr11  O51   S    
C25   H5    S    
C94   C95   S    
C39   C60   S    
Cr3   O7    S    
C54   O31   A    
C38   C96   S    
C41   C73   S    
C79   C80   A    
C17   H69   S    
C26   C31   D    
C44   O26   A    
C12   C13   S    
C51   H37   S    
C87   C88   S    
C52   H38   S    
C7    C20   D    
Cr6   O42   S    
Cr7   O34   S    
C6    H80   S    
C1    O18   A    
C53   H39   S    
C92   H35   S    
C73   C77   A    
C34   H23   S    
C60   O41   A    
C4    H67   S    
C88   H19   S    
C83   H11   S    
Cr10  O25   S    
C44   O30   A    
C6    C19   D    
C25   C64   S    
C56   O23   A    
C66   O4    A    
C93   H30   S    
C43   O29   A    
C63   O52   A    
C99   H53   S    
C17   C21   S    
