data_mof_unit_17622.cif
_audit_creation_date              2013-03-05T16:36:13-0500
_audit_creation_method            fapswitch 2.2
_symmetry_space_group_name_H-M    P1
_symmetry_Int_Tables_number       1
_space_group_crystal_system       triclinic
_cell_length_a                    27.743092
_cell_length_b                    9.097719
_cell_length_c                    7.767342
_cell_angle_alpha                 90.002762
_cell_angle_beta                  90.014318
_cell_angle_gamma                 90.702743
_cell_volume                      1960.32070572

loop_
_atom_site_label
_atom_site_type_symbol
_atom_site_description
_atom_site_fract_x
_atom_site_fract_y
_atom_site_fract_z
_atom_type_partial_charge
O1    O     O_R   0.500000 0.288390 0.642760 -0.574798
O2    O     O_R   0.500000 0.711610 0.357240 -0.574780
O3    O     O_R   0.500000 0.711610 0.642760 -0.574791
O4    O     O_R   0.500000 0.288390 0.357240 -0.574781
C1    C     C_R   0.499961 0.219940 0.499997 0.851084
C2    C     C_R   0.500039 0.780060 0.500003 0.851101
O5    O     O_R   0.430260 0.500000 0.642770 -0.581842
O6    O     O_R   0.569740 0.500000 0.357230 -0.580622
O7    O     O_R   0.569740 0.500000 0.642770 -0.581872
O8    O     O_R   0.430260 0.500000 0.357230 -0.580673
C3    C     C_R   0.407113 0.499300 0.500070 0.813324
C4    C     C_R   0.592887 0.500684 0.500118 0.813285
Cu1   Cu    Cu3+1 0.500000 0.500000 0.669080 1.027645
Cu2   Cu    Cu3+1 0.500000 0.500000 0.330920 1.028164
C5    C     C_R   0.176524 0.371476 0.565725 0.642258
C6    C     C_R   0.823503 0.628051 0.566759 0.642054
C7    C     C_R   0.177890 0.617048 0.455369 0.649571
C8    C     C_R   0.822082 0.382653 0.455825 0.649751
O9    O     O_2   0.201618 0.250106 0.605055 -0.507057
O10   O     O_2   0.798434 0.749314 0.606754 -0.507522
O11   O     O_2   0.204364 0.727375 0.386862 -0.504881
O12   O     O_2   0.795583 0.272467 0.387073 -0.505105
N1    N     N_R   0.200946 0.493185 0.508432 -0.437829
N2    N     N_R   0.799053 0.506479 0.509162 -0.437771
C9    C     C_R   0.278799 0.544914 0.651945 -0.013752
C10   C     C_R   0.721174 0.454883 0.652415 -0.013665
C11   C     C_R   0.277705 0.441772 0.358220 -0.013795
C12   C     C_R   0.722322 0.558095 0.358739 -0.014003
C13   C     C_R   0.329252 0.545153 0.647054 -0.212097
C14   C     C_R   0.670722 0.454713 0.647337 -0.212147
C15   C     C_R   0.328265 0.446871 0.357750 -0.213827
C16   C     C_R   0.671762 0.553049 0.358076 -0.213746
C17   C     C_R   0.252743 0.492224 0.506377 0.207032
C18   C     C_R   0.747257 0.507570 0.506964 0.207032
C19   C     C_R   0.101398 0.499828 0.523415 -0.041356
C20   C     C_R   0.898606 0.499742 0.523814 -0.041283
C21   C     C_R   0.125783 0.371285 0.576011 -0.061112
C22   C     C_R   0.874249 0.628232 0.576700 -0.061065
C23   C     C_R   0.127300 0.627518 0.470143 -0.082079
C24   C     C_R   0.872675 0.372099 0.470525 -0.082014
C25   C     C_R   0.098138 0.247189 0.632403 -0.048101
C26   C     C_R   0.901917 0.752300 0.633018 -0.047922
C27   C     C_R   0.101134 0.757484 0.430398 0.005647
C28   C     C_R   0.898815 0.242120 0.430636 0.005662
C29   C     C_R   0.354062 0.497523 0.501119 -0.085606
C30   C     C_R   0.645939 0.502396 0.501326 -0.085653
H1    H     H_    0.347917 0.409546 0.245789 0.205445
H2    H     H_    0.652127 0.590425 0.246067 0.205481
H3    H     H_    0.349630 0.584250 0.757256 0.205937
H4    H     H_    0.650323 0.415611 0.757445 0.205975
C31   C     C_R   0.974311 0.366394 0.507906 0.031193
C32   C     C_R   0.025683 0.633181 0.507937 0.031263
C33   C     C_R   0.975450 0.633049 0.537960 0.042776
C34   C     C_R   0.024559 0.366515 0.537748 0.042658
C35   C     C_R   0.949429 0.499591 0.523156 0.080458
C36   C     C_R   0.050573 0.499978 0.522973 0.080453
C37   C     C_R   0.948679 0.239200 0.459727 -0.191828
C38   C     C_R   0.051287 0.760394 0.459722 -0.191710
C39   C     C_R   0.951274 0.758618 0.594726 -0.235350
C40   C     C_R   0.048759 0.240926 0.594326 -0.235370
H5    H     H_    0.967800 0.138263 0.434517 0.157265
H6    H     H_    0.032150 0.861325 0.434617 0.157243
H7    H     H_    0.971824 0.856274 0.629155 0.178397
H8    H     H_    0.028216 0.143273 0.628743 0.178631
C41   C     C_1   0.499987 0.065346 0.499997 -0.153939
C42   C     C_1   0.500013 0.934654 0.500004 -0.153946
N3    N     N_1   0.500000 0.500000 0.076820 -0.039891
N4    N     N_1   0.500000 0.500000 0.923180 -0.039957
C43   C     C_2   0.252451 0.382736 0.202367 0.900212
O13   O     O_2   0.208621 0.388493 0.188771 -0.554193
O14   O     O_R   0.279203 0.320029 0.069071 -0.752259
H9    H     H_    0.258256 0.284458 0.970095 0.374158
C44   C     C_2   0.747605 0.617151 0.203003 0.900079
O15   O     O_2   0.791441 0.611532 0.189657 -0.554148
O16   O     O_R   0.720872 0.679731 0.069535 -0.752210
H10   H     H_    0.741837 0.715318 0.970656 0.374217
C45   C     C_2   0.254822 0.601438 0.810780 0.902090
O17   O     O_2   0.211235 0.589789 0.830448 -0.565747
O18   O     O_R   0.282568 0.668046 0.940254 -0.751556
H11   H     H_    0.262485 0.701014 0.041939 0.365516
C46   C     C_2   0.745120 0.398285 0.811314 0.902186
O19   O     O_2   0.788718 0.409574 0.830979 -0.565684
O20   O     O_R   0.717330 0.332009 0.940847 -0.751642
H12   H     H_    0.737396 0.298958 0.042570 0.365501
C47   C     C_2   0.117124 0.131256 0.748406 0.987292
O21   O     O_2   0.147500 0.162096 0.857129 -0.498324
O22   O     O_R   0.097262 0.989291 0.743375 -0.772546
H13   H     H_    0.112504 0.920887 0.830265 0.372421
C48   C     C_2   0.882984 0.868100 0.749227 0.987118
O23   O     O_2   0.852928 0.836883 0.858910 -0.498275
O24   O     O_R   0.902541 0.010412 0.743186 -0.772282
H14   H     H_    0.887378 0.078699 0.830374 0.372333
C49   C     C_2   0.123026 0.892773 0.355990 0.936340
O25   O     O_2   0.106916 0.942294 0.221674 -0.579781
O26   O     O_R   0.160107 0.967747 0.441833 -0.674101
H15   H     H_    0.171829 0.057284 0.375605 0.366241
C50   C     C_2   0.876865 0.106766 0.356505 0.937134
O27   O     O_2   0.892939 0.056972 0.222296 -0.579627
O28   O     O_R   0.839776 0.032026 0.442526 -0.673839
H16   H     H_    0.828035 0.942348 0.376567 0.366129

loop_
_geom_bond_atom_site_label_1
_geom_bond_atom_site_label_2
_geom_bond_distance
_ccdc_geom_bond_type
C38   H6    1.083968 S    
O5    Cu1   1.945515 S    
O22   H13   1.013879 S    
C49   O25   1.223084 D    
C44   O16   1.399620 S    
C44   O15   1.222290 D    
O26   H15   1.013682 S    
O3    C2    1.271766 A    
C50   O27   1.223077 D    
C33   C39   1.402930 A    
C13   H3    1.083338 S    
C45   O17   1.222191 D    
C11   C17   1.422219 A    
C5    O9    1.347592 S    
C7    N1    1.366179 A    
C9    C45   1.495914 S    
C19   C21   1.418273 A    
C22   C26   1.425878 A    
C7    C23   1.412603 A    
C43   O14   1.399629 S    
O7    Cu1   1.945614 S    
C5    C21   1.409991 A    
C20   C24   1.420108 A    
C8    C24   1.412641 A    
C27   C38   1.402163 A    
C50   O28   1.396693 S    
C10   C18   1.421872 A    
O20   H12   1.014155 S    
N1    C17   1.437244 S    
Cu2   N3    1.973681 S    
C31   C37   1.401577 A    
C48   O24   1.398455 S    
O3    Cu1   1.936002 S    
C6    O10   1.347666 S    
C47   O22   1.398504 S    
C14   H4    1.083336 S    
C12   C18   1.422261 A    
C6    N2    1.365638 A    
C15   H1    1.083325 S    
Cu1   Cu2   2.626605 S    
C21   C25   1.426061 A    
C16   H2    1.083326 S    
O2    C2    1.271750 A    
C12   C44   1.495043 S    
C46   O20   1.399749 S    
C46   O19   1.222201 D    
C33   C35   1.409610 A    
C9    C13   1.400236 A    
C34   C36   1.409575 A    
C11   C15   1.402892 A    
N3    N4    1.193375 T    
C12   C16   1.402901 A    
C8    N2    1.366251 A    
C4    C30   1.471726 S    
O8    Cu2   1.945617 S    
O24   H14   1.013932 S    
C34   C40   1.402877 A    
C47   O21   1.223069 D    
C7    O11   1.346187 S    
C13   C29   1.397880 A    
C19   C23   1.420160 A    
O16   H10   1.014199 S    
C28   C50   1.483277 S    
O5    C3    1.280829 A    
O28   H16   1.013697 S    
C2    C42   1.406464 S    
C28   C37   1.402228 A    
O6    C4    1.282095 A    
C45   O18   1.399735 S    
C32   C38   1.401522 A    
C1    C41   1.406464 S    
C10   C14   1.400222 A    
C10   C46   1.495921 S    
O1    C1    1.271748 A    
C3    C29   1.471711 S    
O1    Cu1   1.935984 S    
C32   C33   1.413038 A    
O6    Cu2   1.945512 S    
C19   C36   1.410044 A    
C8    O12   1.346180 S    
C16   C30   1.398569 A    
C14   C30   1.397904 A    
C25   C40   1.401889 A    
O4    C1    1.271768 A    
C11   C43   1.495034 S    
C26   C39   1.401817 A    
C23   C27   1.428755 A    
C37   H5    1.083973 S    
C25   C47   1.488366 S    
C39   H7    1.083218 S    
C40   H8    1.083167 S    
C26   C48   1.488044 S    
C31   C34   1.413107 A    
C20   C22   1.418207 A    
O14   H9    1.014195 S    
C20   C35   1.410026 A    
C5    N1    1.365621 A    
C27   C49   1.483154 S    
C31   C35   1.406954 A    
O4    Cu2   1.936003 S    
C43   O13   1.222290 D    
O2    Cu2   1.935983 S    
O7    C4    1.280789 A    
N2    C18   1.437232 S    
O8    C3    1.282043 A    
O18   H11   1.014150 S    
C24   C28   1.428781 A    
C49   O26   1.396610 S    
C41   C42   1.189007 T    
C15   C29   1.398616 A    
C9    C17   1.421903 A    
C48   O23   1.223235 D    
C32   C36   1.406968 A    
C6    C22   1.409915 A    
Cu1   N4    1.973681 S    
