data_mof_unit_52580.cif
_audit_creation_date              2012-12-10T17:53:05-0500
_audit_creation_method            fapswitch 2.2
_symmetry_space_group_name_H-M    P1
_symmetry_Int_Tables_number       1
_space_group_crystal_system       triclinic
_cell_length_a                    14.668438
_cell_length_b                    14.586112
_cell_length_c                    27.78702
_cell_angle_alpha                 76.91241
_cell_angle_beta                  102.166434
_cell_angle_gamma                 114.330351
_cell_volume                      5230.03991947

loop_
_atom_site_label
_atom_site_type_symbol
_atom_type_description
_atom_site_fract_x
_atom_site_fract_y
_atom_site_fract_z
_atom_type_partial_charge
C1    C     C_R   0.880710 0.311641 0.509949 0.814183
C2    C     C_R   0.119290 0.688359 0.490051 0.814183
C3    C     C_R   0.986363 0.496677 0.897260 -0.048008
C4    C     C_R   0.013637 0.503323 0.102740 -0.048008
C5    C     C_R   0.961499 0.404908 0.879930 -0.065522
C6    C     C_R   0.038501 0.595091 0.120070 -0.065521
C7    C     C_R   0.928089 0.313065 0.912367 -0.153845
C8    C     C_R   0.071911 0.686934 0.087633 -0.153845
C9    C     C_R   0.004972 0.587499 0.862852 -0.003556
C10   C     C_R   0.995027 0.412500 0.137148 -0.003556
C11   C     C_R   0.995716 0.498624 0.645214 -0.038309
C12   C     C_R   0.004284 0.501376 0.354786 -0.038309
C13   C     C_R   0.981440 0.408239 0.034491 0.057619
C14   C     C_R   0.018560 0.591761 0.965509 0.057619
C15   C     C_R   0.034548 0.595718 0.017489 0.023024
C16   C     C_R   0.965451 0.404281 0.982511 0.023024
C17   C     C_R   0.008797 0.502439 0.051242 0.028655
C18   C     C_R   0.991202 0.497560 0.948758 0.028655
C19   C     C_R   0.979317 0.322586 0.070908 -0.213005
C20   C     C_R   0.020683 0.677414 0.929092 -0.213006
C21   C     C_R   0.981810 0.323378 0.121041 -0.158051
C22   C     C_R   0.018190 0.676621 0.878959 -0.158051
C23   C     C_R   0.998827 0.499671 0.592456 0.800721
C24   C     C_R   0.001173 0.500329 0.407544 0.800720
C25   C     C_R   0.920754 0.311337 0.961959 0.159593
C26   C     C_R   0.079246 0.688662 0.038041 0.159593
C27   C     C_R   0.814010 0.202757 0.519765 -0.071438
C28   C     C_R   0.185990 0.797243 0.480235 -0.071438
C29   C     C_R   0.774884 0.029184 0.562839 -0.183085
C30   C     C_R   0.225116 0.970816 0.437161 -0.183085
C31   C     C_R   0.846023 0.128062 0.551967 0.181018
C32   C     C_R   0.153977 0.871937 0.448033 0.181018
C33   C     C_R   0.712674 0.175360 0.498683 -0.294303
C34   C     C_R   0.287326 0.824640 0.501317 -0.294303
C35   C     C_R   0.639860 0.077042 0.510660 0.090295
C36   C     C_R   0.360140 0.922958 0.489340 0.090295
C37   C     C_R   0.672944 0.004093 0.543555 0.112772
C38   C     C_R   0.327055 0.995907 0.456445 0.112772
C39   C     C_R   0.535107 0.049902 0.492062 0.076458
C40   C     C_R   0.464893 0.950098 0.507938 0.076457
C41   C     C_R   0.501959 0.880703 0.541536 -0.225980
C42   C     C_R   0.498041 0.119296 0.458464 -0.225981
C43   C     C_R   0.603882 0.906930 0.558213 -0.213481
C44   C     C_R   0.396118 0.093070 0.441787 -0.213481
C45   C     C_R   0.963378 0.406569 0.829389 0.540979
C46   C     C_R   0.036622 0.593430 0.170611 0.540979
C47   C     C_R   0.708584 0.657347 0.409719 0.003118
C48   C     C_R   0.291416 0.342652 0.590281 0.003118
C49   C     C_R   0.791176 0.627313 0.424991 0.057126
C50   C     C_R   0.208823 0.372687 0.575009 0.057126
C51   C     C_R   0.717636 0.515910 0.495008 -0.000562
C52   C     C_R   0.282364 0.484090 0.504992 -0.000561
C53   C     C_R   0.626993 0.533439 0.479503 -0.039119
C54   C     C_R   0.373007 0.466560 0.520497 -0.039119
C55   C     C_R   0.627983 0.613151 0.439248 0.065173
C56   C     C_R   0.372017 0.386849 0.560752 0.065173
C57   C     C_R   0.538378 0.479272 0.504345 0.029357
C58   C     C_R   0.461622 0.520728 0.495655 0.029357
C59   C     C_R   0.477787 0.615265 0.462938 0.158059
C60   C     C_R   0.522213 0.384734 0.537062 0.158059
C61   C     C_R   0.552642 0.652404 0.431736 -0.213083
C62   C     C_R   0.447358 0.347595 0.568264 -0.213083
C63   C     C_R   0.005731 0.585998 0.812625 0.529664
C64   C     C_R   0.994269 0.414002 0.187375 0.529664
C65   C     C_R   0.917702 0.519792 0.708635 -0.105422
C66   C     C_R   0.082298 0.480208 0.291365 -0.105422
C67   C     C_R   0.920690 0.520734 0.658711 -0.221183
C68   C     C_R   0.079310 0.479265 0.341288 -0.221183
C69   C     C_R   0.067306 0.475042 0.682612 -0.224552
C70   C     C_R   0.932694 0.524958 0.317388 -0.224552
C71   C     C_R   0.064145 0.474186 0.732529 -0.107296
C72   C     C_R   0.935855 0.525813 0.267471 -0.107295
C73   C     C_R   0.989522 0.496790 0.745717 0.356195
C74   C     C_R   0.010477 0.503209 0.254283 0.356194
Cu1   Cu    Cu3+1 0.081740 0.475690 0.513040 0.930443
Cu2   Cu    Cu3+1 0.918260 0.524310 0.486960 0.930443
H1    H     H_    0.125755 0.457341 0.673361 0.150374
H2    H     H_    0.874245 0.542659 0.326639 0.150374
H3    H     H_    0.307475 0.766017 0.526231 0.159600
H4    H     H_    0.692524 0.233982 0.473769 0.159600
H5    H     H_    0.798493 0.971865 0.587894 0.138733
H6    H     H_    0.201507 0.028135 0.412106 0.138733
H7    H     H_    0.454701 0.804871 0.556272 0.145628
H8    H     H_    0.545299 0.195129 0.443728 0.145628
H9    H     H_    0.557231 0.719991 0.404732 0.149640
H10   H     H_    0.442769 0.280009 0.595268 0.149640
H11   H     H_    0.271085 0.531056 0.470207 0.153466
H12   H     H_    0.728915 0.468944 0.529793 0.153466
H13   H     H_    0.145541 0.341609 0.595755 0.127482
H14   H     H_    0.854459 0.658391 0.404245 0.127482
H15   H     H_    0.119954 0.456402 0.761008 0.140247
H16   H     H_    0.880046 0.543598 0.238992 0.140247
H17   H     H_    0.899264 0.241559 0.898121 0.191716
H18   H     H_    0.100736 0.758440 0.101879 0.191716
H19   H     H_    0.135723 0.461240 0.369240 0.156728
H20   H     H_    0.864277 0.538759 0.630760 0.156728
H21   H     H_    0.140532 0.463204 0.281421 0.140738
H22   H     H_    0.859467 0.536796 0.718579 0.140738
H23   H     H_    0.975117 0.254182 0.147230 0.184494
H24   H     H_    0.024883 0.745817 0.852770 0.184494
H25   H     H_    0.978285 0.254417 0.061564 0.166987
H26   H     H_    0.021714 0.745583 0.938436 0.166987
H27   H     H_    0.628616 0.850882 0.583735 0.148057
H28   H     H_    0.371384 0.149118 0.416265 0.148057
N1    N     N_R   0.986807 0.496562 0.797067 -0.465431
N2    N     N_R   0.013193 0.503437 0.202933 -0.465431
N3    N     N_R   0.795430 0.560780 0.467350 -0.196240
N4    N     N_R   0.204570 0.439220 0.532650 -0.196240
O1    O     O_R   0.977900 0.338120 0.517190 -0.575171
O2    O     O_R   0.022100 0.661880 0.482810 -0.575171
O3    O     O_R   0.839850 0.379180 0.495160 -0.584331
O4    O     O_R   0.160150 0.620820 0.504840 -0.584331
O5    O     O_R   0.069030 0.479490 0.580750 -0.592418
O6    O     O_R   0.930970 0.520510 0.419250 -0.592418
O7    O     O_R   0.930970 0.520550 0.558720 -0.585670
O8    O     O_R   0.069030 0.479450 0.441280 -0.585669
O9    O     O_2   0.940785 0.318875 0.812538 -0.547696
O10   O     O_2   0.059215 0.681125 0.187462 -0.547696
O11   O     O_2   0.973681 0.326676 0.220281 -0.547827
O12   O     O_2   0.026318 0.673323 0.779719 -0.547828
C75   C     C_3   0.046993 0.848265 0.422832 -0.856003
H29   H     H_    0.994916 0.824415 0.451104 0.249295
H30   H     H_    0.037861 0.915531 0.397414 0.220494
H31   H     H_    0.025448 0.787237 0.400053 0.224855
C76   C     C_3   0.953007 0.151735 0.577168 -0.856002
H32   H     H_    0.005084 0.175585 0.548896 0.249295
H33   H     H_    0.974551 0.212762 0.599947 0.224855
H34   H     H_    0.962139 0.084469 0.602586 0.220494
C77   C     C_3   0.705139 0.735352 0.362970 -0.430595
C78   C     C_3   0.786997 0.764322 0.329400 -0.375729
C79   C     C_3   0.770307 0.835219 0.281831 -0.797723
H35   H     H_    0.696434 0.796999 0.259904 0.251348
H36   H     H_    0.772174 0.906250 0.291068 0.257742
H37   H     H_    0.831011 0.855621 0.258646 0.247379
H38   H     H_    0.862393 0.804420 0.349530 0.222092
H39   H     H_    0.785668 0.694565 0.318894 0.218417
H40   H     H_    0.630579 0.703500 0.340117 0.210957
H41   H     H_    0.710960 0.805987 0.374470 0.205197
C80   C     C_3   0.294861 0.264647 0.637030 -0.430595
C81   C     C_3   0.213003 0.235678 0.670599 -0.375730
C82   C     C_3   0.229693 0.164781 0.718169 -0.797724
H42   H     H_    0.227826 0.093749 0.708932 0.257742
H43   H     H_    0.303565 0.203001 0.740096 0.251348
H44   H     H_    0.168989 0.144379 0.741354 0.247380
H45   H     H_    0.214331 0.305435 0.681106 0.218417
H46   H     H_    0.137607 0.195580 0.650470 0.222093
H47   H     H_    0.289040 0.194013 0.625530 0.205197
H48   H     H_    0.369421 0.296500 0.659883 0.210957
C83   C     C_3   0.429630 0.688205 0.464610 -0.882964
H49   H     H_    0.486917 0.767472 0.462090 0.246144
H50   H     H_    0.369380 0.685887 0.432564 0.231363
H51   H     H_    0.400360 0.673016 0.500453 0.232626
C84   C     C_3   0.570370 0.311795 0.535390 -0.882964
H52   H     H_    0.513083 0.232528 0.537910 0.246144
H53   H     H_    0.599640 0.326984 0.499547 0.232626
H54   H     H_    0.630620 0.314113 0.567436 0.231363
C85   C     C_3   0.848759 0.212173 0.987046 -0.883846
H55   H     H_    0.886507 0.157348 0.001386 0.230499
H56   H     H_    0.782395 0.177176 0.959815 0.237828
H57   H     H_    0.817010 0.223709 0.017007 0.246866
C86   C     C_3   0.151241 0.787827 0.012953 -0.883846
H58   H     H_    0.113492 0.842652 0.998614 0.230499
H59   H     H_    0.182989 0.776290 0.982993 0.246867
H60   H     H_    0.217605 0.822824 0.040185 0.237828

loop_
_geom_bond_atom_site_label_1
_geom_bond_atom_site_label_2
_ccdc_geom_bond_type
C66   C68   A    
C24   O6    A    
C85   H55   S    
C70   H2    S    
C8    C26   A    
C14   C18   A    
C69   H1    S    
C78   H38   S    
C49   H14   S    
C79   H37   S    
C71   H15   S    
C86   H58   S    
C44   H28   S    
C59   C83   S    
C49   N3    A    
C27   C33   A    
C38   C44   A    
C62   H10   S    
C80   H47   S    
Cu1   O4    S    
C64   O11   S    
C47   C77   S    
C66   H21   S    
C35   C37   A    
C65   H22   S    
C82   H43   S    
C21   H23   S    
C9    C22   A    
C20   H26   S    
C41   H7    S    
C55   C61   A    
Cu2   O7    S    
C65   C73   A    
C46   O10   S    
C3    C18   A    
C60   C62   A    
C11   C23   S    
C69   C71   A    
C60   C84   S    
C75   H31   S    
C1    O1    A    
C77   H41   S    
C11   C67   A    
C65   C67   A    
C76   H34   S    
Cu2   O6    S    
Cu1   O5    S    
C63   N1    A    
C52   C54   A    
C48   C50   A    
C28   C34   A    
Cu1   N4    S    
C85   H56   S    
C50   N4    A    
C41   C43   A    
C42   C44   A    
C15   C17   A    
C86   H59   S    
C45   N1    A    
C39   C42   A    
C53   C55   A    
C10   C21   A    
C7    H17   S    
C54   C56   A    
C80   H48   S    
C59   C61   A    
C68   H19   S    
Cu1   O1    S    
C13   C19   A    
C27   C31   A    
C14   C20   A    
C28   C32   A    
C8    H18   S    
C81   C82   S    
C47   C49   A    
C82   H44   S    
C81   H46   S    
C39   C40   A    
C5    C7    A    
C53   C57   A    
C15   C26   A    
C6    C8    A    
C79   H36   S    
C58   C59   A    
C5    C45   A    
C51   C53   A    
C30   H6    S    
C35   C39   A    
Cu1   Cu2   S    
C29   H5    S    
C3    C9    A    
C34   H3    S    
C23   O5    A    
C12   C68   A    
C50   H13   S    
C73   N1    S    
C36   C40   A    
C2    O4    A    
C42   H8    S    
C16   C18   A    
C84   H54   S    
C76   H33   S    
C75   H29   S    
C61   H9    S    
C4    C17   A    
C72   C74   A    
C40   C41   A    
C20   C22   A    
C24   O8    A    
C85   H57   S    
C25   C85   S    
C67   H20   S    
C29   C37   A    
C56   C62   A    
C37   C43   A    
C83   H51   S    
C4    C6    A    
C84   H53   S    
C31   C76   S    
C4    C10   A    
C79   H35   S    
C86   H60   S    
C47   C55   A    
C77   C78   S    
C54   C58   A    
C51   H12   S    
C45   O9    S    
C16   C25   A    
C48   C56   A    
C12   C70   A    
C2    O2    A    
C6    C46   A    
C48   C80   S    
C19   C21   A    
C9    C63   A    
C32   C75   S    
C52   H11   S    
C78   H39   S    
C3    C5    A    
C81   H45   S    
C70   C72   A    
C80   C81   S    
C11   C69   A    
C33   H4    S    
C64   N2    A    
Cu2   N3    S    
C12   C24   S    
C26   C86   S    
C10   C64   A    
C7    C25   A    
Cu2   O2    S    
C13   C17   A    
C83   H50   S    
C78   C79   S    
C29   C31   A    
C82   H42   S    
C1    O3    A    
C30   C32   A    
C63   O12   S    
C19   H25   S    
C57   C58   A    
C76   H32   S    
Cu2   O3    S    
C72   H16   S    
C46   N2    A    
C36   C38   A    
C33   C35   A    
C34   C36   A    
C74   N2    S    
C43   H27   S    
C75   H30   S    
C22   H24   S    
C23   O7    A    
C57   C60   A    
C77   H40   S    
C52   N4    A    
C51   N3    A    
C13   C16   A    
C71   C73   A    
C1    C27   S    
C14   C15   A    
C2    C28   S    
Cu1   O8    S    
C30   C38   A    
C84   H52   S    
C83   H49   S    
C66   C74   A    
