data_mof_unit_26692.cif
_audit_creation_date              2012-12-11T17:05:27-0500
_audit_creation_method            fapswitch 2.2
_symmetry_space_group_name_H-M    P1
_symmetry_Int_Tables_number       1
_space_group_crystal_system       triclinic
_cell_length_a                    6.963505
_cell_length_b                    14.685077
_cell_length_c                    15.928246
_cell_angle_alpha                 90.073691
_cell_angle_beta                  89.619829
_cell_angle_gamma                 90.181826
_cell_volume                      1628.77081763

loop_
_atom_site_label
_atom_site_type_symbol
_atom_type_description
_atom_site_fract_x
_atom_site_fract_y
_atom_site_fract_z
_atom_type_partial_charge
O1    O     O_R   0.494380 0.415640 0.412830 -0.546673
O2    O     O_R   0.823960 0.405540 0.586560 -0.532242
O3    O     O_R   0.994270 0.584360 0.587170 -0.530708
C1    C     C_R   0.653743 0.379520 0.611491 0.663724
O4    O     O_R   0.824090 0.404620 0.413450 -0.517184
O5    O     O_R   0.994400 0.583430 0.412820 -0.492051
C2    C     C_R   0.655376 0.382523 0.384458 0.750596
O6    O     O_R   0.494250 0.416570 0.587180 -0.563118
O7    O     O_3   0.660800 0.558670 0.500000 -0.349344
V1    V     V_3+5 0.935650 0.489120 0.500000 1.546049
O8    O     O_R   0.324110 0.594460 0.413440 -0.540620
C3    C     C_R   0.155306 0.618478 0.386313 0.761930
O9    O     O_R   0.323980 0.595380 0.586550 -0.547711
C4    C     C_R   0.154067 0.615444 0.617154 0.654143
V2    V     V_3+5 0.435660 0.510880 0.500000 1.474421
O10   O     O_3   0.160640 0.441330 0.500000 -0.384477
C5    C     C_3   0.928306 0.683490 0.731518 0.228689
C6    C     C_3   0.921734 0.755532 0.805416 -0.260519
H1    H     H_    0.820067 0.809764 0.785705 0.085692
H2    H     H_    0.097594 0.798717 0.602460 0.107422
H3    H     H_    0.040098 0.897964 0.712400 0.086019
C7    C     C_3   0.187298 0.780341 0.657286 -0.407954
C8    C     C_3   0.289038 0.661642 0.758725 -0.354442
C9    C     C_3   0.137829 0.683179 0.689832 -0.018432
H4    H     H_    0.435092 0.659453 0.730092 0.163469
H5    H     H_    0.265742 0.592647 0.783973 0.211423
C10   C     C_3   0.120930 0.805754 0.814858 -0.059840
C11   C     C_3   0.163441 0.852890 0.728195 0.214908
C12   C     C_3   0.288336 0.735772 0.829108 -0.145665
H6    H     H_    0.424453 0.774557 0.821350 0.128418
H7    H     H_    0.338060 0.781000 0.633441 0.190544
C13   C     C_R   0.261319 0.746430 0.184138 0.105892
C14   C     C_R   0.116034 0.811764 0.180140 -0.146042
C15   C     C_R   0.973948 0.809670 0.243411 -0.175804
H8    H     H_    0.858485 0.858895 0.242239 0.128719
C16   C     C_R   0.989363 0.751372 0.313556 0.368811
C17   C     C_R   0.143215 0.687442 0.318193 -0.182239
C18   C     C_R   0.272736 0.684656 0.250326 0.005022
C19   C     C_3   0.487275 0.690287 0.250400 -0.190694
C20   C     C_3   0.473810 0.757386 0.177771 -0.456387
H9    H     H_    0.543118 0.720903 0.309203 0.201999
H10   H     H_    0.530905 0.731881 0.116750 0.178518
H11   H     H_    0.521874 0.827227 0.194781 0.171776
C21   C     C_R   0.492890 0.309090 0.735476 -0.029013
C22   C     C_R   0.640803 0.306264 0.675522 -0.136857
C23   C     C_R   0.772359 0.232239 0.679494 0.372505
C24   C     C_R   0.760906 0.170111 0.746769 -0.207636
H12   H     H_    0.851148 0.110866 0.745758 0.175672
C25   C     C_R   0.621002 0.177758 0.810083 -0.195806
C26   C     C_R   0.481402 0.244936 0.800383 0.103791
C27   C     C_3   0.270027 0.230360 0.788051 -0.110248
C28   C     C_3   0.282747 0.301345 0.717515 -0.303544
H13   H     H_    0.256345 0.274505 0.653237 0.144058
C29   C     C_R   0.504144 0.320706 0.252175 -0.024104
C30   C     C_R   0.647529 0.316403 0.313638 -0.061811
C31   C     C_R   0.788578 0.248381 0.303697 -0.144815
H14   H     H_    0.903802 0.242716 0.348661 0.117770
C32   C     C_R   0.774666 0.182645 0.239111 -0.093008
H15   H     H_    0.875657 0.127017 0.237534 0.163910
C33   C     C_R   0.623966 0.184473 0.180562 -0.061593
C34   C     C_R   0.493312 0.256392 0.187313 -0.047428
C35   C     C_3   0.278832 0.253644 0.191945 0.230905
C36   C     C_3   0.290382 0.326039 0.261870 -0.308130
H16   H     H_    0.239600 0.301916 0.324421 0.156933
O11   O     O_R   0.771490 0.080820 0.910070 -0.533102
O12   O     O_R   0.441590 0.092730 0.083780 -0.527208
O13   O     O_R   0.271350 0.913900 0.084390 -0.550266
C37   C     C_R   0.610429 0.114576 0.113018 0.706985
O14   O     O_R   0.441780 0.091820 0.910670 -0.516207
O15   O     O_R   0.271540 0.912980 0.910040 -0.522887
C38   C     C_R   0.610642 0.111602 0.880223 0.753977
O16   O     O_R   0.771300 0.081740 0.084420 -0.520671
O17   O     O_3   0.604960 0.938700 0.997240 -0.400600
V3    V     V_3+5 0.330090 0.008230 0.997220 1.553184
O18   O     O_R   0.941820 0.901930 0.910640 -0.560188
C39   C     C_R   0.111066 0.878429 0.883194 0.742107
O19   O     O_R   0.941630 0.902840 0.083750 -0.550239
C40   C     C_R   0.109844 0.880765 0.112405 0.701542
V4    V     V_3+5 0.830090 0.986410 0.997190 1.490695
O20   O     O_3   0.105080 0.055990 0.997200 -0.330695
O21   O     O_3   0.790158 0.707302 0.670555 -0.672595
H17   H     H_    0.806992 0.771775 0.653792 0.284369
O22   O     O_3   0.330342 0.906883 0.732843 -0.633355
H18   H     H_    0.334089 0.944829 0.681308 0.287175
O23   O     O_3   0.859131 0.764072 0.378167 -0.652994
H19   H     H_    0.916499 0.742964 0.431347 0.278041
C41   C     C_2   0.579692 0.601695 0.226305 0.454640
H20   H     H_    0.541080 0.567727 0.168228 0.061648
O24   O     O_2   0.699875 0.567546 0.271731 -0.500131
O25   O     O_3   0.905701 0.214369 0.617222 -0.664910
H21   H     H_    0.864693 0.243912 0.564558 0.267642
C42   C     C_2   0.869627 0.588460 0.760671 0.481951
H22   H     H_    0.759162 0.551416 0.726835 0.065020
O26   O     O_2   0.944223 0.551658 0.820758 -0.473876
C43   C     C_2   0.154113 0.256482 0.865344 0.563504
H23   H     H_    0.018670 0.222894 0.878825 0.082163
O27   O     O_2   0.207949 0.317560 0.911770 -0.517781
C44   C     C_2   0.226507 0.135868 0.754555 0.298911
H24   H     H_    0.259872 0.118854 0.689747 0.075723
O28   O     O_2   0.160842 0.076608 0.800161 -0.531820
C45   C     C_2   0.180981 0.389701 0.731833 0.579479
H25   H     H_    0.257921 0.453412 0.725403 0.007030
O29   O     O_2   0.009094 0.390176 0.746392 -0.523092
O30   O     O_3   0.209744 0.168590 0.219980 -0.634269
H26   H     H_    0.275128 0.152477 0.273170 0.274857
C46   C     C_2   0.188027 0.282578 0.110538 0.514655
H27   H     H_    0.244072 0.341136 0.076762 0.048255
O31   O     O_2   0.051325 0.240952 0.081940 -0.495606
C47   C     C_2   0.828493 0.723714 0.887422 0.480989
H28   H     H_    0.682785 0.743783 0.901663 -0.004261
O32   O     O_2   0.912744 0.677513 0.938774 -0.489050
C48   C     C_2   0.215550 0.418773 0.239125 0.414609
H29   H     H_    0.283970 0.458445 0.189882 0.030073
O33   O     O_2   0.073998 0.449101 0.274619 -0.496500
C49   C     C_2   0.300008 0.697713 0.917452 0.510234
H30   H     H_    0.300527 0.743958 0.970602 0.002770
O34   O     O_2   0.314069 0.616149 0.930887 -0.477516

loop_
_geom_bond_atom_site_label_1
_geom_bond_atom_site_label_2
_ccdc_geom_bond_type
O12   C37   A    
C30   C31   A    
C45   H25   S    
O11   V4    S    
C10   C12   S    
O17   V3    S    
C43   H23   S    
C6    C47   S    
C2    C30   S    
C1    O6    A    
C25   C38   S    
C48   O33   D    
O21   H17   S    
C19   H9    S    
O19   C40   A    
C21   C22   A    
C5    C42   S    
C12   H6    S    
C8    C12   S    
C16   C17   A    
C15   H8    S    
O16   V4    S    
C47   O32   D    
O5    C3    A    
C18   C19   S    
C14   C40   S    
C29   C36   S    
C32   C33   A    
C49   H30   S    
O12   V3    S    
C36   C48   S    
C31   H14   S    
C6    H1    S    
C8    H5    S    
C4    C9    S    
C3    C17   S    
O14   C38   A    
C48   H29   S    
C23   C24   A    
O8    V2    S    
C20   H11   S    
O22   H18   S    
C49   O34   D    
O15   V3    S    
C8    C9    S    
O1    V2    S    
C13   C18   A    
O7    V1    S    
C5    O21   S    
C21   C28   S    
C27   C44   S    
C20   H10   S    
C12   C49   S    
C45   O29   D    
V3    O20   S    
O9    C4    A    
C11   O22   S    
O13   C40   A    
O30   H26   S    
C7    C11   S    
C14   C15   A    
C35   O30   S    
C1    C22   S    
O19   V4    S    
C28   C45   S    
C5    C9    S    
C7    H7    S    
C27   C28   S    
C24   C25   A    
C19   C20   S    
O4    C2    A    
C26   C27   S    
C32   H15   S    
C22   C23   A    
V4    O20   S    
C33   C34   A    
O2    C1    A    
O18   C39   A    
C17   C18   A    
C24   H12   S    
C37   O16   A    
C35   C36   S    
C42   O26   D    
C5    C6    S    
O17   V4    S    
O14   V3    S    
O13   V3    S    
O23   H19   S    
O3    C4    A    
C23   O25   S    
H3    C11   S    
H2    C7    S    
C44   H24   S    
O6    V2    S    
C44   O28   D    
C41   O24   D    
O15   C39   A    
C7    C9    S    
C10   C39   S    
O2    V1    S    
C28   H13   S    
C21   C26   A    
C29   C30   A    
O1    C2    A    
C6    C10   S    
O5    V1    S    
O8    C3    A    
C43   O27   D    
C35   C46   S    
C29   C34   A    
C16   O23   S    
C13   C14   A    
O9    V2    S    
O7    V2    S    
O4    V1    S    
O3    V1    S    
O11   C38   A    
C47   H28   S    
O25   H21   S    
C46   O31   D    
C42   H22   S    
C31   C32   A    
C15   C16   A    
C13   C20   S    
C34   C35   S    
C36   H16   S    
C8    H4    S    
C33   C37   S    
C41   H20   S    
C25   C26   A    
C46   H27   S    
C10   C11   S    
V1    O10   S    
O18   V4    S    
C19   C41   S    
V2    O10   S    
C27   C43   S    
