data_mof_unit_31768.cif
_audit_creation_date              2013-03-05T16:33:12-0500
_audit_creation_method            fapswitch 2.2
_symmetry_space_group_name_H-M    P1
_symmetry_Int_Tables_number       1
_space_group_crystal_system       triclinic
_cell_length_a                    27.752122
_cell_length_b                    10.856257
_cell_length_c                    9.590518
_cell_angle_alpha                 90.342756
_cell_angle_beta                  89.888506
_cell_angle_gamma                 90.793329
_cell_volume                      2889.13755376

loop_
_atom_site_label
_atom_site_type_symbol
_atom_site_description
_atom_site_fract_x
_atom_site_fract_y
_atom_site_fract_z
_atom_type_partial_charge
O1    O     O_R   0.500000 0.319640 0.618810 -0.609095
O2    O     O_R   0.500010 0.319680 0.381230 -0.578146
C1    C     C_R   0.500184 0.262715 0.499543 0.809186
O3    O     O_R   0.430260 0.500000 0.618780 -0.566936
O4    O     O_R   0.430270 0.500040 0.381190 -0.522605
C2    C     C_R   0.407447 0.500405 0.500076 0.829458
Cu1   Cu    Cu3+1 0.500000 0.499980 0.640670 0.960376
Cu2   Cu    Cu3+1 0.500000 0.500020 0.359330 1.011789
O5    O     O_R   0.499990 0.680320 0.618770 -0.594583
O6    O     O_R   0.500000 0.680360 0.381190 -0.523600
O7    O     O_R   0.569730 0.499960 0.618810 -0.551829
O8    O     O_R   0.569740 0.500000 0.381220 -0.559028
C3    C     C_R   0.499096 0.737654 0.499873 0.822292
C4    C     C_R   0.592270 0.501616 0.500258 0.880860
C5    C     C_R   0.176776 0.396815 0.471738 0.598501
O9    O     O_2   0.201159 0.293439 0.440813 -0.516474
N1    N     N_R   0.201443 0.503441 0.502675 -0.448623
C6    C     C_R   0.177880 0.609857 0.534520 0.594137
C7    C     C_R   0.278073 0.503003 0.373204 0.467047
C8    C     C_R   0.328731 0.502123 0.373760 -0.296354
C9    C     C_R   0.328664 0.503411 0.626587 -0.196136
C10   C     C_R   0.278482 0.504407 0.626640 -0.196710
C11   C     C_R   0.253118 0.503788 0.500686 0.328764
C12   C     C_R   0.101209 0.502427 0.507301 -0.053073
C13   C     C_R   0.126205 0.394495 0.472293 -0.016749
C14   C     C_R   0.100282 0.286960 0.438880 -0.130941
C15   C     C_R   0.127301 0.611399 0.537379 -0.103237
C16   C     C_R   0.354300 0.501783 0.500192 -0.087687
H1    H     H_    0.347290 0.504032 0.725620 0.216616
H2    H     H_    0.259149 0.505177 0.724829 0.168153
H3    H     H_    0.118632 0.202254 0.413544 0.188812
C17   C     C_R   0.644954 0.505964 0.502500 -0.214667
C18   C     C_R   0.973290 0.399085 0.458238 0.072135
C19   C     C_R   0.974897 0.599789 0.579795 -0.083978
C20   C     C_R   0.948781 0.500666 0.517526 0.032766
C21   C     C_R   0.945965 0.306074 0.389887 -0.201492
C22   C     C_R   0.895980 0.311249 0.383869 -0.132197
C23   C     C_R   0.871445 0.408279 0.447435 -0.016605
C24   C     C_R   0.897743 0.502562 0.515764 -0.054571
C25   C     C_R   0.872951 0.598482 0.582718 -0.137795
C26   C     C_R   0.822371 0.599289 0.578413 0.655313
N2    N     N_R   0.797582 0.507775 0.509583 -0.413614
C27   C     C_R   0.820972 0.413227 0.444689 0.597555
C28   C     C_R   0.720005 0.426491 0.594115 0.415761
C29   C     C_R   0.669484 0.425266 0.589778 -0.364200
C30   C     C_R   0.670875 0.593229 0.423179 0.347549
C31   C     C_R   0.721475 0.590731 0.421498 0.365523
C32   C     C_R   0.745881 0.508723 0.508746 0.157718
O10   O     O_2   0.795394 0.324333 0.377821 -0.535843
C33   C     C_R   0.024195 0.394458 0.468455 0.072727
C34   C     C_R   0.050159 0.501510 0.511400 0.027822
C35   C     C_R   0.025470 0.608251 0.556289 -0.093138
C36   C     C_R   0.050185 0.286995 0.435789 -0.195858
H4    H     H_    0.649217 0.360683 0.653568 0.180630
H5    H     H_    0.876604 0.238237 0.329490 0.190141
H6    H     H_    0.962437 0.229979 0.335960 0.139332
H7    H     H_    0.032607 0.200365 0.411156 0.135771
O11   O     O_2   0.203343 0.713853 0.562566 -0.522192
C37   C     C_R   0.102441 0.720244 0.564064 -0.215810
H8    H     H_    0.347973 0.502042 0.275529 0.203801
H9    H     H_    0.121801 0.806717 0.578612 0.210043
C38   C     C_R   0.949085 0.684803 0.664750 0.451717
C39   C     C_R   0.898926 0.687355 0.658709 -0.154333
O12   O     O_2   0.798105 0.690012 0.643410 -0.538259
C40   C     C_R   0.052135 0.720814 0.567591 0.463535
H10   H     H_    0.880267 0.755858 0.720313 0.208265
C41   C     C_R   0.516085 0.064993 0.614680 0.131469
C42   C     C_R   0.502622 0.129837 0.496843 -0.147778
C43   C     C_R   0.492013 0.065040 0.373789 -0.322874
H11   H     H_    0.481799 0.115270 0.282250 0.164104
C44   C     C_R   0.490070 0.935592 0.371928 0.491824
C45   C     C_R   0.500248 0.871633 0.496877 -0.195263
C46   C     C_R   0.515503 0.938000 0.614530 0.034688
C47   C     C_3   0.496612 0.934304 0.760666 -0.451838
C48   C     C_3   0.496969 0.073694 0.759715 -0.456613
H12   H     H_    0.459873 0.892636 0.768429 0.213133
H13   H     H_    0.523441 0.898247 0.834545 0.172851
H14   H     H_    0.460271 0.113370 0.764758 0.197628
H15   H     H_    0.523629 0.115525 0.832971 0.189588
C49   C     C_R   0.541103 0.526135 0.072858 0.065389
N3    N     N_R   0.500300 0.500930 0.147930 -0.244874
C50   C     C_R   0.462252 0.450570 0.074921 0.550086
C51   C     C_R   0.462121 0.451280 0.926130 0.343019
N4    N     N_R   0.500310 0.500890 0.852020 -0.283223
C52   C     C_R   0.541113 0.526010 0.926535 0.153903
C53   C     C_3   0.572384 0.638094 0.919760 0.296341
C54   C     C_3   0.572612 0.638079 0.079128 -0.474812
H16   H     H_    0.553508 0.715659 0.870172 0.080354
H17   H     H_    0.608428 0.616757 0.123062 0.260925
H18   H     H_    0.554535 0.718382 0.126990 0.187674
O13   O     O_3   0.252160 0.503781 0.250482 -0.704753
H19   H     H_    0.274950 0.502875 0.170716 0.328543
O14   O     O_3   0.970708 0.757433 0.765873 -0.675319
H20   H     H_    0.000588 0.716529 0.796239 0.334921
O15   O     O_3   0.647156 0.679337 0.344143 -0.582704
C55   C     C_3   0.636900 0.782013 0.429292 -0.263094
H21   H     H_    0.670405 0.824231 0.473261 0.192218
H22   H     H_    0.611389 0.757065 0.514424 0.130069
H23   H     H_    0.619225 0.852577 0.364494 0.175303
O16   O     O_3   0.747345 0.674222 0.341757 -0.543911
C56   C     C_3   0.750859 0.627014 0.204891 -0.221634
H24   H     H_    0.714805 0.617956 0.154940 0.184415
H25   H     H_    0.769538 0.536929 0.202931 0.164278
H26   H     H_    0.772635 0.692450 0.141589 0.192130
O17   O     O_3   0.029730 0.833517 0.576764 -0.539751
C57   C     C_3   0.019479 0.873964 0.440721 -0.253431
H27   H     H_    0.994745 0.808562 0.385365 0.159929
H28   H     H_    0.053148 0.888444 0.379289 0.154494
H29   H     H_    0.001074 0.963828 0.448097 0.186429
O18   O     O_3   0.470911 0.870757 0.258642 -0.546832
C58   C     C_3   0.488409 0.915340 0.129980 -0.330896
H30   H     H_    0.484225 0.840599 0.051479 0.183713
H31   H     H_    0.527360 0.941461 0.133962 0.140593
H32   H     H_    0.466424 0.993537 0.093778 0.168471
O19   O     O_3   0.423365 0.401122 0.146462 -0.550524
C59   C     C_3   0.419878 0.272508 0.124008 -0.242819
H33   H     H_    0.407933 0.228609 0.222583 0.179205
H34   H     H_    0.454449 0.229281 0.091967 0.097750
H35   H     H_    0.391865 0.251778 0.044543 0.203062
O20   O     O_3   0.423120 0.399207 0.859810 -0.728952
H36   H     H_    0.436162 0.342950 0.788250 0.347683
O21   O     O_3   0.617685 0.609060 0.861839 -0.539858
C60   C     C_3   0.644726 0.718488 0.842817 -0.292466
H37   H     H_    0.651470 0.766266 0.944028 0.169856
H38   H     H_    0.626615 0.781285 0.768829 0.139431
H39   H     H_    0.680168 0.694517 0.797123 0.209400
O22   O     O_3   0.745033 0.348410 0.680002 -0.688045
H40   H     H_    0.721677 0.296949 0.733085 0.329660

loop_
_geom_bond_atom_site_label_1
_geom_bond_atom_site_label_2
_geom_bond_distance
_ccdc_geom_bond_type
C55   H23   1.109471 S    
C28   O22   1.380704 S    
O14   H20   0.991131 S    
C17   C29   1.399667 A    
C20   C24   1.416988 A    
O15   C55   1.409749 S    
C12   C15   1.407159 A    
N3    C50   1.373477 A    
C60   H37   1.112761 S    
C52   C53   1.486422 S    
C28   C29   1.402637 A    
Cu1   O7    1.946076 S    
N1    C11   1.434114 S    
C25   C39   1.398594 A    
C47   H12   1.112234 S    
C51   N4    1.379960 A    
C21   C22   1.390426 A    
C22   C23   1.398380 A    
C50   O19   1.381696 S    
C49   C54   1.488309 S    
C23   C24   1.408159 A    
O7    C4    1.296720 A    
C53   H16   1.107999 S    
C60   H38   1.112456 S    
C57   H27   1.113813 S    
O19   C59   1.413524 S    
C44   O18   1.393301 S    
C19   C38   1.426809 A    
C18   C21   1.413217 A    
C59   H33   1.109312 S    
Cu1   O5    1.970303 S    
C19   C20   1.418563 A    
C46   C47   1.495986 S    
Cu2   N3    2.027520 S    
C43   C44   1.405611 A    
O5    C3    1.302807 A    
O18   C58   1.411029 S    
C6    O11   1.349579 S    
C2    C16   1.475231 S    
C30   O15   1.381734 S    
C7    C8    1.406055 A    
C42   C43   1.399990 A    
C47   H13   1.105930 S    
C55   H22   1.111887 S    
C53   O21   1.412308 S    
C41   C46   1.378535 A    
C8    H8    1.082014 S    
C45   C46   1.398294 A    
C12   C34   1.417105 A    
Cu1   N4    2.026956 S    
C39   H10   1.083729 S    
C14   H3    1.083438 S    
C56   H25   1.113247 S    
C9    C10   1.392850 A    
O3    Cu1   1.947198 S    
C40   O17   1.382374 S    
N1    C6    1.368030 A    
C37   H9    1.083594 S    
C33   C36   1.413326 A    
C47   C48   1.513228 S    
C41   C42   1.389524 A    
C56   H24   1.113047 S    
Cu1   Cu2   2.698198 S    
C12   C13   1.408477 A    
O3    C2    1.303762 A    
O13   H19   0.991727 S    
C36   H7    1.078597 S    
C53   C54   1.528446 S    
C27   O10   1.349771 S    
C60   H39   1.109615 S    
C8    C16   1.406156 A    
C18   C33   1.417933 A    
C9    H1    1.082152 S    
C31   O16   1.382028 S    
C34   C35   1.418630 A    
O1    C1    1.296880 A    
C51   O20   1.370074 S    
C7    C11   1.404008 A    
C26   N2    1.367857 A    
C49   C52   1.403302 A    
C21   H6    1.078579 S    
C31   C32   1.406897 A    
Cu2   O8    1.947192 S    
C55   H21   1.113511 S    
C38   C39   1.394011 A    
C33   C34   1.418356 A    
C58   H31   1.114406 S    
N2    C32   1.435028 S    
N4    C52   1.363683 A    
C1    C42   1.445158 S    
C25   C26   1.404542 A    
C9    C16   1.404496 A    
O8    C4    1.302617 A    
C29   H4    1.084020 S    
C56   H26   1.109190 S    
C54   H17   1.108275 S    
C54   H18   1.108514 S    
C41   C48   1.490668 S    
N2    C27   1.368031 A    
O22   H40   0.991734 S    
C14   C36   1.390680 A    
C24   C25   1.407203 A    
O20   H36   0.987503 S    
C5    N1    1.367971 A    
C30   C31   1.404954 A    
C10   H2    1.082950 S    
C58   H30   1.108641 S    
O1    Cu1   1.967763 S    
C17   C30   1.407584 A    
O2    Cu2   1.970305 S    
C6    C15   1.404235 A    
C4    C17   1.462416 S    
C49   N3    1.366062 A    
O6    C3    1.294197 A    
O4    Cu2   1.946079 S    
C3    C45   1.454872 S    
O17   C57   1.409891 S    
C19   C35   1.422884 A    
C59   H35   1.109619 S    
O2    C1    1.295562 A    
C13   C14   1.398679 A    
C44   C45   1.419369 A    
C15   C37   1.398575 A    
C37   C40   1.396554 A    
O4    C2    1.303227 A    
C57   H28   1.113482 S    
O16   C56   1.409956 S    
C18   C20   1.419087 A    
C59   H34   1.115672 S    
C58   H32   1.110034 S    
C43   H11   1.076766 S    
C48   H14   1.112109 S    
C7    O13   1.380601 S    
C22   H5    1.083401 S    
C28   C32   1.404171 A    
C23   C27   1.402799 A    
C5    C13   1.403338 A    
Cu2   O6    1.967762 S    
C50   C51   1.427064 A    
C38   O14   1.379268 S    
C10   C11   1.399220 A    
C26   O12   1.349629 S    
O21   C60   1.408942 S    
C48   H15   1.111826 S    
C35   C40   1.423493 A    
C5    O9    1.349679 S    
C57   H29   1.109269 S    
