data_mof_unit_54956.cif
_audit_creation_date              2013-03-05T16:25:54-0500
_audit_creation_method            fapswitch 2.2
_symmetry_space_group_name_H-M    P1
_symmetry_Int_Tables_number       1
_space_group_crystal_system       triclinic
_cell_length_a                    8.751853
_cell_length_b                    19.42134
_cell_length_c                    18.329166
_cell_angle_alpha                 90.053876
_cell_angle_beta                  97.351211
_cell_angle_gamma                 91.104078
_cell_volume                      3089.25861173

loop_
_atom_site_label
_atom_site_type_symbol
_atom_site_description
_atom_site_fract_x
_atom_site_fract_y
_atom_site_fract_z
_atom_type_partial_charge
O1    O     O_R   0.499930 0.400180 0.561970 -0.539423
O2    O     O_R   0.500070 0.599820 0.438030 -0.573567
O3    O     O_R   0.500010 0.400190 0.438070 -0.578795
O4    O     O_R   0.499990 0.599810 0.561930 -0.539620
C1    C     C_R   0.499812 0.367646 0.499947 0.804841
C2    C     C_R   0.499947 0.632351 0.500051 0.811201
O5    O     O_R   0.274810 0.500000 0.547650 -0.580536
O6    O     O_R   0.725190 0.500000 0.452350 -0.539722
O7    O     O_R   0.274880 0.500000 0.423750 -0.532606
O8    O     O_R   0.725120 0.500000 0.576250 -0.580952
C3    C     C_R   0.204707 0.497646 0.481848 0.869513
C4    C     C_R   0.795354 0.502097 0.518091 0.866735
Cu1   Cu    Cu3+1 0.499960 0.500000 0.573360 0.999997
Cu2   Cu    Cu3+1 0.500040 0.500000 0.426640 1.008679
C5    C     C_2   0.041260 0.485135 0.475145 -0.000876
C6    C     C_2   0.958777 0.514751 0.524464 -0.012278
C7    C     C_R   0.507141 0.744879 0.435248 -0.217216
C8    C     C_R   0.497789 0.255318 0.565385 -0.191821
H1    H     H_    0.513506 0.718472 0.383750 0.164847
H2    H     H_    0.497051 0.281822 0.617310 0.200248
C9    C     C_R   0.508478 0.816494 0.435947 -0.175669
C10   C     C_R   0.495778 0.183740 0.564834 -0.207890
H3    H     H_    0.515665 0.844121 0.385136 0.173641
H4    H     H_    0.494219 0.156339 0.616182 0.153500
C11   C     C_R   0.499376 0.852363 0.501522 0.070391
C12   C     C_R   0.497329 0.147620 0.498778 0.092346
C13   C     C_R   0.486178 0.816206 0.566984 0.495611
C14   C     C_R   0.504019 0.183448 0.432540 0.519361
C15   C     C_R   0.489678 0.743967 0.566182 -0.275475
C16   C     C_R   0.501913 0.255810 0.433396 -0.303193
H5    H     H_    0.486632 0.716096 0.617037 0.201697
H6    H     H_    0.500076 0.283748 0.382337 0.161461
C17   C     C_R   0.498780 0.708020 0.500407 -0.099024
C18   C     C_R   0.500057 0.291965 0.499654 -0.095817
C19   C     C_R   0.374273 0.962632 0.522353 -0.288659
C20   C     C_R   0.621988 0.037335 0.477828 -0.295642
H7    H     H_    0.275769 0.933270 0.536291 0.155098
H8    H     H_    0.717104 0.066252 0.459558 0.178202
C21   C     C_R   0.373322 0.034827 0.524303 0.510953
C22   C     C_R   0.626461 0.965417 0.479824 0.494865
C23   C     C_R   0.496630 0.072016 0.499956 -0.032088
C24   C     C_R   0.500321 0.927979 0.500948 -0.029061
C25   C     C_R   0.431446 0.446304 0.716523 0.612952
C26   C     C_R   0.615512 0.533541 0.286155 0.607892
C27   C     C_R   0.443367 0.442360 0.794023 -0.391531
C28   C     C_R   0.623792 0.527849 0.209778 -0.389130
H9    H     H_    0.405550 0.395342 0.818098 0.159085
H10   H     H_    0.726356 0.547045 0.189111 0.160588
C29   C     C_R   0.502002 0.498287 0.838556 0.034290
C30   C     C_R   0.501902 0.497555 0.161970 0.037678
C31   C     C_R   0.552520 0.556172 0.801856 -0.329637
C32   C     C_R   0.377466 0.470386 0.194981 -0.334834
H11   H     H_    0.581232 0.603758 0.831128 0.211852
H12   H     H_    0.273477 0.452364 0.162188 0.213765
C33   C     C_R   0.565199 0.553945 0.725822 0.586659
C34   C     C_R   0.385168 0.465784 0.272239 0.599524
N1    N     N_R   0.499980 0.500020 0.683620 -0.247742
N2    N     N_R   0.500020 0.499980 0.316380 -0.249442
C35   C     C_R   0.611374 0.538696 0.969458 0.496795
C36   C     C_R   0.415518 0.446782 0.032207 0.496990
C37   C     C_R   0.600895 0.540957 0.045326 -0.331549
C38   C     C_R   0.409814 0.451448 0.955330 -0.342100
H13   H     H_    0.672379 0.578948 0.077210 0.176310
H14   H     H_    0.328662 0.417698 0.922604 0.173160
C39   C     C_R   0.504667 0.495090 0.079102 -0.001767
C40   C     C_R   0.507494 0.496722 0.921786 -0.002783
C41   C     C_3   0.976329 0.429970 0.420350 -0.809634
H15   H     H_    0.069674 0.399898 0.400791 0.244561
H16   H     H_    0.902496 0.392547 0.446354 0.201380
H17   H     H_    0.909608 0.453796 0.371616 0.280821
C42   C     C_3   0.023060 0.571183 0.577746 -0.875498
H18   H     H_    0.928967 0.601806 0.595658 0.232033
H19   H     H_    0.089471 0.548770 0.627358 0.243333
H20   H     H_    0.097087 0.607899 0.550915 0.227373
O9    O     O_3   0.630782 0.608972 0.692365 -0.558973
C43   C     C_3   0.782557 0.622379 0.726360 -0.337279
H21   H     H_    0.837914 0.660282 0.692383 0.184150
H22   H     H_    0.852842 0.574963 0.730255 0.160357
H23   H     H_    0.783797 0.646527 0.781379 0.175492
O10   O     O_3   0.272919 0.429928 0.304293 -0.549302
C44   C     C_3   0.256290 0.361806 0.276772 -0.336702
H24   H     H_    0.204149 0.329293 0.317115 0.185821
H25   H     H_    0.368675 0.338607 0.269013 0.145874
H26   H     H_    0.176809 0.360000 0.224445 0.175554
O11   O     O_3   0.723843 0.579180 0.943394 -0.596119
C45   C     C_3   0.855960 0.539101 0.941606 -0.335395
H27   H     H_    0.831716 0.494116 0.903922 0.165893
H28   H     H_    0.902905 0.521640 0.997730 0.174205
H29   H     H_    0.946246 0.571373 0.920270 0.189055
O12   O     O_3   0.330419 0.394543 0.059668 -0.597776
C46   C     C_3   0.427114 0.337927 0.076186 -0.355098
H30   H     H_    0.525466 0.351346 0.118871 0.166544
H31   H     H_    0.470100 0.317775 0.025851 0.169124
H32   H     H_    0.359225 0.296022 0.098705 0.189612
O13   O     O_3   0.484871 0.852585 0.632090 -0.580071
C47   C     C_3   0.352927 0.834116 0.665180 -0.355981
H33   H     H_    0.370286 0.784893 0.695626 0.178470
H34   H     H_    0.246619 0.830964 0.624608 0.141779
H35   H     H_    0.334601 0.874534 0.705798 0.192751
O14   O     O_3   0.497745 0.146474 0.367286 -0.572611
C48   C     C_3   0.617800 0.167800 0.327290 -0.336839
H36   H     H_    0.729474 0.175869 0.363236 0.154513
H37   H     H_    0.585828 0.214977 0.295160 0.156034
H38   H     H_    0.635212 0.126659 0.287327 0.203538
O15   O     O_3   0.246714 0.069859 0.542473 -0.570672
C49   C     C_3   0.219106 0.052557 0.614505 -0.353510
H39   H     H_    0.326658 0.054442 0.654285 0.158972
H40   H     H_    0.161574 0.001184 0.615697 0.154920
H41   H     H_    0.139714 0.090790 0.633099 0.192808
O16   O     O_3   0.749639 0.931343 0.457169 -0.572653
C50   C     C_3   0.876658 0.937517 0.512604 -0.314721
H42   H     H_    0.847822 0.917688 0.566302 0.160956
H43   H     H_    0.920078 0.991684 0.518442 0.182498
H44   H     H_    0.971469 0.905957 0.496685 0.188529
O17   O     O_3   0.359511 0.393614 0.673547 -0.559396
C51   C     C_3   0.203052 0.387667 0.684466 -0.324665
H45   H     H_    0.146687 0.438586 0.684438 0.152360
H46   H     H_    0.190532 0.359569 0.736186 0.150194
H47   H     H_    0.140841 0.357110 0.638386 0.191270
O18   O     O_3   0.729753 0.568049 0.332233 -0.548131
C52   C     C_3   0.752311 0.635722 0.307080 -0.317068
H48   H     H_    0.807752 0.667189 0.354055 0.193811
H49   H     H_    0.642009 0.660836 0.285961 0.141922
H50   H     H_    0.831714 0.636058 0.264429 0.161304

loop_
_geom_bond_atom_site_label_1
_geom_bond_atom_site_label_2
_geom_bond_distance
_ccdc_geom_bond_type
C48   H36   1.114896 S    
C13   C15   1.404012 A    
O13   C47   1.411968 S    
C13   O13   1.387646 S    
C50   H42   1.114106 S    
C43   H23   1.110478 S    
O9    C43   1.412453 S    
C44   H24   1.109007 S    
C21   C23   1.406859 A    
O11   C45   1.410052 S    
O5    C3    1.281657 A    
O1    C1    1.299967 A    
C19   H7    1.082292 S    
C43   H22   1.114535 S    
C35   C40   1.421759 A    
C45   H28   1.113522 S    
Cu1   N1    2.020949 S    
C49   H39   1.114439 S    
C26   O18   1.385325 S    
C5    C6    1.360563 D    
C47   H35   1.109270 S    
C15   C17   1.404408 A    
C51   H45   1.113571 S    
C36   C38   1.406659 A    
C27   H9    1.079173 S    
O4    Cu1   1.949925 S    
C37   H13   1.079427 S    
C19   C24   1.400951 A    
O16   C50   1.410018 S    
C52   H50   1.110399 S    
C38   H14   1.079898 S    
C25   O17   1.382305 S    
C3    C5    1.435949 S    
C4    C6    1.436427 S    
C26   C28   1.415358 A    
C29   C31   1.403621 A    
C47   H34   1.114919 S    
C30   C32   1.406276 A    
C31   C33   1.412826 A    
C33   O9    1.383936 S    
C14   O14   1.388992 S    
C22   C24   1.405795 A    
C48   H37   1.110559 S    
Cu1   Cu2   2.689345 S    
C47   H33   1.110542 S    
C20   C23   1.401310 A    
O2    C2    1.300173 A    
C6    C42   1.518254 S    
C7    C17   1.402176 A    
C44   H25   1.115064 S    
C32   H12   1.076759 S    
C8    C18   1.402023 A    
Cu2   N2    2.020953 S    
C28   H10   1.078239 S    
C35   C37   1.405986 A    
C29   C40   1.520478 S    
C38   C40   1.410150 A    
C32   C34   1.412036 A    
C41   H15   1.109033 S    
C20   C22   1.398426 A    
C43   H21   1.108507 S    
O4    C2    1.298865 A    
C26   N2    1.368211 A    
C46   H30   1.113361 S    
C42   H19   1.108800 S    
C16   C18   1.404303 A    
C45   H27   1.113380 S    
C22   O16   1.383499 S    
C45   H29   1.109316 S    
C7    C9    1.390712 A    
C31   H11   1.077390 S    
C19   C21   1.402764 A    
O7    Cu2   1.964493 S    
C35   O11   1.380759 S    
C46   H31   1.113431 S    
C25   C27   1.413210 A    
C27   C29   1.406789 A    
O6    C4    1.280736 A    
C5    C41   1.519190 S    
C1    C18   1.469892 S    
C50   H43   1.111994 S    
O7    C3    1.295994 A    
C52   H48   1.109466 S    
O3    Cu2   1.949927 S    
O8    C4    1.297174 A    
C51   H46   1.110721 S    
C36   C39   1.423530 A    
C48   H38   1.109203 S    
C9    H3    1.083439 S    
C10   H4    1.083101 S    
O1    Cu1   1.949645 S    
C20   H8    1.083590 S    
C44   H26   1.110511 S    
O18   C52   1.411868 S    
C21   O15   1.387315 S    
C9    C11   1.400478 A    
O6    Cu2   1.966528 S    
C8    C10   1.389922 A    
O10   C44   1.413709 S    
O3    C1    1.299080 A    
O8    Cu1   1.964491 S    
C11   C24   1.468497 S    
C42   H20   1.111051 S    
C2    C17   1.469840 S    
C36   O12   1.380255 S    
C11   C13   1.407142 A    
O15   C49   1.412022 S    
C28   C30   1.409839 A    
C12   C14   1.407050 A    
C34   O10   1.384660 S    
C51   H47   1.109470 S    
C41   H17   1.109394 S    
C33   N1    1.372385 A    
C42   H18   1.107844 S    
C15   H5    1.081354 S    
C46   H32   1.109279 S    
C16   H6    1.080725 S    
O12   C46   1.409880 S    
C49   H40   1.110387 S    
C14   C16   1.405942 A    
O14   C48   1.412040 S    
C7    H1    1.082020 S    
C34   N2    1.367907 A    
C50   H44   1.109322 S    
C8    H2    1.082402 S    
O2    Cu2   1.949643 S    
C30   C39   1.522923 S    
C52   H49   1.114676 S    
C25   N1    1.371666 A    
C37   C39   1.411230 A    
O5    Cu1   1.966530 S    
C10   C12   1.400419 A    
C41   H16   1.111001 S    
O17   C51   1.411542 S    
C12   C23   1.468420 S    
C49   H41   1.109193 S    
