data_mof_unit_50564.cif
_audit_creation_date              2013-03-05T15:50:11-0500
_audit_creation_method            fapswitch 2.2
_symmetry_space_group_name_H-M    P1
_symmetry_Int_Tables_number       1
_space_group_crystal_system       triclinic
_cell_length_a                    15.044651
_cell_length_b                    15.053237
_cell_length_c                    34.876996
_cell_angle_alpha                 90.435273
_cell_angle_beta                  90.010769
_cell_angle_gamma                 60.101635
_cell_volume                      6847.14167315

loop_
_atom_site_label
_atom_site_type_symbol
_atom_site_description
_atom_site_fract_x
_atom_site_fract_y
_atom_site_fract_z
_atom_type_partial_charge
O1    O     O_R   0.502070 0.323090 0.541280 -0.507950
O2    O     O_R   0.338340 0.520690 0.539540 -0.506479
C1    C     C_R   0.302659 0.607907 0.555863 0.541835
O3    O     O_R   0.324760 0.674070 0.543580 -0.487465
O4    O     O_R   0.522400 0.640310 0.540110 -0.438378
C2    C     C_R   0.611694 0.589217 0.554873 0.567855
O5    O     O_R   0.675940 0.500630 0.542210 -0.522246
O6    O     O_R   0.641790 0.337020 0.538150 -0.496693
C3    C     C_R   0.590275 0.300360 0.553556 0.552182
O7    O     O_R   0.500260 0.324550 0.456580 -0.511991
O8    O     O_R   0.336660 0.522040 0.461020 -0.503297
C4    C     C_R   0.300892 0.609889 0.445831 0.540139
O9    O     O_R   0.322940 0.675540 0.458880 -0.513960
O10   O     O_R   0.520720 0.641670 0.461580 -0.495961
C5    C     C_R   0.608153 0.590303 0.445462 0.546194
O11   O     O_R   0.674120 0.502090 0.457500 -0.517245
O12   O     O_R   0.640110 0.338380 0.459630 -0.502899
C6    C     C_R   0.588147 0.302249 0.443900 0.547211
Cr1   Cr    Cr6+3 0.421670 0.426920 0.499620 1.036318
Cr2   Cr    Cr6+3 0.427030 0.651190 0.500980 1.102539
Cr3   Cr    Cr6+3 0.651280 0.421870 0.499380 1.039185
O13   O     O_3   0.499990 0.499990 0.499990 -0.259686
N1    N     N_R   0.684248 0.594443 0.770770 -0.221972
N2    N     N_R   0.684772 0.585833 0.732816 -0.170146
C7    C     C_R   0.636414 0.623863 0.591124 -0.028166
C8    C     C_R   0.724507 0.552702 0.611030 -0.127172
C9    C     C_R   0.738709 0.568110 0.649328 0.162131
C10   C     C_R   0.664344 0.656412 0.668512 -0.000056
C11   C     C_R   0.582297 0.733107 0.647906 -0.121704
C12   C     C_R   0.568084 0.718597 0.609096 0.192710
N3    N     N_R   0.646310 0.755901 0.726870 -0.184115
N4    N     N_R   0.646229 0.764298 0.764865 -0.133951
C13   C     C_R   0.664379 0.684066 0.787544 0.373601
C14   C     C_R   0.666729 0.666029 0.710228 0.372189
C15   C     C_R   0.740840 0.603129 0.849569 -0.106397
C16   C     C_R   0.761349 0.608812 0.888282 0.158713
C17   C     C_R   0.634311 0.789965 0.888101 -0.120881
C18   C     C_R   0.613954 0.784197 0.849557 0.158737
C19   C     C_R   0.671057 0.691015 0.829444 0.016516
C20   C     C_R   0.711474 0.704518 0.907489 -0.003346
H1    H     H_    0.780374 0.481339 0.597573 0.186139
H2    H     H_    0.527183 0.803080 0.662416 0.185826
H3    H     H_    0.783313 0.530159 0.834753 0.177075
H4    H     H_    0.592319 0.863850 0.902319 0.173442
C21   C     C_R   0.723903 0.070254 0.904821 0.022726
C22   C     C_R   0.638383 0.089407 0.882529 -0.095511
C23   C     C_R   0.637138 0.107729 0.843461 -0.094247
C24   C     C_R   0.720484 0.108849 0.826078 0.030893
C25   C     C_R   0.802530 0.097692 0.848624 -0.085842
C26   C     C_R   0.804540 0.077952 0.887788 -0.105776
C27   C     C_R   0.738167 0.191537 0.767118 -0.092198
C28   C     C_R   0.730353 0.203847 0.727423 -0.050060
C29   C     C_R   0.709712 0.139284 0.704459 0.083077
C30   C     C_R   0.701642 0.059444 0.721325 -0.003125
C31   C     C_R   0.706787 0.048838 0.761001 -0.042797
C32   C     C_R   0.723353 0.115875 0.784160 0.022759
C33   C     C_R   0.586179 0.195313 0.650420 0.127438
C34   C     C_R   0.558076 0.233100 0.613485 -0.090518
C35   C     C_R   0.728524 0.205336 0.601552 -0.113826
C36   C     C_R   0.759725 0.163936 0.638295 0.192652
C37   C     C_R   0.686724 0.162092 0.663482 0.011934
C38   C     C_R   0.627464 0.241898 0.589305 -0.051764
H5    H     H_    0.574982 0.084108 0.894705 0.164997
H6    H     H_    0.871602 0.063171 0.904196 0.143194
H7    H     H_    0.736600 0.265971 0.714714 0.152526
H8    H     H_    0.751041 0.243784 0.784621 0.135176
H9    H     H_    0.572465 0.117772 0.826496 0.157642
H10   H     H_    0.686736 0.008462 0.703885 0.181054
H11   H     H_    0.696115 0.989371 0.773734 0.182175
H12   H     H_    0.479342 0.262134 0.604703 0.176827
H13   H     H_    0.867361 0.098651 0.835564 0.140491
H14   H     H_    0.782843 0.210533 0.582651 0.173963
C39   C     C_R   0.091524 0.698340 0.910745 0.012587
C40   C     C_R   0.095144 0.772034 0.887157 -0.141152
C41   C     C_R   0.113303 0.754673 0.848045 -0.090012
C42   C     C_R   0.128390 0.663382 0.831557 0.009901
C43   C     C_R   0.135576 0.585046 0.855046 -0.077356
C44   C     C_R   0.118898 0.600792 0.894837 0.203024
C45   C     C_R   0.227386 0.580958 0.772572 -0.134469
C46   C     C_R   0.238348 0.576582 0.732898 -0.135725
C47   C     C_R   0.156599 0.643461 0.709573 -0.002540
C48   C     C_R   0.060919 0.712246 0.726189 0.217896
C49   C     C_R   0.049540 0.716023 0.766361 0.209816
C50   C     C_R   0.134328 0.652027 0.789564 0.006162
C51   C     C_R   0.178707 0.724875 0.651206 -0.062075
C52   C     C_R   0.214075 0.716677 0.613578 -0.097128
C53   C     C_R   0.237202 0.545578 0.608915 -0.114929
C54   C     C_R   0.202716 0.553600 0.646546 -0.086602
C55   C     C_R   0.175479 0.642291 0.668139 0.047003
C56   C     C_R   0.246613 0.625647 0.592461 0.008777
H15   H     H_    0.076324 0.846785 0.898296 0.154632
H16   H     H_    0.201142 0.489065 0.659372 0.161474
H17   H     H_    0.312063 0.523140 0.720333 0.151731
H18   H     H_    0.292645 0.531239 0.790147 0.144418
H19   H     H_    0.110417 0.814736 0.830238 0.157502
H20   H     H_    0.158877 0.793487 0.667779 0.173427
H21   H     H_    0.220723 0.779443 0.601759 0.178681
H22   H     H_    0.152122 0.512594 0.842215 0.168037
H23   H     H_    0.261758 0.474309 0.593494 0.147476
C57   C     C_R   0.691522 0.720439 0.091117 -0.017729
C58   C     C_R   0.623741 0.808640 0.112171 -0.152985
C59   C     C_R   0.603073 0.801724 0.150494 -0.138705
C60   C     C_R   0.648965 0.706621 0.168453 -0.002786
C61   C     C_R   0.708906 0.616324 0.146980 0.196001
C62   C     C_R   0.730169 0.622826 0.108050 0.225356
C63   C     C_R   0.551806 0.728185 0.229002 -0.061921
C64   C     C_R   0.549523 0.722162 0.268883 -0.089425
C65   C     C_R   0.638840 0.693042 0.290496 0.038061
C66   C     C_R   0.729489 0.672851 0.271624 -0.052986
C67   C     C_R   0.731627 0.678378 0.231840 -0.038511
C68   C     C_R   0.643588 0.703917 0.210372 0.042941
C69   C     C_R   0.554976 0.743277 0.355012 -0.101359
C70   C     C_R   0.548540 0.719006 0.393025 -0.118436
C71   C     C_R   0.713611 0.564081 0.386763 -0.118616
C72   C     C_R   0.720017 0.588445 0.348757 -0.114027
C73   C     C_R   0.639100 0.676408 0.332176 0.038170
C74   C     C_R   0.626023 0.627171 0.408813 0.023681
H24   H     H_    0.592566 0.884281 0.099928 0.177497
H25   H     H_    0.785525 0.535172 0.331715 0.119147
H26   H     H_    0.478911 0.736906 0.282679 0.108356
H27   H     H_    0.482992 0.749358 0.212639 0.166180
H28   H     H_    0.556415 0.871387 0.166840 0.161753
H29   H     H_    0.798845 0.651852 0.287605 0.144113
H30   H     H_    0.802038 0.662085 0.217576 0.209399
H31   H     H_    0.492508 0.812510 0.343064 0.125249
H32   H     H_    0.480263 0.769554 0.409356 0.136444
H33   H     H_    0.774485 0.492783 0.398084 0.135328
C75   C     C_R   0.701143 0.098404 0.089169 -0.009355
C76   C     C_R   0.785303 0.089945 0.109799 -0.132073
C77   C     C_R   0.775235 0.118704 0.148108 -0.128450
C78   C     C_R   0.680796 0.157132 0.166556 0.000850
C79   C     C_R   0.592862 0.177761 0.145501 0.204425
C80   C     C_R   0.602403 0.149732 0.106422 0.182071
C81   C     C_R   0.690172 0.238070 0.227542 -0.080324
C82   C     C_R   0.691333 0.240126 0.267416 -0.145128
C83   C     C_R   0.682833 0.165735 0.288747 0.005606
C84   C     C_R   0.675607 0.086372 0.269475 0.225952
C85   C     C_R   0.672242 0.086829 0.229312 -0.060259
C86   C     C_R   0.678686 0.162626 0.208486 0.008482
C87   C     C_R   0.737930 0.198287 0.352226 -0.107300
C88   C     C_R   0.715232 0.230792 0.390303 -0.122442
C89   C     C_R   0.558935 0.221889 0.386142 -0.114476
C90   C     C_R   0.581481 0.189879 0.348064 -0.059914
C91   C     C_R   0.669635 0.180617 0.330576 0.069369
C92   C     C_R   0.623573 0.246521 0.407154 0.020081
H34   H     H_    0.861266 0.053746 0.097234 0.199742
H35   H     H_    0.527223 0.177808 0.331636 0.144381
H36   H     H_    0.695808 0.301913 0.281732 0.132009
H37   H     H_    0.696576 0.296068 0.211549 0.182901
H38   H     H_    0.842925 0.104015 0.164114 0.165247
H39   H     H_    0.667117 0.026569 0.214033 0.162097
H40   H     H_    0.806390 0.191381 0.339110 0.119480
H41   H     H_    0.766598 0.248988 0.405800 0.133162
H42   H     H_    0.487700 0.233350 0.398303 0.138856
C93   C     C_R   0.088766 0.704923 0.093484 0.025204
C94   C     C_R   0.114327 0.605945 0.105765 -0.107374
C95   C     C_R   0.155714 0.571557 0.142000 -0.028965
C96   C     C_R   0.171530 0.635863 0.166667 0.055129
C97   C     C_R   0.153826 0.731015 0.153755 -0.034023
C98   C     C_R   0.114009 0.765806 0.117377 0.164563
C99   C     C_R   0.280516 0.607760 0.224111 0.145229
C100  C     C_R   0.289947 0.607014 0.263833 -0.095300
C101  C     C_R   0.214272 0.607929 0.287482 -0.045808
C102  C     C_R   0.132352 0.602311 0.271175 -0.090489
C103  C     C_R   0.119903 0.605845 0.231387 0.214080
C104  C     C_R   0.193066 0.611870 0.207573 0.019780
C105  C     C_R   0.209857 0.551256 0.354068 -0.108356
C106  C     C_R   0.227168 0.554383 0.393193 -0.117717
C107  C     C_R   0.253540 0.698935 0.383261 -0.118297
C108  C     C_R   0.237369 0.694993 0.344160 -0.111492
C109  C     C_R   0.219261 0.618770 0.329183 0.035489
C110  C     C_R   0.253298 0.625617 0.407847 0.025161
H43   H     H_    0.098016 0.556441 0.088039 0.173983
H44   H     H_    0.242637 0.749179 0.325364 0.116156
H45   H     H_    0.355729 0.607362 0.276330 0.143387
H46   H     H_    0.169739 0.497433 0.151642 0.182224
H47   H     H_    0.074195 0.602206 0.289479 0.151736
H48   H     H_    0.195042 0.492487 0.342976 0.121946
H49   H     H_    0.226387 0.497058 0.411551 0.130263
H50   H     H_    0.166449 0.780746 0.172866 0.164815
H51   H     H_    0.273712 0.754547 0.393668 0.133127
O14   O     O_R   0.017640 0.822070 0.960410 -0.520279
O15   O     O_R   0.822000 0.989470 0.960340 -0.500970
C111  C     C_R   0.736104 0.025100 0.943161 0.549976
O16   O     O_R   0.666920 0.007430 0.955290 -0.504060
O17   O     O_R   0.694410 0.812480 0.959650 -0.517996
C112  C     C_R   0.745469 0.722903 0.945035 0.567708
O18   O     O_R   0.831550 0.656950 0.958960 -0.431857
O19   O     O_R   0.998590 0.685540 0.963930 -0.444881
C113  C     C_R   0.039010 0.733648 0.948375 0.568447
O20   O     O_R   0.008220 0.831200 0.045060 -0.456009
O21   O     O_R   0.813270 0.997930 0.038810 -0.497272
C114  C     C_R   0.722717 0.039370 0.052863 0.566266
O22   O     O_R   0.657500 0.016560 0.039940 -0.462945
O23   O     O_R   0.685680 0.820940 0.038120 -0.506435
C115  C     C_R   0.732993 0.734187 0.054598 0.568496
O24   O     O_R   0.822130 0.666070 0.043610 -0.448050
O25   O     O_R   0.989860 0.694000 0.042400 -0.502868
C116  C     C_R   0.027854 0.744713 0.058027 0.562659
Cr4   Cr    Cr6+3 0.910810 0.908010 0.001130 1.086937
Cr5   Cr    Cr6+3 0.682800 0.909890 0.998370 1.084922
Cr6   Cr    Cr6+3 0.908370 0.682300 0.002180 1.175630
O26   O     O_3   0.833990 0.833400 0.000560 -0.290297
N5    N     N_R   0.864409 0.126433 0.649790 0.087263
O27   O     O_R   0.909244 0.050128 0.673389 -0.277616
O28   O     O_R   0.918684 0.161616 0.633800 -0.290927
Br1   Br    Br    0.479378 0.203317 0.683107 -0.488443
N6    N     N_R   0.484227 0.799777 0.588780 0.098398
O29   O     O_R   0.499526 0.826163 0.555043 -0.303312
O30   O     O_R   0.397570 0.858125 0.606265 -0.310793
N7    N     N_R   0.129720 0.517962 0.918360 0.097149
O31   O     O_R   0.112079 0.448092 0.904123 -0.267415
O32   O     O_R   0.172019 0.503438 0.951995 -0.288621
Br2   Br    Br    0.946041 0.798949 0.694083 -0.384491
Br3   Br    Br    0.917982 0.806148 0.789570 -0.473295
Br4   Br    Br    0.858934 0.483154 0.912343 -0.332221
N8    N     N_R   0.791181 0.531096 0.086015 0.117331
O33   O     O_R   0.758460 0.518194 0.053055 -0.270813
O34   O     O_R   0.882089 0.463162 0.097649 -0.240395
Br5   Br    Br    0.860632 0.465019 0.673998 -0.379430
Br6   Br    Br    0.758694 0.484639 0.170726 -0.371015
Br7   Br    Br    0.480194 0.182901 0.077674 -0.338519
N9    N     N_R   0.674230 0.004276 0.289936 0.071050
O35   O     O_R   0.632915 0.954510 0.274519 -0.340742
O36   O     O_R   0.724626 0.970780 0.321830 -0.320848
Br8   Br    Br    0.460991 0.241544 0.170749 -0.393102
Br9   Br    Br    0.092040 0.899240 0.104426 -0.443272
Br10  Br    Br    0.388506 0.604373 0.193604 -0.479470
N10   N     N_R   0.029933 0.608826 0.216015 0.067695
O37   O     O_R   0.998948 0.548918 0.229954 -0.344137
O38   O     O_R   0.970784 0.680862 0.192468 -0.355957
Br11  Br    Br    0.506882 0.906814 0.826651 -0.443599

loop_
_geom_bond_atom_site_label_1
_geom_bond_atom_site_label_2
_geom_bond_distance
_ccdc_geom_bond_type
C34   C38   1.399434 A    
C43   C44   1.407460 A    
C31   C32   1.403962 A    
C103  C104  1.417972 A    
C71   H33   1.083017 S    
C11   H2    1.083726 S    
C26   H6    1.082984 S    
C107  C108  1.391195 A    
C61   Br6   1.928952 S    
N9    O35   1.301800 A    
C69   C73   1.402677 A    
C97   H50   1.083917 S    
O15   C111  1.276807 A    
C6    C92   1.472582 S    
C75   C76   1.406215 A    
C42   C50   1.470783 S    
C47   C48   1.409017 A    
C41   H19   1.083724 S    
C82   C83   1.406866 A    
C4    C110  1.469407 S    
C20   C112  1.479280 S    
C29   C30   1.400516 A    
C111  O16   1.269230 A    
C90   H35   1.083395 S    
C4    O9    1.270326 A    
O8    Cr1   1.923884 S    
C57   C62   1.416787 A    
C58   C59   1.388727 A    
C1    C56   1.477269 S    
O4    C2    1.279478 A    
C58   H24   1.083387 S    
C94   C95   1.393216 A    
C17   C18   1.390332 A    
O20   C116  1.269745 A    
C100  C101  1.400436 A    
C17   C20   1.408440 A    
C97   C98   1.392802 A    
C51   C52   1.397477 A    
C18   C19   1.407704 A    
C46   C47   1.402019 A    
C51   H20   1.083352 S    
C2    C7    1.480541 S    
C30   H10   1.083357 S    
C108  C109  1.402162 A    
C90   C91   1.401812 A    
C65   C66   1.403407 A    
C60   C68   1.466273 S    
C27   C32   1.401284 A    
C39   C40   1.408728 A    
O16   Cr5   2.038174 S    
C52   H21   1.082946 S    
C67   C68   1.399688 A    
C61   C62   1.410274 A    
C67   H30   1.081262 S    
C48   Br2   1.927947 S    
C77   C78   1.393787 A    
C29   C37   1.472692 S    
C36   N5    1.441073 S    
C95   C96   1.396678 A    
C54   H16   1.083478 S    
O6    C3    1.274731 A    
N1    C13   1.355655 A    
C25   H13   1.083193 S    
O25   Cr6   1.926820 S    
N1    N2    1.328688 A    
O25   C116  1.278732 A    
C15   H3    1.083361 S    
C87   H40   1.083328 S    
C99   C104  1.409469 A    
C114  O22   1.271641 A    
C88   C92   1.405620 A    
C35   H14   1.083150 S    
C99   Br10  1.921333 S    
C47   C55   1.471062 S    
C87   C91   1.402050 A    
C93   C98   1.419121 A    
C10   C14   1.463216 S    
C9    Br5   1.922247 S    
C105  C106  1.393965 A    
Cr3   O13   1.973638 S    
C103  N10   1.435657 S    
Cr5   O26   1.973756 S    
C89   C92   1.405432 A    
C59   C60   1.395196 A    
C46   H17   1.083765 S    
C23   H9    1.083579 S    
C69   C70   1.393987 A    
N10   O37   1.301053 A    
C80   Br7   1.930478 S    
C53   H23   1.083006 S    
C63   C68   1.398627 A    
C57   C115  1.478980 S    
C87   C88   1.394029 A    
C94   H43   1.083043 S    
O1    Cr1   2.041134 S    
C40   C41   1.388270 A    
C27   C28   1.395334 A    
C71   C74   1.404081 A    
C23   C24   1.400574 A    
O10   Cr2   1.921453 S    
O23   C115  1.275502 A    
C16   C20   1.412514 A    
Cr1   O13   1.972377 S    
O1    C3    1.269147 A    
C75   C114  1.481180 S    
C45   H18   1.083502 S    
Cr6   O26   1.973181 S    
C81   C86   1.394814 A    
O4    Cr2   1.927795 S    
C51   C55   1.402837 A    
N6    O29   1.301376 A    
O21   Cr4   1.925132 S    
C105  C109  1.401062 A    
C70   H32   1.083044 S    
N8    O33   1.301252 A    
C21   C22   1.405789 A    
O22   Cr5   2.044697 S    
O12   Cr3   1.927109 S    
C66   H29   1.083042 S    
C3    C38   1.472264 S    
O17   Cr5   1.928470 S    
C36   C37   1.417665 A    
C15   C16   1.396400 A    
C40   H15   1.083082 S    
C15   C19   1.405094 A    
C41   C42   1.395629 A    
N7    O31   1.301367 A    
C77   H38   1.083890 S    
C11   C12   1.402695 A    
C79   Br8   1.929270 S    
C49   Br3   1.928785 S    
C49   C50   1.412959 A    
C106  C110  1.406217 A    
O7    Cr1   2.043304 S    
C39   C44   1.420740 A    
C12   N6    1.436270 S    
O12   C6    1.275587 A    
C8    C9    1.388594 A    
N3    C14   1.354753 A    
O14   Cr4   2.042989 S    
C43   H22   1.083362 S    
C13   C19   1.471276 S    
N5    O27   1.301361 A    
C33   C37   1.412396 A    
C107  H51   1.083164 S    
C76   H34   1.082029 S    
C31   H11   1.083359 S    
C70   C74   1.406396 A    
N6    O30   1.301380 A    
C24   C25   1.401822 A    
N7    O32   1.301466 A    
N5    O28   1.301548 A    
C48   C49   1.408831 A    
C62   N8    1.435405 S    
C52   C56   1.405645 A    
C96   C97   1.398125 A    
C85   H39   1.084037 S    
C107  C110  1.404212 A    
C64   C65   1.408328 A    
C1    O3    1.273851 A    
C10   C11   1.401652 A    
C64   H26   1.082990 S    
C93   C94   1.410569 A    
C101  C109  1.468386 S    
C28   C29   1.404070 A    
C96   C104  1.470327 S    
C76   C77   1.386140 A    
C108  H44   1.083492 S    
C7    C12   1.417211 A    
C24   C32   1.468800 S    
C84   N9    1.440774 S    
C22   C23   1.390553 A    
C102  C103  1.398097 A    
C35   C38   1.402177 A    
N4    C13   1.358131 A    
O9    Cr2   2.043955 S    
O2    Cr1   1.925937 S    
C89   C90   1.392276 A    
N3    N4    1.330147 A    
C34   H12   1.083376 S    
C39   C113  1.483338 S    
Cr2   O13   1.973480 S    
C115  O24   1.272792 A    
C78   C79   1.406907 A    
O6    Cr3   1.920497 S    
C30   C31   1.391888 A    
C18   Br11  1.922974 S    
O8    C4    1.272824 A    
N9    O36   1.301358 A    
O11   Cr3   2.037263 S    
C71   C72   1.394102 A    
C2    O5    1.270359 A    
C100  H45   1.083711 S    
O19   Cr6   1.921474 S    
N8    O34   1.301037 A    
C106  H49   1.083164 S    
O14   C113  1.271284 A    
C84   C85   1.401597 A    
C33   Br1   1.923931 S    
C81   C82   1.391098 A    
C72   H25   1.082930 S    
O15   Cr4   1.924883 S    
C98   Br9   1.923462 S    
O24   Cr6   2.037902 S    
C22   H5    1.083065 S    
O21   C114  1.278176 A    
C65   C73   1.476648 S    
C17   H4    1.083181 S    
O2    C1    1.273621 A    
C7    C8    1.407697 A    
O20   Cr4   2.041782 S    
C83   C91   1.472666 S    
O5    Cr3   2.045983 S    
C75   C80   1.419439 A    
O23   Cr5   1.920180 S    
C42   C43   1.400325 A    
C81   H37   1.083477 S    
C88   H41   1.083039 S    
C33   C34   1.390287 A    
C45   C50   1.397607 A    
C99   C100  1.392150 A    
C21   C26   1.406964 A    
O7    C6    1.269653 A    
Cr4   O26   1.972612 S    
C5    O11   1.272407 A    
C63   H27   1.082889 S    
O18   Cr6   2.045437 S    
C57   C58   1.406279 A    
C79   C80   1.409710 A    
C82   H36   1.083633 S    
O19   C113  1.278137 A    
C93   C116  1.480334 S    
N2    C14   1.356238 A    
C101  C102  1.397311 A    
C78   C86   1.463530 S    
C85   C86   1.400623 A    
C102  H47   1.083832 S    
C95   H46   1.083316 S    
C45   C46   1.390713 A    
O3    Cr2   2.039172 S    
C5    C74   1.474380 S    
C35   C36   1.404000 A    
C105  H48   1.083201 S    
C54   C55   1.398931 A    
C8    H1    1.083075 S    
C53   C54   1.393432 A    
N10   O38   1.301334 A    
C25   C26   1.397203 A    
C63   C64   1.396113 A    
C53   C56   1.408111 A    
C66   C67   1.391993 A    
C60   C61   1.408707 A    
O10   C5    1.274308 A    
C83   C84   1.417069 A    
C112  O18   1.274365 A    
C89   H42   1.083027 S    
C69   H31   1.083069 S    
O17   C112  1.274834 A    
C59   H28   1.083800 S    
C44   N7    1.437840 S    
C27   H8    1.083171 S    
C16   Br4   1.921653 S    
C28   H7    1.083395 S    
C72   C73   1.405012 A    
C21   C111  1.474131 S    
C9    C10   1.403719 A    
