data_mof_unit_30195.cif
_audit_creation_date              2012-12-11T17:23:06-0500
_audit_creation_method            fapswitch 2.2
_symmetry_space_group_name_H-M    P1
_symmetry_Int_Tables_number       1
_space_group_crystal_system       triclinic
_cell_length_a                    22.40574
_cell_length_b                    7.095553
_cell_length_c                    19.392659
_cell_angle_alpha                 90.001834
_cell_angle_beta                  99.55925
_cell_angle_gamma                 89.997304
_cell_volume                      3040.25632181

loop_
_atom_site_label
_atom_site_type_symbol
_atom_type_description
_atom_site_fract_x
_atom_site_fract_y
_atom_site_fract_z
_atom_type_partial_charge
O1    O     O_R   0.443980 0.494320 0.557430 -0.534192
O2    O     O_R   0.556020 0.994320 0.442570 -0.534196
O3    O     O_R   0.441210 0.822520 0.414610 -0.536546
O4    O     O_R   0.558790 0.322520 0.585390 -0.536543
C1    C     C_R   0.426670 0.655384 0.388773 0.706395
C2    C     C_R   0.573328 0.155380 0.611228 0.706388
O5    O     O_R   0.436920 0.823940 0.555180 -0.536466
O6    O     O_R   0.563080 0.323940 0.444820 -0.536463
O7    O     O_R   0.551700 0.995760 0.584140 -0.533985
O8    O     O_R   0.448300 0.495760 0.415860 -0.533987
C3    C     C_R   0.421616 0.655403 0.574892 0.720398
C4    C     C_R   0.578383 0.155396 0.425108 0.720401
O9    O     O_3   0.537660 0.661290 0.509340 -0.371109
O10   O     O_3   0.462340 0.161290 0.490660 -0.371112
V1    V     V_3+5 0.493010 0.935560 0.498270 1.447084
V2    V     V_3+5 0.506990 0.435560 0.501730 1.447085
C5    C     C_R   0.769046 0.931948 0.230137 -0.130412
C6    C     C_R   0.230850 0.431938 0.769720 -0.130398
H1    H     H_    0.783436 0.794041 0.215399 0.116007
H2    H     H_    0.216378 0.294024 0.784345 0.116012
C7    C     C_R   0.793329 0.095284 0.204630 0.133030
C8    C     C_R   0.206672 0.595273 0.795370 0.133036
C9    C     C_R   0.773851 0.272205 0.224706 -0.131273
C10   C     C_R   0.226253 0.772203 0.775437 -0.131290
H3    H     H_    0.792010 0.400032 0.205711 0.116801
H4    H     H_    0.208177 0.900031 0.794542 0.116798
C11   C     C_R   0.730759 0.285614 0.269578 -0.129999
C12   C     C_R   0.269345 0.785624 0.730564 -0.129992
H5    H     H_    0.716382 0.423522 0.284330 0.116059
H6    H     H_    0.283803 0.923539 0.715924 0.116061
C13   C     C_R   0.706492 0.122278 0.295107 0.133523
C14   C     C_R   0.293506 0.622288 0.704892 0.133527
C15   C     C_R   0.725953 0.945356 0.275008 -0.130237
C16   C     C_R   0.273942 0.445357 0.724849 -0.130245
C17   C     C_1   0.838305 0.081685 0.158438 -0.036543
C18   C     C_1   0.161696 0.581667 0.841562 -0.036537
C19   C     C_1   0.661614 0.135870 0.341427 -0.035048
C20   C     C_1   0.338385 0.635888 0.658573 -0.035043
C21   C     C_1   0.623911 0.145881 0.379810 -0.168234
C22   C     C_1   0.376088 0.645900 0.620190 -0.168235
C23   C     C_1   0.876117 0.071655 0.120200 -0.170312
C24   C     C_1   0.123884 0.571636 0.879800 -0.170310
C25   C     C_R   0.631518 0.171778 0.804800 0.169226
C26   C     C_R   0.368451 0.672462 0.195221 0.169222
H7    H     H_    0.544837 0.194903 0.738872 0.137195
H8    H     H_    0.455131 0.695594 0.261148 0.137199
H9    H     H_    0.716606 0.162552 0.921079 0.166834
H10   H     H_    0.283350 0.663555 0.078953 0.166834
C27   C     C_R   0.615452 0.148025 0.678359 -0.079636
C28   C     C_R   0.384546 0.648069 0.321642 -0.079645
C29   C     C_R   0.909905 0.046626 0.760358 -0.186397
C30   C     C_R   0.090113 0.546219 0.239630 -0.186369
C31   C     C_R   0.873177 0.047903 0.695093 0.224302
C32   C     C_R   0.126849 0.547314 0.304891 0.224309
C33   C     C_R   0.810768 0.072295 0.689306 -0.184704
C34   C     C_R   0.189249 0.571857 0.310683 -0.184689
C35   C     C_R   0.783119 0.096465 0.749269 0.056063
C36   C     C_R   0.216884 0.596382 0.250730 0.056065
C37   C     C_R   0.821417 0.096193 0.816193 0.068463
C38   C     C_R   0.178577 0.596327 0.183812 0.068471
C39   C     C_R   0.718888 0.120729 0.744950 0.066720
C40   C     C_R   0.281110 0.620789 0.255055 0.066721
C41   C     C_R   0.694570 0.145671 0.807821 0.080097
C42   C     C_R   0.305409 0.646146 0.192193 0.080113
C43   C     C_R   0.733515 0.144527 0.872473 -0.154858
C44   C     C_R   0.266455 0.645213 0.127549 -0.154854
C45   C     C_R   0.795500 0.120064 0.876610 -0.182570
C46   C     C_R   0.204478 0.620572 0.123407 -0.182598
C47   C     C_R   0.677816 0.121540 0.680409 -0.210027
C48   C     C_R   0.322192 0.621364 0.319588 -0.210031
C49   C     C_R   0.592932 0.173444 0.740472 -0.176539
C50   C     C_R   0.407045 0.673929 0.259543 -0.176506
C51   C     C_R   0.885039 0.070844 0.821220 -0.119542
C52   C     C_R   0.114963 0.570804 0.178780 -0.119555
H11   H     H_    0.785441 0.071513 0.637066 0.135629
H12   H     H_    0.214588 0.570908 0.362916 0.135625
H13   H     H_    0.823136 0.120302 0.928035 0.107834
H14   H     H_    0.176832 0.620986 0.071990 0.107873
O11   O     O_R   0.051730 0.724670 0.084120 -0.533037
O12   O     O_R   0.948270 0.224670 0.915880 -0.533027
O13   O     O_R   0.063080 0.393540 0.944820 -0.535907
O14   O     O_R   0.936920 0.893540 0.055180 -0.535908
C53   C     C_R   0.078230 0.562113 0.924922 0.716110
C54   C     C_R   0.921771 0.062120 0.075078 0.716112
O15   O     O_R   0.058800 0.395030 0.085390 -0.535248
O16   O     O_R   0.941200 0.895030 0.914610 -0.535252
O17   O     O_R   0.943980 0.223310 0.057440 -0.534416
O18   O     O_R   0.056020 0.723310 0.942560 -0.534421
C55   C     C_R   0.072991 0.563529 0.111246 0.696091
C56   C     C_R   0.927010 0.063532 0.888752 0.696096
O19   O     O_3   0.962360 0.556290 0.990650 -0.370085
O20   O     O_3   0.037640 0.056290 0.009350 -0.370091
V3    V     V_3+5 0.006980 0.281990 0.001730 1.448187
V4    V     V_3+5 0.993020 0.781990 0.998270 1.448168
H15   H     H_    0.707807 0.817527 0.294016 0.116910
H16   H     H_    0.292005 0.317528 0.705730 0.116911
I1    I     I_    0.912335 0.011576 0.604210 -0.327019
I2    I     I_    0.087715 0.510379 0.395753 -0.327044
I3    I     I_    0.589588 0.211716 0.894500 -0.345392
I4    I     I_    0.410350 0.713115 0.105543 -0.345419
H17   H     H_    0.692611 0.103495 0.630747 0.105730
H18   H     H_    0.307410 0.602996 0.369243 0.105740
H19   H     H_    0.958238 0.026411 0.763633 0.135017
H20   H     H_    0.041788 0.525843 0.236350 0.135022

loop_
_geom_bond_atom_site_label_1
_geom_bond_atom_site_label_2
_ccdc_geom_bond_type
C36   C40   A    
C44   C46   A    
C41   C43   A    
C34   H12   S    
C11   H5    S    
C18   C24   T    
C45   H13   S    
C54   O17   A    
O2    C4    A    
C2    O7    A    
C25   C41   A    
C26   C42   A    
O5    C3    A    
O14   V4    S    
C52   C55   S    
C10   H4    S    
C51   C56   S    
C30   C52   A    
C35   C37   A    
H7    C49   S    
C29   H19   S    
C40   C48   A    
C38   C52   A    
C39   C41   A    
C28   C50   A    
C40   C42   A    
O16   V4    S    
C37   C45   A    
O15   V3    S    
C43   C45   A    
O1    C3    A    
C13   C15   A    
C9    C11   A    
C37   C51   A    
H8    C50   S    
C33   H11   S    
O5    V1    S    
C53   O18   A    
O6    V2    S    
C27   C47   A    
C5    C15   A    
C15   H15   S    
O13   C53   A    
C30   C32   A    
O18   V4    S    
C31   C33   A    
C46   H14   S    
C32   C34   A    
C11   C13   A    
C29   C51   A    
C12   C14   A    
O11   V4    S    
O4    C2    A    
O16   C56   A    
O15   C55   A    
C31   I1    S    
C23   C54   S    
C5    C7    A    
C13   C19   S    
C29   C31   A    
C14   C16   A    
O4    V2    S    
O19   V3    S    
O13   V3    S    
O6    C4    A    
O20   V4    S    
O1    V2    S    
O2    V1    S    
C6    C16   A    
C14   C20   S    
C33   C35   A    
C8    C10   A    
C1    C28   S    
O3    V1    S    
C39   C47   A    
C30   H20   S    
C25   C49   A    
C6    C8    A    
C24   C53   S    
C10   C12   A    
C16   H16   S    
O3    C1    A    
C48   H18   S    
C35   C39   A    
C7    C17   S    
C47   H17   S    
C8    C18   S    
O14   C54   A    
C4    C21   S    
C7    C9    A    
C28   C48   A    
C1    O8    A    
C19   C21   T    
O8    V2    S    
C25   I3    S    
O19   V4    S    
C20   C22   T    
C26   I4    S    
O17   V3    S    
C12   H6    S    
O20   V3    S    
C5    H1    S    
C34   C36   A    
C26   C50   A    
C6    H2    S    
C9    H3    S    
C2    C27   S    
O12   C56   A    
C3    C22   S    
C17   C23   T    
O11   C55   A    
C38   C46   A    
C27   C49   A    
O9    V2    S    
O10   V1    S    
C32   I2    S    
H10   C44   S    
O12   V3    S    
C36   C38   A    
H9    C43   S    
O7    V1    S    
C42   C44   A    
