data_mof_unit_9483.cif
_audit_creation_date              2012-10-26T18:59:56-0400
_audit_creation_method            fapswitch 2.2
_symmetry_space_group_name_H-M    P1
_symmetry_Int_Tables_number       1
_space_group_crystal_system       triclinic
_cell_length_a                    9.530981
_cell_length_b                    10.832961
_cell_length_c                    17.12964
_cell_angle_alpha                 89.126663
_cell_angle_beta                  94.692354
_cell_angle_gamma                 89.837613
_cell_volume                      1762.46645512

loop_
_atom_site_label
_atom_site_type_symbol
_atom_type_description
_atom_site_fract_x
_atom_site_fract_y
_atom_site_fract_z
_atom_type_partial_charge
C1    C     C_R   0.499941 0.262259 0.498840 0.559025
C2    C     C_R   0.498528 0.129288 0.491457 0.018313
C3    C     C_R   0.370196 0.065117 0.483278 -0.145940
C4    C     C_R   0.518877 0.496396 0.651229 0.573939
C5    C     C_R   0.369964 0.936459 0.483396 -0.151473
C6    C     C_R   0.498019 0.870966 0.491418 0.012589
C7    C     C_R   0.623736 0.936077 0.488898 0.013807
C8    C     C_3   0.755886 0.927535 0.541979 -0.258131
C9    C     C_3   0.756444 0.067551 0.541806 -0.261269
C10   C     C_R   0.069910 0.602651 0.476058 0.156313
C11   C     C_R   0.079348 0.403809 0.531212 0.020824
C12   C     C_R   0.656145 0.462918 0.784698 0.222939
C13   C     C_R   0.930534 0.403675 0.530955 0.054574
C14   C     C_R   0.922379 0.602485 0.475862 0.163873
C15   C     C_3   0.905274 0.662745 0.396825 -0.279981
C16   C     C_R   0.499598 0.737735 0.498749 0.538587
C17   C     C_3   0.064516 0.663918 0.397395 -0.272008
C18   C     C_R   0.481363 0.501484 0.348940 0.568713
C19   C     C_R   0.530997 0.496768 0.737835 -0.006792
C20   C     C_R   0.411855 0.533720 0.775102 -0.188162
C21   C     C_R   0.415098 0.537740 0.856225 -0.092990
C22   C     C_R   0.538722 0.505285 0.902299 0.184411
C23   C     C_R   0.579394 0.531385 0.141301 -0.101642
C24   C     C_R   0.657779 0.469856 0.866175 -0.084841
C25   C     C_R   0.588706 0.526397 0.222570 -0.208994
C26   C     C_R   0.448831 0.513693 0.098050 0.170023
C27   C     C_R   0.468545 0.504691 0.262722 0.013404
C28   C     C_R   0.337811 0.487628 0.219527 0.348657
C29   C     C_R   0.328717 0.493138 0.137867 -0.060377
C30   C     C_R   0.624040 0.063229 0.488864 0.019050
Cu1   Cu    Cu3+1 0.640670 0.499980 0.500000 1.013689
Cu2   Cu    Cu3+1 0.359330 0.500020 0.500000 0.990819
F1    F     F_    0.219253 0.463005 0.255589 -0.642582
H1    H     H_    0.690486 0.539912 0.253775 0.141438
H2    H     H_    0.858133 0.756496 0.398201 0.128351
H3    H     H_    0.105011 0.604209 0.352134 0.223841
H4    H     H_    0.674599 0.549050 0.112620 0.161214
H5    H     H_    0.109226 0.758461 0.399922 0.118354
H6    H     H_    0.751839 0.444992 0.902819 0.155877
H7    H     H_    0.321293 0.567077 0.882551 0.155368
H8    H     H_    0.227921 0.479148 0.105265 0.149233
H9    H     H_    0.315181 0.560703 0.741415 0.163807
H10   H     H_    0.270265 0.113516 0.480668 0.136578
H11   H     H_    0.980901 0.420631 0.837378 0.342226
H12   H     H_    0.269990 0.888985 0.481201 0.131166
H13   H     H_    0.738798 0.885641 0.600108 0.161544
H14   H     H_    0.844872 0.887577 0.512622 0.136557
H15   H     H_    0.739984 0.106779 0.599905 0.192139
H16   H     H_    0.845437 0.107676 0.511997 0.129533
H17   H     H_    0.138603 0.325030 0.555502 0.123800
H18   H     H_    0.878980 0.324795 0.554806 0.156193
H19   H     H_    0.854950 0.601255 0.351688 0.155774
N1    N     N_2   0.549240 0.506514 0.985186 -0.233670
N2    N     N_2   0.434599 0.514319 0.014955 -0.233206
N3    N     N_R   0.147870 0.500930 0.499500 -0.231656
N4    N     N_R   0.851960 0.500890 0.499500 -0.227243
O1    O     O_R   0.618810 0.319640 0.500000 -0.504502
O2    O     O_2   0.880648 0.506111 0.703309 -0.297998
O3    O     O_3   0.924657 0.348636 0.818479 -0.507317
O4    O     O_R   0.381230 0.319680 0.499990 -0.517689
O5    O     O_R   0.631790 0.498830 0.613930 -0.415635
O6    O     O_R   0.394210 0.498870 0.613920 -0.513125
O7    O     O_R   0.618770 0.680320 0.500010 -0.506917
O8    O     O_R   0.381190 0.680360 0.500000 -0.516197
O9    O     O_R   0.605790 0.501130 0.386080 -0.528274
O10   O     O_R   0.368210 0.501170 0.386070 -0.439791
O11   O     O_2   0.771016 0.302199 0.690976 -0.285666
S1    S     S_3+6 0.810267 0.404793 0.746457 0.007526

loop_
_geom_bond_atom_site_label_1
_geom_bond_atom_site_label_2
_ccdc_geom_bond_type
C23   C26   A    
C20   H9    S    
C6    C7    A    
C16   O7    A    
C4    O6    A    
O3    S1    S    
C25   C27   A    
C12   S1    S    
C15   H2    S    
C12   C24   A    
Cu2   N3    S    
C14   N4    A    
C19   C20   A    
C25   H1    S    
C2    C30   A    
C13   N4    A    
Cu1   O1    S    
C2    C3    A    
C8    H14   S    
Cu2   O6    S    
C7    C8    S    
C11   H17   S    
C23   H4    S    
N1    N2    D    
C18   O9    A    
C10   N3    A    
C11   C13   A    
C3    H10   S    
C16   O8    A    
C21   H7    S    
C9    C30   S    
C9    H15   S    
C26   N2    S    
C12   C19   A    
C21   C22   A    
C28   C29   A    
C17   H3    S    
C28   F1    S    
C22   N1    S    
C8    H13   S    
C17   H5    S    
C23   C25   A    
C13   H18   S    
C5    C6    A    
Cu1   N4    S    
C22   C24   A    
C11   N3    A    
C18   O10   A    
Cu2   O4    S    
H11   O3    S    
C6    C16   S    
O11   S1    D    
Cu1   O7    S    
C24   H6    S    
C9    H16   S    
C20   C21   A    
Cu2   O8    S    
C26   C29   A    
C7    C30   A    
C1    C2    S    
C10   C14   A    
C1    O4    A    
O2    S1    D    
C27   C28   A    
C15   C17   S    
Cu1   O9    S    
C14   C15   S    
Cu1   O5    S    
C10   C17   S    
C29   H8    S    
C15   H19   S    
C4    C19   S    
C5    H12   S    
C4    O5    A    
C18   C27   S    
Cu1   Cu2   S    
Cu2   O10   S    
C8    C9    S    
C3    C5    A    
C1    O1    A    
