data_mof_unit_40476.cif
_audit_creation_date              2013-03-05T15:45:32-0500
_audit_creation_method            fapswitch 2.2
_symmetry_space_group_name_H-M    P1
_symmetry_Int_Tables_number       1
_space_group_crystal_system       triclinic
_cell_length_a                    11.413137
_cell_length_b                    11.404643
_cell_length_c                    18.845286
_cell_angle_alpha                 89.588367
_cell_angle_beta                  89.149772
_cell_angle_gamma                 60.851182
_cell_volume                      2142.07024689

loop_
_atom_site_label
_atom_site_type_symbol
_atom_site_description
_atom_site_fract_x
_atom_site_fract_y
_atom_site_fract_z
_atom_type_partial_charge
O1    O     O_R   0.507430 0.255570 0.581420 -0.445094
O2    O     O_R   0.280190 0.527390 0.578910 -0.480731
C1    C     C_R   0.237114 0.643242 0.608134 0.617132
O3    O     O_R   0.260310 0.739740 0.584580 -0.426037
O4    O     O_R   0.532250 0.695150 0.573830 -0.448471
C2    C     C_R   0.631620 0.596690 0.608237 0.592418
O5    O     O_R   0.744930 0.503430 0.576380 -0.445249
O6    O     O_R   0.699250 0.276390 0.571950 -0.495447
C3    C     C_R   0.625697 0.234119 0.603314 0.600431
O7    O     O_R   0.499020 0.256400 0.419850 -0.519734
O8    O     O_R   0.272400 0.528160 0.429140 -0.516521
C4    C     C_R   0.235475 0.644809 0.398565 0.560809
O9    O     O_R   0.251910 0.740570 0.423020 -0.450109
O10   O     O_R   0.524460 0.695920 0.424060 -0.477482
C5    C     C_R   0.641527 0.617915 0.391496 0.552112
O11   O     O_R   0.736530 0.504260 0.414810 -0.479437
O12   O     O_R   0.691460 0.277160 0.422180 -0.491574
C6    C     C_R   0.615660 0.229636 0.396721 0.555717
Cr1   Cr    Cr6+3 0.392930 0.397900 0.502230 1.120438
Cr2   Cr    Cr6+3 0.398240 0.708600 0.501260 1.165114
Cr3   Cr    Cr6+3 0.708800 0.393470 0.496460 1.129093
O13   O     O_3   0.499990 0.499990 0.499980 -0.350741
C7    C     C_3   0.531711 0.772047 0.798941 0.232265
C8    C     C_3   0.525723 0.765918 0.716817 0.076135
H1    H     H_    0.553201 0.838797 0.699630 0.196689
C9    C     C_3   0.784234 0.680045 0.767462 -0.118374
C10   C     C_3   0.699208 0.522644 0.808909 0.286715
C11   C     C_3   0.682283 0.666699 0.819595 -0.017886
C12   C     C_3   0.643387 0.630933 0.684164 -0.040558
C13   C     C_3   0.770542 0.647890 0.689194 0.193842
C14   C     C_3   0.652769 0.515462 0.731870 -0.000923
H2    H     H_    0.724726 0.423088 0.706689 0.185069
H3    H     H_    0.885949 0.610607 0.785195 0.206309
C15   C     C_R   0.776804 0.183729 0.711275 0.102014
C16   C     C_R   0.785650 0.164215 0.785294 -0.096461
H4    H     H_    0.862399 0.163575 0.815062 0.219832
C17   C     C_R   0.686215 0.158053 0.824723 0.013853
C18   C     C_R   0.570623 0.183743 0.791072 0.165560
C19   C     C_R   0.568553 0.176815 0.717478 0.179990
C20   C     C_R   0.664855 0.187534 0.676664 0.052772
C21   C     C_R   0.180170 0.553451 0.720183 0.130704
C22   C     C_R   0.140375 0.577174 0.791826 0.084672
C23   C     C_R   0.116385 0.701336 0.822906 0.002838
C24   C     C_R   0.103802 0.806026 0.777332 0.123903
C25   C     C_R   0.108953 0.785957 0.704488 0.188891
C26   C     C_R   0.171069 0.659437 0.677597 0.041780
C27   C     C_R   0.725379 0.529559 0.269397 0.123081
C28   C     C_R   0.703658 0.548189 0.196527 0.188581
C29   C     C_R   0.652492 0.676846 0.168293 0.019819
C30   C     C_R   0.594857 0.788497 0.214048 -0.145897
H5    H     H_    0.556294 0.889169 0.193504 0.172972
C31   C     C_R   0.592599 0.770667 0.287285 -0.127443
H6    H     H_    0.544276 0.857667 0.321642 0.179776
C32   C     C_R   0.658259 0.641288 0.315945 -0.002080
C33   C     C_R   0.534595 0.178890 0.288605 -0.121063
H7    H     H_    0.438139 0.208288 0.313555 0.189386
C34   C     C_R   0.542526 0.162911 0.216514 0.042140
C35   C     C_R   0.664212 0.131628 0.180966 0.032859
C36   C     C_R   0.777956 0.110963 0.221822 0.096961
C37   C     C_R   0.766151 0.125365 0.294769 -0.110257
H8    H     H_    0.851279 0.110003 0.326020 0.184393
C38   C     C_R   0.643221 0.168663 0.327273 -0.019341
C39   C     C_R   0.229821 0.739230 0.278527 0.146920
C40   C     C_R   0.219926 0.729368 0.206571 -0.108070
H9    H     H_    0.247345 0.788767 0.171968 0.195611
C41   C     C_R   0.155018 0.663180 0.179829 0.011572
C42   C     C_R   0.124368 0.582369 0.225080 0.146122
C43   C     C_R   0.150100 0.578073 0.296918 -0.131243
H10   H     H_    0.127971 0.514741 0.331453 0.180993
C44   C     C_R   0.197620 0.659876 0.324719 -0.000862
O14   O     O_R   0.089490 0.825610 0.930610 -0.451735
O15   O     O_R   0.818370 0.054540 0.929880 -0.489334
C45   C     C_R   0.703687 0.099727 0.896759 0.596145
O16   O     O_R   0.605870 0.077310 0.915530 -0.465697
O17   O     O_R   0.646440 0.806700 0.917570 -0.473083
C46   C     C_R   0.719287 0.685543 0.892226 0.606005
O18   O     O_R   0.837200 0.593290 0.915250 -0.455147
O19   O     O_R   0.065330 0.635370 0.931590 -0.477815
C47   C     C_R   0.074077 0.731863 0.897723 0.573053
O20   O     O_R   0.068300 0.828790 0.091860 -0.503503
O21   O     O_R   0.798730 0.057480 0.079370 -0.467527
C48   C     C_R   0.679876 0.095230 0.106177 0.578257
O22   O     O_R   0.584680 0.080480 0.076790 -0.483632
O23   O     O_R   0.626790 0.809640 0.067050 -0.511292
C49   C     C_R   0.696808 0.691917 0.097076 0.576960
O24   O     O_R   0.816010 0.596460 0.076500 -0.422805
O25   O     O_R   0.045680 0.638310 0.081070 -0.452641
C50   C     C_R   0.091277 0.709532 0.111622 0.564929
Cr4   Cr    Cr6+3 0.937620 0.938540 0.007640 1.140192
Cr5   Cr    Cr6+3 0.625150 0.937450 0.994520 1.127134
Cr6   Cr    Cr6+3 0.937990 0.625080 0.001190 1.169540
O26   O     O_3   0.833590 0.833690 0.001120 -0.361369
I1    I     I_    0.431748 0.982697 0.831429 -0.033867
Br1   Br    Br    0.933954 0.495518 0.662452 -0.374933
I2    I     I_    0.937886 0.201630 0.657629 -0.030123
I3    I     I_    0.432089 0.342947 0.852552 -0.090536
Br2   Br    Br    0.503897 0.069483 0.674128 -0.368518
I4    I     I_    0.248417 0.359611 0.678634 -0.015529
I5    I     I_    0.122197 0.418094 0.848056 -0.040288
I6    I     I_    0.107105 0.981179 0.812002 -0.055489
Br3   Br    Br    0.405343 0.732518 0.849496 -0.317090
Br4   Br    Br    0.982863 0.906910 0.639368 -0.390327
I7    I     I_    0.891172 0.341829 0.301603 -0.137967
Br5   Br    Br    0.742274 0.400383 0.134254 -0.357916
I8    I     I_    0.358247 0.193468 0.171879 -0.170841
I9    I     I_    0.973576 0.066619 0.185238 -0.123385
Br6   Br    Br    0.273794 0.875696 0.306035 -0.436225
Br7   Br    Br    0.347455 0.861482 0.679545 -0.286840
Br8   Br    Br    0.038326 0.484083 0.195061 -0.378703
I10   I     I_    0.793163 0.855982 0.780277 -0.367465
I11   I     I_    0.770460 0.779879 0.604068 -0.132529
Br9   Br    Br    0.876845 0.378943 0.815713 -0.402526
Br10  Br    Br    0.640697 0.457869 0.891051 -0.312477
Br11  Br    Br    0.489076 0.507947 0.722954 -0.514263

loop_
_geom_bond_atom_site_label_1
_geom_bond_atom_site_label_2
_geom_bond_distance
_ccdc_geom_bond_type
C34   I8    2.141671 S    
C33   H7    1.082934 S    
O11   Cr3   2.100348 S    
O25   Cr6   2.009563 S    
C45   O16   1.304562 A    
C16   H4    1.044196 S    
C23   C24   1.416220 A    
O14   C47   1.324432 A    
O21   C48   1.301732 A    
O4    Cr2   2.015856 S    
C7    Br3   1.943575 S    
C49   O24   1.316814 A    
C31   H6    1.083234 S    
O8    Cr1   2.008121 S    
C12   C13   1.558912 S    
C15   C20   1.424817 A    
C16   C17   1.377287 A    
O24   Cr6   2.106250 S    
C35   C48   1.455809 S    
C41   C50   1.450600 S    
O4    C2    1.318465 A    
C19   Br2   1.903296 S    
C23   C47   1.471530 S    
C5    O11   1.298326 A    
C28   Br5   1.924138 S    
C33   C38   1.402267 A    
C37   C38   1.375290 A    
C15   C16   1.408294 A    
C21   C22   1.403462 A    
O20   Cr4   2.129158 S    
C8    C12   1.589702 S    
C4    C44   1.447401 S    
O17   Cr5   2.013244 S    
C43   H10   1.084033 S    
C42   Br8   1.907547 S    
C27   C28   1.395365 A    
O6    C3    1.289138 A    
C30   C31   1.395322 A    
C21   C26   1.407884 A    
C8    Br7   1.921474 S    
C9    I10   2.074037 S    
C14   Br11  1.921323 S    
O21   Cr4   2.011999 S    
C41   C42   1.411689 A    
C36   C37   1.382438 A    
Cr3   O13   2.082275 S    
O20   C50   1.305945 A    
C12   C14   1.549981 S    
O23   Cr5   1.984656 S    
C15   I2    2.179711 S    
C31   C32   1.397810 A    
O6    Cr3   1.982058 S    
C46   O18   1.318234 A    
O1    Cr1   2.127528 S    
C36   I9    2.138959 S    
C27   I7    2.145125 S    
C10   C14   1.569150 S    
C42   C43   1.385023 A    
C5    C32   1.473347 S    
C29   C49   1.465550 S    
Cr1   O13   2.057679 S    
O1    C3    1.321152 A    
C8    H1    1.068240 S    
C19   C20   1.385294 A    
O19   C47   1.312778 A    
C6    C38   1.443321 S    
C30   H5    1.080827 S    
C35   C36   1.436180 A    
O5    Cr3   2.135510 S    
C48   O22   1.308702 A    
C3    C20   1.472840 S    
O12   Cr3   2.012174 S    
C7    I1    2.185931 S    
C37   H8    1.082214 S    
C40   C41   1.390629 A    
O17   C46   1.306587 A    
C17   C18   1.368965 A    
O10   Cr2   1.987620 S    
C9    H3    1.094810 S    
Cr5   O26   2.083144 S    
C14   H2    1.078099 S    
O14   Cr4   2.132585 S    
C39   C44   1.419529 A    
O7    Cr1   2.134761 S    
C7    C8    1.553730 S    
O12   C6    1.321057 A    
C7    C11   1.596878 S    
O23   C49   1.310977 A    
Cr4   O26   2.060141 S    
C27   C32   1.423092 A    
C10   Br10  1.954849 S    
C28   C29   1.392961 A    
Cr2   O13   2.077965 S    
C10   Br9   1.892242 S    
C9    C13   1.550777 S    
C33   C34   1.367836 A    
C22   C23   1.432686 A    
C39   Br6   1.929527 S    
C1    O3    1.323473 A    
C11   C46   1.485883 S    
Cr6   O26   2.078084 S    
C24   C25   1.388990 A    
O22   Cr5   2.135192 S    
C17   C45   1.480199 S    
O18   Cr6   2.132535 S    
O9    Cr2   2.137357 S    
O2    Cr1   2.012239 S    
C21   I4    2.106232 S    
O15   C45   1.315637 A    
O8    C4    1.315089 A    
C2    O5    1.345474 A    
O19   Cr6   1.988401 S    
C1    C26   1.467815 S    
C9    C11   1.574417 S    
C13   I11   2.191655 S    
C40   H9    1.084513 S    
O16   Cr5   2.107654 S    
O2    C1    1.288548 A    
C13   Br1   1.891983 S    
C22   I5    2.188605 S    
O15   Cr4   2.006808 S    
C24   I6    2.124002 S    
C34   C35   1.413516 A    
C18   C19   1.390910 A    
O7    C6    1.282255 A    
C25   Br4   1.890532 S    
C39   C40   1.372351 A    
O3    Cr2   2.111826 S    
C25   C26   1.358223 A    
C2    C12   1.510875 S    
C4    O9    1.284388 A    
O25   C50   1.299803 A    
C43   C44   1.395474 A    
C29   C30   1.407332 A    
C18   I3    2.078027 S    
C10   C11   1.572075 S    
O10   C5    1.333715 A    
