data_mof_unit_63654.cif
_audit_creation_date              2012-12-10T18:18:05-0500
_audit_creation_method            fapswitch 2.2
_symmetry_space_group_name_H-M    P1
_symmetry_Int_Tables_number       1
_space_group_crystal_system       triclinic
_cell_length_a                    19.352033
_cell_length_b                    14.66032
_cell_length_c                    15.911169
_cell_angle_alpha                 90.097701
_cell_angle_beta                  90.034457
_cell_angle_gamma                 89.99872
_cell_volume                      4514.10258648

loop_
_atom_site_label
_atom_site_type_symbol
_atom_type_description
_atom_site_fract_x
_atom_site_fract_y
_atom_site_fract_z
_atom_type_partial_charge
C1    C     C_R   0.499876 0.499931 0.339794 0.824462
C2    C     C_R   0.930135 0.500226 0.501120 0.412486
C3    C     C_R   0.182678 0.557013 0.445747 -0.142592
C4    C     C_R   0.182963 0.443497 0.556064 -0.144072
C5    C     C_R   0.254717 0.556974 0.444716 0.231579
C6    C     C_R   0.255022 0.443428 0.556528 0.233657
C7    C     C_R   0.291585 0.500084 0.500395 -0.172851
C8    C     C_R   0.146284 0.500254 0.501013 -0.060762
C9    C     C_3   0.453772 0.582612 0.050194 0.040500
C10   C     C_3   0.462531 0.410603 0.048700 0.028494
C11   C     C_3   0.470100 0.404812 0.950586 0.416228
C12   C     C_3   0.452199 0.583544 0.951132 0.390001
C13   C     C_1   0.498986 0.500213 0.749352 -0.040710
C14   C     C_3   0.496896 0.499810 0.082787 -0.014583
C15   C     C_3   0.496225 0.500355 0.916765 -0.055953
C16   C     C_R   0.632972 0.500000 0.499971 0.773395
C17   C     C_3   0.571111 0.514153 0.951270 -0.433838
C18   C     C_3   0.571643 0.506753 0.048262 -0.354412
C19   C     C_1   0.497836 0.500318 0.824658 0.117552
C20   C     C_1   0.497939 0.499675 0.175024 0.087577
C21   C     C_1   0.498905 0.499770 0.250395 -0.083097
C22   C     C_3   0.473832 0.055304 0.596059 0.401431
C23   C     C_3   0.473951 0.945038 0.596092 0.395661
C24   C     C_3   0.569588 0.053089 0.486494 -0.397521
C25   C     C_3   0.569568 0.946865 0.486338 -0.399467
C26   C     C_3   0.496761 0.092011 0.507202 0.006106
C27   C     C_3   0.496773 0.908008 0.507189 0.004437
C28   C     C_3   0.446659 0.946752 0.439593 -0.372159
C29   C     C_3   0.446739 0.053005 0.439505 -0.387611
C30   C     C_1   0.497831 0.804810 0.503471 0.247293
C31   C     C_1   0.497819 0.195197 0.503484 0.241625
C32   C     C_R   0.499963 0.500065 0.660037 0.832730
C33   C     C_R   0.367329 0.500012 0.500053 0.874823
C34   C     C_R   0.745445 0.580585 0.483341 -0.165376
C35   C     C_R   0.745440 0.419524 0.517513 -0.164141
C36   C     C_R   0.817446 0.580534 0.483194 -0.133342
C37   C     C_R   0.817448 0.419709 0.518338 -0.133472
C38   C     C_R   0.854089 0.500155 0.500923 0.050253
C39   C     C_R   0.708880 0.500020 0.500240 -0.035179
C40   C     C_R   0.070226 0.500288 0.501188 0.460696
Cu1   Cu    Cu3+1 0.500090 0.589920 0.499910 1.063313
Cu2   Cu    Cu3+1 0.500090 0.410080 0.499910 1.058065
H1    H     H_    0.718440 0.643553 0.469654 0.161092
H2    H     H_    0.718425 0.356518 0.530979 0.165344
H3    H     H_    0.608607 0.078453 0.532134 0.212708
H4    H     H_    0.608700 0.921480 0.531744 0.213487
H5    H     H_    0.393320 0.078484 0.449638 0.221652
H6    H     H_    0.393227 0.921470 0.449966 0.227030
H7    H     H_    0.462645 0.077585 0.376252 0.206044
H8    H     H_    0.462372 0.921768 0.376326 0.208284
H9    H     H_    0.844355 0.643639 0.469884 0.165378
H10   H     H_    0.844365 0.356657 0.531880 0.166517
H11   H     H_    0.400089 0.573842 0.073773 0.162285
H12   H     H_    0.406555 0.414750 0.064098 0.155145
H13   H     H_    0.598502 0.567106 0.075373 0.222296
H14   H     H_    0.601726 0.445476 0.067256 0.228274
N1    N     N_R   0.965842 0.430875 0.537177 -0.216911
N2    N     N_R   0.965794 0.569620 0.465136 -0.219431
N3    N     N_R   0.034569 0.431017 0.537393 -0.209846
N4    N     N_R   0.034511 0.569537 0.464986 -0.210651
N5    N     N_1   0.498600 0.724970 0.501390 -0.126295
N6    N     N_1   0.498600 0.275030 0.501390 -0.128468
O1    O     O_R   0.500080 0.575970 0.379360 -0.556496
O2    O     O_R   0.500080 0.424030 0.379360 -0.571819
O3    O     O_R   0.599930 0.575960 0.499920 -0.586186
O4    O     O_R   0.599930 0.424040 0.499920 -0.585373
O5    O     O_R   0.500070 0.575900 0.620490 -0.553503
O6    O     O_R   0.500070 0.424100 0.620490 -0.539071
O7    O     O_R   0.400220 0.575910 0.499940 -0.534959
O8    O     O_R   0.400220 0.424090 0.499940 -0.547509
H15   H     H_    0.592371 0.581436 0.932597 0.234584
H16   H     H_    0.607942 0.464049 0.924177 0.225681
Br1   Br    Br    0.534675 0.891785 0.682446 -0.324807
Br2   Br    Br    0.534220 0.109198 0.682595 -0.312313
H17   H     H_    0.586334 0.077848 0.423622 0.195270
H18   H     H_    0.586141 0.922075 0.423330 0.194186
Br3   Br    Br    0.383475 0.108743 0.624710 -0.284851
Br4   Br    Br    0.383779 0.891369 0.625089 -0.308539
H19   H     H_    0.155200 0.600531 0.402105 0.197184
H20   H     H_    0.155701 0.400112 0.599976 0.199557
Br5   Br    Br    0.299728 0.632444 0.362569 -0.425241
Br6   Br    Br    0.300532 0.368492 0.638755 -0.325788
Br7   Br    Br    0.356026 0.583042 0.913253 -0.325950
Br8   Br    Br    0.382613 0.363710 0.901607 -0.271072
Br9   Br    Br    0.492307 0.300546 0.109431 -0.368552
Br10  Br    Br    0.482978 0.697605 0.103565 -0.356597
Br11  Br    Br    0.533768 0.307514 0.913604 -0.299681
Br12  Br    Br    0.486211 0.698705 0.902111 -0.273310

loop_
_geom_bond_atom_site_label_1
_geom_bond_atom_site_label_2
_ccdc_geom_bond_type
C10   Br9   S    
C1    C21   S    
C40   N4    A    
Cu1   Cu2   S    
C14   C18   S    
C13   C32   S    
Cu1   N5    S    
C4    C8    A    
C3    H19   S    
C2    N1    A    
Cu1   O5    S    
C29   H7    S    
C15   C19   S    
C29   H5    S    
C6    Br6   S    
C24   H3    S    
C28   C29   S    
C35   C37   A    
C24   C26   S    
C4    H20   S    
N1    N3    A    
N2    N4    A    
Cu2   O8    S    
C28   H8    S    
C11   Br11  S    
C23   C27   S    
Cu2   N6    S    
C18   H14   S    
C32   O6    A    
C26   C31   S    
C40   N3    A    
C27   C30   S    
Cu2   O6    S    
C7    C33   S    
C31   N6    T    
C11   C15   S    
C23   Br1   S    
C1    O1    A    
C12   Br12  S    
C34   C39   A    
C14   C20   S    
C24   C25   S    
C4    C6    A    
C3    C8    A    
C10   C14   S    
C5    C7    A    
C37   H10   S    
C13   C19   T    
Cu1   O3    S    
C12   Br7   S    
C35   C39   A    
C9    C14   S    
C37   C38   A    
C9    Br10  S    
C5    Br5   S    
C2    C38   S    
C12   C15   S    
C17   C18   S    
C35   H2    S    
C36   H9    S    
C18   H13   S    
C26   C29   S    
C32   O5    A    
C33   O8    A    
C17   H15   S    
C9    H11   S    
C22   Br2   S    
C1    O2    A    
Cu2   O2    S    
Cu1   O7    S    
C15   C17   S    
C28   H6    S    
C34   H1    S    
C22   Br3   S    
C3    C5    A    
C2    N2    A    
C24   H17   S    
C6    C7    A    
C33   O7    A    
C11   Br8   S    
C25   C27   S    
C25   H18   S    
C36   C38   A    
C34   C36   A    
C23   Br4   S    
C10   H12   S    
C9    C12   S    
C10   C11   S    
C16   C39   S    
C16   O4    A    
C20   C21   T    
C17   H16   S    
C22   C26   S    
C30   N5    T    
C27   C28   S    
Cu2   O4    S    
Cu1   O1    S    
C22   C23   S    
C16   O3    A    
C8    C40   S    
C25   H4    S    
