data_mof_unit_11094.cif
_audit_creation_date              2012-12-11T17:15:57-0500
_audit_creation_method            fapswitch 2.2
_symmetry_space_group_name_H-M    P1
_symmetry_Int_Tables_number       1
_space_group_crystal_system       triclinic
_cell_length_a                    14.635207
_cell_length_b                    7.269069
_cell_length_c                    13.472386
_cell_angle_alpha                 90.0
_cell_angle_beta                  99.591275
_cell_angle_gamma                 89.999979
_cell_volume                      1413.21594294

loop_
_atom_site_label
_atom_site_type_symbol
_atom_type_description
_atom_site_fract_x
_atom_site_fract_y
_atom_site_fract_z
_atom_type_partial_charge
O1    O     O_R   0.398210 0.494340 0.401550 -0.530992
O2    O     O_R   0.601790 0.994340 0.598450 -0.530992
O3    O     O_R   0.586310 0.821730 0.403360 -0.544235
O4    O     O_R   0.413690 0.321730 0.596640 -0.544234
C1    C     C_R   0.613894 0.655804 0.380621 0.657058
C2    C     C_R   0.386106 0.155804 0.619379 0.657058
O5    O     O_R   0.397970 0.823900 0.389580 -0.534786
O6    O     O_R   0.602030 0.323900 0.610420 -0.534786
O7    O     O_R   0.412100 0.996500 0.584560 -0.539839
O8    O     O_R   0.587900 0.496500 0.415440 -0.539839
C3    C     C_R   0.365138 0.655275 0.363129 0.720690
C4    C     C_R   0.634862 0.155275 0.636871 0.720690
O9    O     O_3   0.504860 0.661550 0.563990 -0.376760
O10   O     O_3   0.495140 0.161550 0.436010 -0.376760
V1    V     V_3+5 0.499100 0.935510 0.488130 1.397218
V2    V     V_3+5 0.500900 0.435510 0.511870 1.397218
C5    C     C_1   0.716020 0.144699 0.716816 -0.183248
C6    C     C_1   0.283980 0.644699 0.283184 -0.183248
C7    C     C_1   0.783990 0.134099 0.783209 -0.189689
C8    C     C_1   0.216010 0.634099 0.216791 -0.189689
C9    C     C_3   0.248841 0.322131 0.828456 -0.094238
C10   C     C_3   0.751161 0.822134 0.171546 -0.094242
H1    H     H_    0.291982 0.315123 0.904890 0.091851
H2    H     H_    0.708017 0.815127 0.095113 0.091854
C11   C     C_3   0.316326 0.332739 0.751008 -0.359765
C12   C     C_3   0.683678 0.832744 0.248997 -0.359765
H3    H     H_    0.387555 0.361716 0.791572 0.118516
H4    H     H_    0.612449 0.861733 0.208435 0.118517
H5    H     H_    0.092431 0.233478 0.680851 0.174049
H6    H     H_    0.907568 0.733475 0.319151 0.174051
H7    H     H_    0.200041 0.233113 0.574164 0.139288
H8    H     H_    0.799960 0.733093 0.425841 0.139282
C13   C     C_3   0.143218 0.121052 0.702009 -0.321991
C14   C     C_3   0.856782 0.621048 0.297991 -0.321995
C15   C     C_3   0.261047 0.980414 0.835653 -0.328247
C16   C     C_3   0.738952 0.480417 0.164346 -0.328245
C17   C     C_3   0.189807 0.139807 0.813981 0.037305
C18   C     C_3   0.810193 0.639807 0.186019 0.037306
H9    H     H_    0.224002 0.850914 0.817353 0.204138
H10   H     H_    0.775995 0.350915 0.182647 0.204138
H11   H     H_    0.292980 0.977329 0.916585 0.140504
H12   H     H_    0.707021 0.477333 0.083413 0.140503
C19   C     C_3   0.315866 0.149988 0.690875 0.103328
C20   C     C_3   0.684134 0.649988 0.309125 0.103330
C21   C     C_3   0.216687 0.121677 0.630933 -0.307864
C22   C     C_3   0.783313 0.621666 0.369067 -0.307865
C23   C     C_3   0.337289 0.992182 0.768631 -0.344798
C24   C     C_3   0.662708 0.492189 0.231365 -0.344803
H13   H     H_    0.405800 0.016049 0.816683 0.133355
H14   H     H_    0.594198 0.516068 0.183311 0.133356
H15   H     H_    0.341389 0.858164 0.729631 0.157100
H16   H     H_    0.658602 0.358168 0.270361 0.157098
H17   H     H_    0.103068 0.990621 0.691199 0.126678
H18   H     H_    0.896933 0.490618 0.308800 0.126678
O11   O     O_R   0.912140 0.786650 0.084610 -0.523908
O12   O     O_R   0.087860 0.286650 0.915390 -0.523908
O13   O     O_R   0.102040 0.454810 0.110430 -0.536804
O14   O     O_R   0.897960 0.954810 0.889570 -0.536804
C25   C     C_R   0.134836 0.623531 0.136884 0.760597
C26   C     C_R   0.865164 0.123531 0.863116 0.760597
O15   O     O_R   0.913690 0.457060 0.096650 -0.532423
O16   O     O_R   0.086310 0.957060 0.903350 -0.532423
O17   O     O_R   0.898200 0.284560 0.901540 -0.529089
O18   O     O_R   0.101800 0.784560 0.098460 -0.529089
C27   C     C_R   0.883370 0.626268 0.116418 0.626745
C28   C     C_R   0.116630 0.126268 0.883582 0.626743
O19   O     O_3   0.995160 0.617270 0.936040 -0.366150
O20   O     O_3   0.004840 0.117270 0.063960 -0.366150
V3    V     V_3+5 0.000900 0.343280 0.011870 1.488989
V4    V     V_3+5 0.999100 0.843280 0.988130 1.488990
C29   C     C_2   0.192533 0.496488 0.825178 0.733949
O21   O     O_2   0.193945 0.584815 0.902732 -0.569017
O22   O     O_R   0.136216 0.552223 0.736024 -0.683149
H19   H     H_    0.096899 0.663377 0.745798 0.279337
C30   C     C_2   0.807469 0.996490 0.174822 0.733949
O23   O     O_2   0.806056 0.084817 0.097269 -0.569017
O24   O     O_R   0.863789 0.052224 0.263975 -0.683149
H20   H     H_    0.903105 0.163379 0.254200 0.279339
H21   H     H_    0.213338 0.989094 0.589167 0.140906
H22   H     H_    0.786659 0.489075 0.410827 0.140910
H23   H     H_    0.297546 0.448570 0.697339 0.165392
H24   H     H_    0.702464 0.948568 0.302669 0.165394

loop_
_geom_bond_atom_site_label_1
_geom_bond_atom_site_label_2
_ccdc_geom_bond_type
C3    C6    S    
C13   C21   S    
O22   H19   S    
C16   H12   S    
O1    C3    A    
C15   C23   S    
C11   C19   S    
C2    O7    A    
C12   C20   S    
C23   H13   S    
O24   H20   S    
O5    C3    A    
C25   O18   A    
C9    C29   S    
C26   O17   A    
C15   C17   S    
O13   C25   A    
O14   C26   A    
C10   C18   S    
H5    C13   S    
O16   V4    S    
O17   V3    S    
O20   V3    S    
C4    C5    S    
C14   C22   S    
O18   V4    S    
O5    V1    S    
O2    C4    A    
C12   H24   S    
C11   H23   S    
C10   C30   S    
C1    O8    A    
O11   C27   A    
C20   C22   S    
C13   H17   S    
H6    C14   S    
C16   H10   S    
O4    C2    A    
C29   O22   S    
O16   C28   A    
O14   V4    S    
C23   H15   S    
C13   C17   S    
O4    V2    S    
C15   H9    S    
C30   O23   D    
C30   O24   S    
C18   C27   S    
O6    C4    A    
C17   C28   S    
C21   H21   S    
O1    V2    S    
C8    C25   S    
O2    V1    S    
C19   C21   S    
C1    C20   S    
C14   H18   S    
C2    C19   S    
C9    H1    S    
C10   C12   S    
C10   H2    S    
O3    V1    S    
O15   V3    S    
C9    C11   S    
C14   C18   S    
H8    C22   S    
O3    C1    A    
C7    C26   S    
C11   H3    S    
C12   H4    S    
O19   V4    S    
C16   C18   S    
O7    V1    S    
C29   O21   D    
O8    V2    S    
C22   H22   S    
O12   C28   A    
C24   H14   S    
C5    C7    T    
C16   C24   S    
C6    C8    T    
C15   H11   S    
O11   V4    S    
O15   C27   A    
C24   H16   S    
C9    C17   S    
O6    V2    S    
O12   V3    S    
H7    C21   S    
O9    V2    S    
O10   V1    S    
O13   V3    S    
C19   C23   S    
C20   C24   S    
