data_mof_unit_56295.cif
_audit_creation_date              2013-03-05T15:50:07-0500
_audit_creation_method            fapswitch 2.2
_symmetry_space_group_name_H-M    P1
_symmetry_Int_Tables_number       1
_space_group_crystal_system       triclinic
_cell_length_a                    18.301931
_cell_length_b                    25.853818
_cell_length_c                    18.270758
_cell_angle_alpha                 89.998026
_cell_angle_beta                  89.991918
_cell_angle_gamma                 89.534054
_cell_volume                      8644.976174

loop_
_atom_site_label
_atom_site_type_symbol
_atom_site_description
_atom_site_fract_x
_atom_site_fract_y
_atom_site_fract_z
_atom_type_partial_charge
Zn1   Zn    Zn3+2 0.249990 0.293780 0.913250 0.949219
Zn2   Zn    Zn3+2 0.249990 0.706220 0.086750 0.965278
Zn3   Zn    Zn3+2 0.249990 0.706220 0.913250 0.949037
Zn4   Zn    Zn3+2 0.249990 0.293780 0.086750 0.965284
Zn5   Zn    Zn3+2 0.749990 0.793780 0.413250 0.949549
Zn6   Zn    Zn3+2 0.749990 0.206220 0.586750 0.965875
Zn7   Zn    Zn3+2 0.749990 0.206220 0.413250 0.949688
Zn8   Zn    Zn3+2 0.749990 0.793780 0.586750 0.965845
Zn9   Zn    Zn3+2 0.336760 0.206240 0.000000 0.974867
Zn10  Zn    Zn3+2 0.336760 0.793760 0.000000 0.979017
Zn11  Zn    Zn3+2 0.836760 0.706240 0.500000 0.977209
Zn12  Zn    Zn3+2 0.836760 0.293760 0.500000 0.982144
Zn13  Zn    Zn3+2 0.163250 0.206230 0.000000 0.979028
Zn14  Zn    Zn3+2 0.163250 0.793770 0.000000 0.974681
Zn15  Zn    Zn3+2 0.663250 0.706230 0.500000 0.983055
Zn16  Zn    Zn3+2 0.663250 0.293770 0.500000 0.977316
O1    O     O_3   0.249990 0.250010 0.000000 -0.487618
O2    O     O_3   0.249990 0.749990 0.000000 -0.487483
O3    O     O_3   0.749990 0.750010 0.500000 -0.487386
O4    O     O_3   0.749990 0.249990 0.500000 -0.487540
O5    O     O_R   0.335430 0.280650 0.146160 -0.633551
O6    O     O_R   0.335430 0.719350 0.853840 -0.638838
O7    O     O_R   0.335430 0.719350 0.146160 -0.639993
O8    O     O_R   0.335430 0.280650 0.853840 -0.639085
O9    O     O_R   0.835430 0.780650 0.646160 -0.632431
O10   O     O_R   0.835430 0.219350 0.353840 -0.639847
O11   O     O_R   0.835430 0.219350 0.646160 -0.637799
O12   O     O_R   0.835430 0.780650 0.353840 -0.639135
O13   O     O_R   0.164550 0.280640 0.853840 -0.638639
O14   O     O_R   0.164550 0.719360 0.146160 -0.633530
O15   O     O_R   0.164550 0.719360 0.853840 -0.639286
O16   O     O_R   0.164550 0.280640 0.146160 -0.639782
O17   O     O_R   0.664550 0.780640 0.353840 -0.640040
O18   O     O_R   0.664550 0.219360 0.646160 -0.632292
O19   O     O_R   0.664550 0.219360 0.353840 -0.639049
O20   O     O_R   0.664550 0.780640 0.646160 -0.638060
O21   O     O_R   0.396160 0.219380 0.914560 -0.642108
O22   O     O_R   0.396160 0.780620 0.085440 -0.631370
O23   O     O_R   0.396160 0.780620 0.914560 -0.637449
O24   O     O_R   0.396160 0.219380 0.085440 -0.642342
O25   O     O_R   0.896160 0.719380 0.414560 -0.640342
O26   O     O_R   0.896160 0.280620 0.585440 -0.629912
O27   O     O_R   0.896160 0.280620 0.414560 -0.638436
O28   O     O_R   0.896160 0.719380 0.585440 -0.643354
O29   O     O_R   0.103840 0.219370 0.085450 -0.631289
O30   O     O_R   0.103840 0.780630 0.914550 -0.642442
O31   O     O_R   0.103840 0.780630 0.085450 -0.642621
O32   O     O_R   0.103840 0.219370 0.914550 -0.637399
O33   O     O_R   0.603840 0.719370 0.585450 -0.629518
O34   O     O_R   0.603840 0.280630 0.414550 -0.640285
O35   O     O_R   0.603840 0.280630 0.585450 -0.643219
O36   O     O_R   0.603840 0.719370 0.414550 -0.638819
O37   O     O_R   0.310730 0.133160 0.000000 -0.619541
O38   O     O_R   0.310730 0.866840 0.000000 -0.643225
O39   O     O_R   0.810730 0.633160 0.500000 -0.624370
O40   O     O_R   0.810730 0.366840 0.500000 -0.640715
O41   O     O_R   0.249970 0.366860 0.060720 -0.645201
O42   O     O_R   0.249970 0.633140 0.939280 -0.647852
O43   O     O_R   0.249970 0.633140 0.060720 -0.645170
O44   O     O_R   0.249970 0.366860 0.939280 -0.647936
O45   O     O_R   0.749970 0.866860 0.560720 -0.648721
O46   O     O_R   0.749970 0.133140 0.439280 -0.644974
O47   O     O_R   0.749970 0.133140 0.560720 -0.648768
O48   O     O_R   0.749970 0.866860 0.439280 -0.644948
O49   O     O_R   0.189290 0.133150 0.000000 -0.643357
O50   O     O_R   0.189290 0.866850 0.000000 -0.619600
O51   O     O_R   0.689290 0.633150 0.500000 -0.639518
O52   O     O_R   0.689290 0.366850 0.500000 -0.623182
C1    C     C_R   0.389831 0.250002 0.139858 0.795367
C2    C     C_R   0.389775 0.749816 0.860254 0.781800
C3    C     C_R   0.389675 0.749918 0.139869 0.787906
C4    C     C_R   0.389952 0.250036 0.860278 0.781587
C5    C     C_R   0.890024 0.750141 0.639655 0.786073
C6    C     C_R   0.889644 0.249943 0.360121 0.777401
C7    C     C_R   0.889734 0.249852 0.639777 0.789683
C8    C     C_R   0.889829 0.749950 0.360197 0.785258
C9    C     C_R   0.110220 0.250163 0.860236 0.782010
C10   C     C_R   0.110165 0.750019 0.139869 0.795428
C11   C     C_R   0.110042 0.749984 0.860261 0.781274
C12   C     C_R   0.110313 0.250070 0.139870 0.787993
C13   C     C_R   0.610343 0.750046 0.360110 0.777250
C14   C     C_R   0.609971 0.249880 0.639660 0.788181
C15   C     C_R   0.610153 0.250056 0.360193 0.785465
C16   C     C_R   0.610251 0.750141 0.639776 0.790117
C17   C     C_R   0.250708 0.109303 0.001475 0.898741
C18   C     C_R   0.249320 0.890696 0.001463 0.899014
C19   C     C_R   0.750600 0.609335 0.501909 0.909133
C20   C     C_R   0.749415 0.390664 0.502113 0.907335
C21   C     C_R   0.249971 0.391402 0.999904 0.740148
C22   C     C_R   0.249955 0.608598 0.999906 0.740291
C23   C     C_R   0.749970 0.891402 0.500093 0.739995
C24   C     C_R   0.749954 0.108598 0.500095 0.739880
C25   C     C_3   0.181076 0.470477 0.039189 -0.393973
C26   C     C_3   0.249944 0.529716 0.919933 -0.378858
C27   C     C_3   0.181074 0.530313 0.039197 -0.393620
C28   C     C_3   0.249949 0.470287 0.919932 -0.378896
C29   C     C_3   0.749952 0.970284 0.580063 -0.378165
C30   C     C_3   0.681070 0.030317 0.460824 -0.395018
C31   C     C_3   0.749948 0.029713 0.580064 -0.378173
C32   C     C_3   0.681073 0.970480 0.460828 -0.394566
H1    H     H_    0.179604 0.456237 0.096653 0.186017
H2    H     H_    0.299017 0.543613 0.890003 0.180729
H3    H     H_    0.179607 0.544563 0.096663 0.186496
H4    H     H_    0.299025 0.455833 0.890002 0.179839
H5    H     H_    0.799029 0.955827 0.609976 0.180913
H6    H     H_    0.679599 0.044571 0.403359 0.184816
H7    H     H_    0.799023 0.043607 0.609977 0.181115
H8    H     H_    0.679599 0.956245 0.403364 0.184943
H9    H     H_    0.130912 0.456341 0.011453 0.152201
H10   H     H_    0.200859 0.544173 0.890034 0.179852
H11   H     H_    0.130903 0.545032 0.011478 0.151939
H12   H     H_    0.200867 0.456392 0.890032 0.180711
H13   H     H_    0.700871 0.956387 0.609979 0.181122
H14   H     H_    0.630900 0.045034 0.488560 0.152289
H15   H     H_    0.700866 0.044168 0.609981 0.180925
H16   H     H_    0.630910 0.956342 0.488579 0.152454
H17   H     H_    0.320344 0.455430 0.096619 0.186469
H18   H     H_    0.369011 0.543658 0.011384 0.152250
H19   H     H_    0.320346 0.543755 0.096612 0.185980
H20   H     H_    0.369020 0.454967 0.011404 0.151884
H21   H     H_    0.869018 0.954968 0.488547 0.152332
H22   H     H_    0.820338 0.043762 0.403361 0.184963
H23   H     H_    0.869009 0.043659 0.488571 0.152406
H24   H     H_    0.820335 0.955437 0.403350 0.184825
C33   C     C_3   0.318858 0.469684 0.039154 -0.393665
C34   C     C_3   0.318855 0.529520 0.039149 -0.393978
C35   C     C_3   0.818854 0.969687 0.460816 -0.394963
C36   C     C_3   0.818852 0.029523 0.460824 -0.394552
C37   C     C_3   0.249964 0.449143 0.999566 0.194353
C38   C     C_3   0.249956 0.550856 0.999568 0.194257
C39   C     C_3   0.749962 0.949144 0.500429 0.195236
C40   C     C_3   0.749954 0.050857 0.500431 0.195305
H25   H     H_    0.920147 0.376480 0.923662 0.123030
H26   H     H_    0.919907 0.627130 0.072683 0.121916
H27   H     H_    0.882424 0.683875 0.963587 0.134708
H28   H     H_    0.883241 0.320362 0.037812 0.133623
H29   H     H_    0.382431 0.818079 0.463200 0.134574
H30   H     H_    0.383699 0.180368 0.537812 0.134294
H31   H     H_    0.420287 0.126871 0.427104 0.123054
H32   H     H_    0.419386 0.875560 0.575468 0.122544
C41   C     C_R   0.122406 0.182747 0.736206 -0.141075
C42   C     C_R   0.124699 0.813003 0.268205 -0.153788
C43   C     C_R   0.142118 0.785808 0.715216 -0.143378
C44   C     C_R   0.142207 0.212933 0.284630 -0.134145
C45   C     C_R   0.642577 0.713557 0.215082 -0.142919
C46   C     C_R   0.641395 0.287425 0.784068 -0.148200
C47   C     C_R   0.621978 0.316205 0.234934 -0.143147
C48   C     C_R   0.622919 0.683149 0.764191 -0.138007
C49   C     C_R   0.128627 0.149591 0.676350 -0.146524
C50   C     C_R   0.130611 0.845639 0.328569 -0.145657
C51   C     C_R   0.158484 0.802723 0.644758 -0.144918
C52   C     C_R   0.158176 0.194826 0.354685 -0.139781
C53   C     C_R   0.658738 0.695770 0.144902 -0.144546
C54   C     C_R   0.657149 0.305793 0.853956 -0.138107
C55   C     C_R   0.628048 0.348637 0.174352 -0.146297
C56   C     C_R   0.629330 0.650155 0.824204 -0.142442
C57   C     C_R   0.604901 0.695547 0.091351 -0.142239
C58   C     C_R   0.603551 0.305781 0.907768 -0.147702
C59   C     C_R   0.574539 0.348386 0.120366 -0.150468
C60   C     C_R   0.575510 0.649980 0.877908 -0.159313
C61   C     C_R   0.074837 0.149455 0.622639 -0.150460
C62   C     C_R   0.075740 0.846863 0.381135 -0.163465
C63   C     C_R   0.105067 0.802331 0.590801 -0.143090
C64   C     C_R   0.104287 0.194512 0.408187 -0.145077
C65   C     C_R   0.534606 0.713104 0.107699 -0.142737
C66   C     C_R   0.533883 0.287479 0.891942 -0.146805
C67   C     C_R   0.514617 0.315751 0.126703 -0.148580
C68   C     C_R   0.514951 0.682758 0.871855 -0.146042
C69   C     C_R   0.014478 0.182422 0.628538 -0.148021
C70   C     C_R   0.014875 0.815235 0.373821 -0.146749
C71   C     C_R   0.034950 0.785161 0.607064 -0.146298
C72   C     C_R   0.034138 0.212360 0.391946 -0.142349
C73   C     C_R   0.516992 0.732066 0.178423 0.071847
C74   C     C_R   0.516656 0.268168 0.821410 0.076060
C75   C     C_R   0.506915 0.282765 0.188081 0.078820
C76   C     C_R   0.507047 0.716472 0.811205 0.077574
C77   C     C_R   0.006768 0.216308 0.689020 0.075658
C78   C     C_R   0.007313 0.782146 0.312527 0.081774
C79   C     C_R   0.017145 0.767129 0.678124 0.074640
C80   C     C_R   0.016740 0.231701 0.321386 0.072656
C81   C     C_R   0.061482 0.216520 0.743505 0.076110
C82   C     C_R   0.062453 0.781553 0.258523 0.054504
C83   C     C_R   0.071507 0.767343 0.732879 0.073820
C84   C     C_R   0.071502 0.231976 0.266986 0.068760
C85   C     C_R   0.571730 0.732310 0.232840 0.073357
C86   C     C_R   0.571113 0.268172 0.766732 0.057296
C87   C     C_R   0.561348 0.282937 0.242824 0.075543
C88   C     C_R   0.561772 0.716704 0.756716 0.066961
C89   C     C_R   0.445767 0.749713 0.196068 -0.157342
C90   C     C_R   0.446063 0.249876 0.804195 -0.154519
C91   C     C_R   0.445807 0.250186 0.196121 -0.163978
C92   C     C_R   0.445780 0.749720 0.803971 -0.147376
C93   C     C_R   0.945721 0.249768 0.696056 -0.152152
C94   C     C_R   0.945979 0.749861 0.304203 -0.149643
C95   C     C_R   0.946084 0.750007 0.695797 -0.174541
C96   C     C_R   0.945714 0.249775 0.303925 -0.151632
C97   C     C_R   0.428288 0.767533 0.267192 0.068866
C98   C     C_R   0.428896 0.231650 0.733304 0.073794
C99   C     C_R   0.437698 0.218284 0.258356 0.054344
C100  C     C_R   0.438280 0.783230 0.743294 0.076382
C101  C     C_R   0.938445 0.283510 0.756495 0.067301
C102  C     C_R   0.938452 0.717278 0.242639 0.075701
C103  C     C_R   0.928440 0.732961 0.767177 0.058444
C104  C     C_R   0.928455 0.268159 0.233059 0.073426
C105  C     C_R   0.993163 0.283730 0.810980 0.077453
C106  C     C_R   0.992880 0.717471 0.187882 0.078981
C107  C     C_R   0.982911 0.732930 0.821825 0.076396
C108  C     C_R   0.983195 0.268392 0.178632 0.071831
C109  C     C_R   0.483046 0.767816 0.321583 0.072666
C110  C     C_R   0.483257 0.231859 0.678531 0.074234
C111  C     C_R   0.492858 0.217660 0.312329 0.081581
C112  C     C_R   0.492999 0.783455 0.688805 0.075691
C113  C     C_R   0.054210 0.250255 0.803959 -0.147361
C114  C     C_R   0.054177 0.749844 0.196118 -0.164215
C115  C     C_R   0.053931 0.750151 0.804180 -0.155511
C116  C     C_R   0.054221 0.250269 0.196070 -0.156888
C117  C     C_R   0.554271 0.750217 0.303916 -0.152066
C118  C     C_R   0.553898 0.250031 0.695787 -0.174350
C119  C     C_R   0.554009 0.250145 0.304194 -0.149579
C120  C     C_R   0.554266 0.750222 0.696056 -0.152479
C121  C     C_R   0.357385 0.786113 0.285060 -0.133999
C122  C     C_R   0.358706 0.212196 0.716089 -0.143200
C123  C     C_R   0.375578 0.186691 0.267917 -0.153548
C124  C     C_R   0.377134 0.816777 0.735788 -0.141546
C125  C     C_R   0.877523 0.317295 0.763761 -0.138125
C126  C     C_R   0.877652 0.684186 0.234578 -0.143132
C127  C     C_R   0.857698 0.714808 0.785013 -0.150456
C128  C     C_R   0.857814 0.287383 0.215531 -0.143035
C129  C     C_R   0.341205 0.803725 0.355326 -0.140425
C130  C     C_R   0.342783 0.194177 0.646050 -0.144039
C131  C     C_R   0.369845 0.153852 0.328083 -0.144978
C132  C     C_R   0.370708 0.849732 0.675730 -0.147689
C133  C     C_R   0.871323 0.350495 0.823567 -0.141809
C134  C     C_R   0.871392 0.651971 0.173787 -0.147197
C135  C     C_R   0.841495 0.697566 0.855339 -0.139071
C136  C     C_R   0.841865 0.305663 0.145563 -0.144286
C137  C     C_R   0.925116 0.350638 0.877283 -0.158589
C138  C     C_R   0.924872 0.652271 0.119760 -0.151482
C139  C     C_R   0.895118 0.697504 0.909096 -0.148214
C140  C     C_R   0.895704 0.305864 0.091991 -0.141731
C141  C     C_R   0.395086 0.804055 0.408810 -0.145467
C142  C     C_R   0.396203 0.194561 0.592067 -0.142013
C143  C     C_R   0.424777 0.152554 0.380566 -0.162522
C144  C     C_R   0.424521 0.849895 0.622028 -0.150846
C145  C     C_R   0.985459 0.317643 0.871430 -0.146008
C146  C     C_R   0.984982 0.684713 0.126291 -0.148948
C147  C     C_R   0.965246 0.714626 0.892779 -0.146808
C148  C     C_R   0.965792 0.287800 0.108111 -0.142876
C149  C     C_R   0.465437 0.786710 0.392346 -0.142234
C150  C     C_R   0.465889 0.212828 0.607880 -0.146449
C151  C     C_R   0.485489 0.184349 0.373410 -0.146423
C152  C     C_R   0.485091 0.817141 0.628123 -0.148096
H33   H     H_    0.165678 0.181529 0.776566 0.105895
H34   H     H_    0.168963 0.813122 0.228949 0.154377
H35   H     H_    0.185317 0.787767 0.755487 0.125125
H36   H     H_    0.185785 0.211519 0.244673 0.134885
H37   H     H_    0.686120 0.712075 0.255063 0.124745
H38   H     H_    0.684715 0.289038 0.743872 0.147001
H39   H     H_    0.664987 0.317721 0.275521 0.105785
H40   H     H_    0.666213 0.681966 0.723837 0.138261
H41   H     H_    0.175371 0.123879 0.671669 0.117662
H42   H     H_    0.177816 0.870240 0.334399 0.127923
H43   H     H_    0.212742 0.816455 0.632086 0.134211
H44   H     H_    0.212490 0.180732 0.367443 0.133589
H45   H     H_    0.713164 0.681827 0.132123 0.132994
H46   H     H_    0.711075 0.320330 0.866295 0.134836
H47   H     H_    0.674395 0.374146 0.169373 0.117967
H48   H     H_    0.676241 0.624599 0.828998 0.128237
H49   H     H_    0.617532 0.681418 0.037011 0.133933
H50   H     H_    0.615913 0.320248 0.961918 0.133477
H51   H     H_    0.579331 0.373725 0.073481 0.121388
H52   H     H_    0.580630 0.624285 0.924436 0.123250
H53   H     H_    0.079825 0.123645 0.576226 0.122355
H54   H     H_    0.080398 0.872354 0.427866 0.123649
H55   H     H_    0.117898 0.815699 0.536218 0.135657
H56   H     H_    0.116775 0.180117 0.462416 0.134260
H57   H     H_    0.494407 0.711238 0.064412 0.124388
H58   H     H_    0.493837 0.289022 0.935450 0.124847
H59   H     H_    0.474320 0.316946 0.083371 0.108288
H60   H     H_    0.474486 0.681275 0.914996 0.108584
H61   H     H_    0.974027 0.180961 0.585393 0.107567
H62   H     H_    0.973812 0.817230 0.416386 0.109007
H63   H     H_    0.995060 0.786567 0.563428 0.127259
H64   H     H_    0.993891 0.210469 0.435200 0.124978
H65   H     H_    0.313797 0.787546 0.245132 0.135393
H66   H     H_    0.315531 0.210320 0.756418 0.123546
H67   H     H_    0.331274 0.186621 0.228718 0.154641
H68   H     H_    0.333847 0.817975 0.776145 0.105870
H69   H     H_    0.834245 0.318498 0.723403 0.136516
H70   H     H_    0.834656 0.682642 0.275188 0.105550
H71   H     H_    0.814315 0.713182 0.744913 0.147104
H72   H     H_    0.814284 0.288852 0.255544 0.123960
H73   H     H_    0.824600 0.376240 0.828188 0.128041
H74   H     H_    0.824912 0.626598 0.168670 0.117789
H75   H     H_    0.787200 0.683925 0.868054 0.136010
H76   H     H_    0.787601 0.319995 0.132968 0.132567
H77   H     H_    0.286733 0.817431 0.368264 0.133932
H78   H     H_    0.288864 0.179627 0.633719 0.132874
H79   H     H_    0.322739 0.129144 0.333815 0.127647
H80   H     H_    0.323786 0.875266 0.670887 0.118227
H81   H     H_    0.025911 0.319111 0.914573 0.108660
H82   H     H_    0.025263 0.683552 0.082931 0.108283
H83   H     H_    0.005268 0.712961 0.936278 0.126324
H84   H     H_    0.006011 0.289622 0.064824 0.123755
H85   H     H_    0.505662 0.788640 0.435602 0.125591
H86   H     H_    0.505817 0.211499 0.564254 0.125611
H87   H     H_    0.526587 0.182308 0.415926 0.109034
H88   H     H_    0.525553 0.818616 0.584978 0.107425
H89   H     H_    0.273877 0.044250 0.254779 0.169116
H90   H     H_    0.226586 0.955714 0.254822 0.169288
H91   H     H_    0.763190 0.545766 0.757447 0.166903
H92   H     H_    0.730772 0.454542 0.757166 0.167522
C153  C     C_R   0.249879 0.053875 0.866511 -0.152832
C154  C     C_R   0.250075 0.946138 0.866506 -0.152899
C155  C     C_R   0.752534 0.553730 0.367907 -0.151939
C156  C     C_R   0.750907 0.446126 0.367998 -0.151532
C157  C     C_R   0.249729 0.026895 0.800469 -0.129045
C158  C     C_R   0.250195 0.973125 0.800466 -0.128969
C159  C     C_R   0.752905 0.526752 0.301882 -0.128373
C160  C     C_R   0.752209 0.473027 0.301929 -0.129314
C161  C     C_R   0.249637 0.972816 0.934317 0.066931
C162  C     C_R   0.250358 0.027189 0.934319 0.067054
C163  C     C_R   0.750306 0.472814 0.435902 0.066853
C164  C     C_R   0.751455 0.527117 0.435858 0.065750
C165  C     C_R   0.246488 0.946386 0.001836 -0.128900
C166  C     C_R   0.253564 0.053612 0.001836 -0.128854
C167  C     C_R   0.747044 0.446338 0.503387 -0.129223
C168  C     C_R   0.752950 0.553671 0.503346 -0.129289
C169  C     C_R   0.243212 0.973237 0.069403 -0.105987
C170  C     C_R   0.256941 0.026751 0.069393 -0.106033
C171  C     C_R   0.743817 0.472980 0.571369 -0.102309
C172  C     C_R   0.754427 0.527123 0.571438 -0.101531
C173  C     C_R   0.226735 0.948633 0.137300 0.532146
C174  C     C_R   0.273536 0.051342 0.137260 0.532013
C175  C     C_R   0.730389 0.447536 0.639579 0.534846
C176  C     C_R   0.766153 0.552680 0.639876 0.536786
C177  C     C_R   0.237724 0.974782 0.203280 -0.308351
C178  C     C_R   0.262643 0.025191 0.203258 -0.308412
C179  C     C_R   0.738865 0.474237 0.705494 -0.312466
C180  C     C_R   0.756391 0.526008 0.705640 -0.311505
H93   H     H_    0.250338 0.095693 0.863755 0.104386
H94   H     H_    0.249620 0.904320 0.863747 0.104496
H95   H     H_    0.753646 0.595528 0.364959 0.104004
H96   H     H_    0.749807 0.404325 0.365107 0.104327
H97   H     H_    0.249622 0.047809 0.749133 0.122355
H98   H     H_    0.250286 0.952215 0.749128 0.122604
H99   H     H_    0.753919 0.547644 0.250532 0.123065
H100  H     H_    0.752467 0.452076 0.250613 0.123129
O53   O     O_3   0.194106 0.900728 0.139980 -0.637698
C181  C     C_3   0.117681 0.908822 0.142671 -0.269525
H101  H     H_    0.097872 0.932099 0.095224 0.169262
H102  H     H_    0.101017 0.927493 0.195024 0.155503
H103  H     H_    0.090032 0.871009 0.139889 0.211585
O54   O     O_3   0.306232 0.099225 0.139880 -0.637803
C182  C     C_3   0.382656 0.091080 0.142302 -0.269272
H104  H     H_    0.402289 0.067825 0.094758 0.169251
H105  H     H_    0.399456 0.072357 0.194572 0.155466
H106  H     H_    0.410346 0.128876 0.139476 0.211674
O55   O     O_3   0.705733 0.397220 0.642998 -0.639369
C183  C     C_3   0.629863 0.398830 0.657509 -0.270742
H107  H     H_    0.599502 0.417761 0.611844 0.178341
H108  H     H_    0.617106 0.418369 0.710307 0.145127
H109  H     H_    0.609642 0.358954 0.662781 0.200651
O56   O     O_3   0.790017 0.603175 0.643690 -0.639843
C184  C     C_3   0.865407 0.602176 0.660439 -0.275831
H110  H     H_    0.897355 0.582791 0.616241 0.178574
H111  H     H_    0.876728 0.583460 0.714154 0.145904
H112  H     H_    0.884981 0.642239 0.665109 0.199941

loop_
_geom_bond_atom_site_label_1
_geom_bond_atom_site_label_2
_geom_bond_distance
_ccdc_geom_bond_type
C154  C158  1.393795 A    
C44   C84   1.417939 A    
C168  C172  1.421006 A    
C1    C91   1.451423 S    
C103  C127  1.418614 A    
C177  C178  1.384239 A    
C2    C92   1.451822 S    
C12   C116  1.451851 S    
C79   C95   1.414533 A    
C101  C125  1.416988 A    
C58   C66   1.393999 A    
O26   C7    1.278149 A    
C77   C93   1.413317 A    
C70   C78   1.416739 A    
C134  H74   1.082488 S    
C54   C58   1.388750 A    
C105  C145  1.416504 A    
O30   C11   1.273994 A    
C30   H14   1.113045 S    
C23   C39   1.492850 S    
C154  H94   1.082439 S    
C93   C101  1.412907 A    
C4    C90   1.450601 S    
C133  C137  1.390261 A    
Zn12  O26   1.930954 S    
C104  C108  1.411531 A    
C157  H97   1.082618 S    
C165  C169  1.417344 A    
C96   C104  1.414131 A    
C47   C55   1.393557 A    
C80   C96   1.414261 A    
Zn3   O15   1.931494 S    
H29   C141  1.082219 S    
C106  C114  1.413165 A    
C43   C51   1.392889 A    
H26   C138  1.082409 S    
C10   C114  1.451199 S    
C48   H40   1.082510 S    
O11   C7    1.279044 A    
C20   C167  1.439870 S    
C49   H41   1.082502 S    
C46   C86   1.418861 A    
O34   C15   1.273986 A    
C76   C88   1.412128 A    
C59   H51   1.082366 S    
C60   H52   1.082465 S    
C45   H37   1.081594 S    
C163  C164  1.404263 A    
C141  C149  1.392812 A    
C29   C39   1.554267 S    
C102  C126  1.416837 A    
Zn1   O44   1.948347 S    
C25   H1    1.112954 S    
Zn2   O43   1.948353 S    
C112  C120  1.413314 A    
Zn5   O48   1.948347 S    
H32   C144  1.082471 S    
Zn6   O47   1.948353 S    
C121  H65   1.081505 S    
Zn7   O46   1.948321 S    
O16   C12   1.279054 A    
C78   C94   1.412532 A    
C182  H104  1.114260 S    
C46   C54   1.393386 A    
C173  C177  1.397527 A    
Zn16  O4    1.942192 S    
Zn12  O4    1.957481 S    
Zn1   O13   1.935975 S    
C137  C145  1.394089 A    
C26   C28   1.536466 S    
Zn4   O16   1.935714 S    
C61   H53   1.082466 S    
H24   C35   1.112970 S    
C42   C82   1.416122 A    
C28   H4    1.113468 S    
C67   H59   1.082356 S    
Zn6   O4    1.947467 S    
C68   H60   1.082372 S    
C89   C97   1.414497 A    
C106  C146  1.416556 A    
C148  H84   1.081646 S    
C13   C117  1.451720 S    
C107  C147  1.418228 A    
C48   C88   1.417014 A    
C30   H6    1.112969 S    
Zn10  O22   1.930954 S    
C109  C117  1.414465 A    
C136  H76   1.081949 S    
C41   H33   1.082457 S    
C122  H66   1.081736 S    
C184  H110  1.113677 S    
O25   C8    1.274021 A    
C167  C171  1.421288 A    
Zn10  O2    1.957481 S    
C158  H98   1.082631 S    
C173  O53   1.380224 S    
C59   C67   1.393936 A    
O29   C12   1.278394 A    
C163  C167  1.411746 A    
Zn15  O33   1.930976 S    
C181  H101  1.114273 S    
C35   C39   1.551216 S    
H19   C34   1.112954 S    
C33   C37   1.551212 S    
C95   C103  1.414755 A    
C26   H2    1.113482 S    
C151  H87   1.082357 S    
C161  C162  1.405929 A    
C45   C85   1.418184 A    
O55   C183  1.413896 S    
O37   C17   1.264476 A    
O48   C23   1.279535 A    
C80   C84   1.411485 A    
C28   C37   1.554260 S    
Zn13  O29   1.930976 S    
O53   C181  1.413470 S    
Zn16  O35   1.934066 S    
C21   C37   1.492839 S    
C86   C118  1.414916 A    
C73   C85   1.411575 A    
C26   C38   1.554277 S    
Zn7   O10   1.935669 S    
C127  H71   1.081517 S    
O33   C16   1.278089 A    
C24   C40   1.492838 S    
C97   C121  1.418108 A    
C134  C138  1.390087 A    
O40   C20   1.276284 A    
O56   C184  1.413394 S    
C16   C120  1.451512 S    
Zn5   O17   1.935975 S    
C174  O54   1.380194 S    
C27   C38   1.551211 S    
H31   C143  1.082350 S    
C41   C81   1.416907 A    
C61   C69   1.393941 A    
C92   C100  1.412969 A    
Zn15  O51   1.944815 S    
C25   C27   1.546999 S    
C43   H35   1.081594 S    
C53   C57   1.388715 A    
C71   C79   1.418266 A    
H25   C137  1.082462 S    
C30   C40   1.551223 S    
C69   C77   1.416534 A    
C183  H107  1.113582 S    
C27   H3    1.112968 S    
C32   H8    1.112954 S    
Zn8   O3    1.947530 S    
C143  C151  1.393659 A    
C55   C59   1.390100 A    
C56   C60   1.390259 A    
C184  H112  1.102061 S    
C57   C65   1.393128 A    
O38   C18   1.277899 A    
C149  H85   1.081579 S    
O5    C1    1.272617 A    
O32   C9    1.278138 A    
C108  C148  1.418041 A    
C130  C142  1.388758 A    
C155  C164  1.419616 A    
C15   C119  1.450156 S    
C56   H48   1.082659 S    
C57   H49   1.082212 S    
Zn11  O28   1.934082 S    
Zn12  O40   1.944774 S    
C8    C94   1.449962 S    
C182  H105  1.112884 S    
C125  H69   1.082511 S    
C46   H38   1.081693 S    
C147  H83   1.081518 S    
C17   C166  1.440364 S    
O8    C4    1.274046 A    
H92   C179  1.083368 S    
C67   C75   1.416533 A    
C145  H81   1.082375 S    
C68   C76   1.416513 A    
O50   C18   1.264481 A    
C153  C157  1.393792 A    
C111  C119  1.412543 A    
Zn1   O1    1.947468 S    
C126  C134  1.393590 A    
Zn13  O1    1.957181 S    
Zn2   O14   1.931259 S    
C29   H5    1.113466 S    
C44   C52   1.393098 A    
C62   H54   1.082382 S    
C72   C80   1.418063 A    
C162  C166  1.411594 A    
C77   C81   1.412142 A    
C153  H93   1.082439 S    
O9    C5    1.273491 A    
C47   H39   1.082460 S    
O36   C13   1.278261 A    
C98   C110  1.411086 A    
C64   C72   1.392752 A    
C75   C87   1.411827 A    
O13   C9    1.279035 A    
C122  C130  1.393497 A    
Zn1   O8    1.931217 S    
O54   C182  1.413480 S    
C159  H99   1.082790 S    
Zn2   O7    1.935930 S    
C169  C173  1.427377 A    
Zn3   O6    1.935669 S    
C81   C113  1.412995 A    
O18   C14   1.273468 A    
O31   C10   1.275473 A    
H17   C33   1.112968 S    
O6    C2    1.279133 A    
C183  H109  1.102394 S    
Zn4   O41   1.948315 S    
C25   H9    1.113047 S    
C32   H16   1.113046 S    
C153  C162  1.418020 A    
C9    C113  1.452002 S    
Zn14  O30   1.934334 S    
C63   H55   1.081847 S    
C60   C68   1.394117 A    
Zn15  O3    1.957181 S    
C44   H36   1.081570 S    
Zn11  O3    1.942492 S    
C99   C123  1.416086 A    
O41   C21   1.279531 A    
C31   C40   1.554252 S    
C70   H62   1.082348 S    
Zn16  O34   1.934334 S    
H21   C35   1.113045 S    
C31   H15   1.113467 S    
C84   C116  1.414284 A    
C34   C38   1.551232 S    
O15   C11   1.273971 A    
C94   C102  1.412729 A    
C139  C147  1.393286 A    
Zn8   O20   1.935714 S    
C69   H61   1.082373 S    
C166  C170  1.417365 A    
C112  C152  1.416549 A    
C63   C71   1.393307 A    
C51   H43   1.082323 S    
C132  H80   1.082536 S    
C52   H44   1.081391 S    
C105  C113  1.413514 A    
C83   C115  1.414309 A    
Zn8   O9    1.931452 S    
C175  O55   1.381773 S    
C25   C37   1.551239 S    
C123  C131  1.393399 A    
C88   C120  1.412877 A    
C50   C62   1.389640 A    
C66   C74   1.418476 A    
C142  C150  1.393940 A    
O7    C3    1.279129 A    
O19   C15   1.273403 A    
C87   C119  1.412726 A    
C181  H103  1.105611 S    
C47   C87   1.416814 A    
C26   H10   1.113468 S    
Zn9   O24   1.934082 S    
Zn6   O18   1.931259 S    
H89   C178  1.083017 S    
C43   C83   1.418468 A    
C53   H45   1.082009 S    
C171  C172  1.414767 A    
C129  C141  1.388470 A    
C174  C178  1.397505 A    
C179  C180  1.378911 A    
C62   C70   1.393651 A    
C164  C168  1.411686 A    
C138  C146  1.393931 A    
C107  C115  1.414549 A    
Zn15  O36   1.931207 S    
C3    C89   1.452046 S    
C181  H102  1.112892 S    
O42   C22   1.276520 A    
C74   C90   1.414866 A    
Zn4   O1    1.947530 S    
C30   C32   1.547007 S    
C5    C95   1.450911 S    
C33   C34   1.546989 S    
C49   C61   1.390159 A    
C35   C36   1.546989 S    
O12   C8    1.273524 A    
Zn11  O39   1.952288 S    
C90   C98   1.414558 A    
C150  H86   1.081654 S    
C132  C144  1.390156 A    
C135  C139  1.388548 A    
C64   H56   1.082163 S    
C65   H57   1.081594 S    
C42   H34   1.081952 S    
Zn5   O3    1.947468 S    
C31   H7    1.113483 S    
C176  O56   1.381754 S    
C155  C159  1.393442 A    
C58   H50   1.082298 S    
C156  C160  1.393435 A    
C125  C133  1.393586 A    
C42   C50   1.393413 A    
C184  H111  1.112946 S    
H20   C33   1.113047 S    
C133  H73   1.082649 S    
H22   C36   1.112954 S    
O28   C5    1.274700 A    
C155  H95   1.082354 S    
C159  C160  1.389169 A    
C22   C38   1.492851 S    
Zn3   O42   1.948321 S    
C146  H82   1.082346 S    
Zn7   O4    1.947531 S    
O21   C4    1.274050 A    
C121  C129  1.393169 A    
C140  C148  1.393059 A    
Zn10  O23   1.930727 S    
C48   C56   1.393570 A    
C171  C175  1.431355 A    
C109  C149  1.418244 A    
C175  C179  1.397433 A    
Zn2   O2    1.947467 S    
C169  C170  1.408182 A    
Zn14  O2    1.942192 S    
C176  C180  1.397516 A    
C183  H108  1.112795 S    
C156  H96   1.082351 S    
C32   C39   1.551242 S    
C41   C49   1.393629 A    
Zn13  O49   1.944815 S    
O44   C21   1.276529 A    
C28   H12   1.113484 S    
C100  C112  1.412065 A    
C85   C117  1.414342 A    
C98   C122  1.418715 A    
C91   C99   1.413209 A    
Zn12  O27   1.930727 S    
C124  C132  1.393624 A    
C75   C91   1.413193 A    
C76   C92   1.413527 A    
C65   C73   1.418218 A    
Zn3   O2    1.947531 S    
C126  H70   1.082454 S    
C156  C163  1.419635 A    
H27   C139  1.081934 S    
O46   C24   1.279520 A    
O47   C24   1.276540 A    
C129  H77   1.081444 S    
Zn16  O52   1.952331 S    
C104  C128  1.418007 A    
H30   C142  1.082169 S    
Zn8   O45   1.948315 S    
C45   C53   1.393145 A    
O27   C6    1.278356 A    
C11   C115  1.450772 S    
C108  C116  1.414565 A    
O39   C19   1.265980 A    
C71   H63   1.081500 S    
C36   C40   1.551243 S    
C29   C31   1.536456 S    
C79   C83   1.411062 A    
C6    C96   1.451523 S    
C152  H88   1.082371 S    
O24   C1    1.275652 A    
C100  C124  1.416921 A    
C103  C107  1.411046 A    
C136  C140  1.388827 A    
O43   C22   1.279545 A    
O14   C10   1.272563 A    
C130  H78   1.082678 S    
C131  C143  1.389637 A    
Zn5   O12   1.931217 S    
C154  C161  1.418014 A    
Zn6   O11   1.935930 S    
C14   C118  1.450666 S    
Zn9   O21   1.933817 S    
Zn14  O50   1.952331 S    
C128  H72   1.081650 S    
C78   C82   1.411262 A    
O35   C14   1.274432 A    
C52   C64   1.388589 A    
C19   C168  1.439658 S    
C123  H67   1.081953 S    
C7    C93   1.451727 S    
Zn9   O1    1.942492 S    
C124  H68   1.082449 S    
C50   H42   1.082242 S    
C51   C63   1.388580 A    
C170  C174  1.427346 A    
O52   C20   1.265896 A    
C160  H100  1.082807 S    
C18   C165  1.440314 S    
C29   H13   1.113483 S    
O22   C3    1.278480 A    
C101  C105  1.412196 A    
C144  C152  1.393963 A    
Zn7   O19   1.931494 S    
C172  C176  1.431309 A    
C54   H46   1.082718 S    
Zn13  O32   1.931207 S    
O49   C17   1.277934 A    
Zn14  O31   1.934066 S    
C127  C135  1.392723 A    
O51   C19   1.276001 A    
C110  C118  1.414798 A    
H28   C140  1.082163 S    
C27   H11   1.113044 S    
C74   C86   1.411065 A    
C131  H79   1.082222 S    
Zn4   O5    1.931452 S    
H23   C36   1.113049 S    
O20   C16   1.278949 A    
C161  C165  1.411617 A    
C73   C89   1.414766 A    
O10   C6    1.279085 A    
O23   C2    1.278280 A    
C110  C150  1.418490 A    
Zn11  O25   1.933817 S    
C99   C111  1.411331 A    
H90   C177  1.083032 S    
C157  C158  1.390117 A    
Zn10  O38   1.944774 S    
C135  H75   1.082328 S    
C128  C136  1.393075 A    
C97   C109  1.411527 A    
C72   H64   1.081637 S    
C182  H106  1.105637 S    
Zn9   O37   1.952288 S    
C102  C106  1.411740 A    
C82   C114  1.413213 A    
H18   C34   1.113047 S    
C111  C151  1.416726 A    
H91   C180  1.083269 S    
O17   C13   1.278965 A    
C66   H58   1.081666 S    
C55   H47   1.082496 S    
O45   C23   1.276530 A    
