data_mof_unit_29807.cif
_audit_creation_date              2012-12-11T17:00:14-0500
_audit_creation_method            fapswitch 2.2
_symmetry_space_group_name_H-M    P1
_symmetry_Int_Tables_number       1
_space_group_crystal_system       triclinic
_cell_length_a                    6.957954
_cell_length_b                    13.558397
_cell_length_c                    20.252177
_cell_angle_alpha                 103.023621
_cell_angle_beta                  89.744093
_cell_angle_gamma                 90.709575
_cell_volume                      1861.27362924

loop_
_atom_site_label
_atom_site_type_symbol
_atom_type_description
_atom_site_fract_x
_atom_site_fract_y
_atom_site_fract_z
_atom_type_partial_charge
O1    O     O_R   0.506770 0.599700 0.449550 -0.537681
O2    O     O_R   0.179980 0.595740 0.587960 -0.544951
O3    O     O_R   0.004580 0.400300 0.550450 -0.539730
C1    C     C_R   0.348227 0.617716 0.615074 0.694501
O4    O     O_R   0.177380 0.611700 0.452380 -0.541441
O5    O     O_R   0.001970 0.416370 0.413900 -0.541243
C2    C     C_R   0.347364 0.638793 0.436053 0.694663
O6    O     O_R   0.509390 0.583630 0.586100 -0.537121
O7    O     O_3   0.337530 0.435890 0.487530 -0.373059
V1    V     V_3+5 0.064660 0.511890 0.502310 1.401805
O8    O     O_R   0.671950 0.404260 0.412040 -0.541652
C3    C     C_R   0.840567 0.382952 0.384722 0.698564
O9    O     O_R   0.674540 0.388300 0.547620 -0.543184
C4    C     C_R   0.842672 0.360752 0.563588 0.702973
V2    V     V_3+5 0.564030 0.488110 0.497690 1.404330
O10   O     O_3   0.841030 0.564110 0.512470 -0.370398
C5    C     C_R   0.865113 0.105816 0.609163 -0.190012
H1    H     H_    0.875931 0.981138 0.692745 0.117103
H2    H     H_    0.872621 0.026181 0.584418 0.112084
C6    C     C_R   0.849639 0.281288 0.601968 -0.057636
C7    C     C_R   0.858459 0.316761 0.929487 -0.170177
C8    C     C_R   0.851778 0.392748 0.893657 -0.120389
C9    C     C_R   0.850385 0.368700 0.823029 -0.158703
C10   C     C_R   0.855980 0.266665 0.786026 0.083759
C11   C     C_R   0.862845 0.189066 0.823235 0.069567
C12   C     C_R   0.855697 0.239042 0.713527 0.071983
C13   C     C_R   0.863499 0.135092 0.680197 0.119891
C14   C     C_R   0.870117 0.060643 0.717848 -0.198630
C15   C     C_R   0.869440 0.086999 0.788138 -0.196236
C16   C     C_R   0.848322 0.310934 0.672799 -0.244000
C17   C     C_R   0.858397 0.177931 0.569435 0.072698
C18   C     C_R   0.863704 0.215249 0.895077 -0.075203
H3    H     H_    0.841397 0.391073 0.694372 0.099589
H4    H     H_    0.859387 0.337159 0.984398 0.099800
H5    H     H_    0.845365 0.432008 0.799193 0.105821
H6    H     H_    0.847706 0.471211 0.920866 0.117544
H7    H     H_    0.874702 0.026333 0.814823 0.106667
C19   C     C_R   0.708454 0.181443 0.227625 0.105046
C20   C     C_R   0.865890 0.183317 0.184485 -0.106751
C21   C     C_R   0.022107 0.247112 0.210485 -0.181807
H8    H     H_    0.145313 0.252052 0.178760 0.134825
C22   C     C_R   0.015230 0.310552 0.275896 -0.178706
H9    H     H_    0.133640 0.362320 0.292702 0.129332
C23   C     C_R   0.851469 0.312470 0.317248 -0.112848
C24   C     C_R   0.701605 0.244525 0.292450 0.090433
C25   C     C_3   0.494830 0.266970 0.285746 -0.406895
C26   C     C_3   0.502163 0.199354 0.215170 -0.410845
H10   H     H_    0.471159 0.347957 0.285847 0.167286
H11   H     H_    0.403043 0.235774 0.321423 0.175381
H12   H     H_    0.483909 0.241120 0.174278 0.169249
H13   H     H_    0.411253 0.130290 0.210057 0.170899
C27   C     C_R   0.499301 0.678948 0.729963 0.101973
C28   C     C_R   0.351546 0.683726 0.684228 -0.110767
C29   C     C_R   0.196591 0.748370 0.708195 -0.176362
H14   H     H_    0.078260 0.754072 0.674923 0.128978
C30   C     C_R   0.198333 0.811253 0.773868 -0.172596
H15   H     H_    0.082239 0.863777 0.789069 0.125699
C31   C     C_R   0.355319 0.811606 0.817480 -0.110020
C32   C     C_R   0.501655 0.741732 0.794773 0.100972
C33   C     C_3   0.713227 0.758941 0.791929 -0.400174
C34   C     C_3   0.710489 0.690315 0.721414 -0.405470
H16   H     H_    0.792222 0.726459 0.829495 0.171520
H17   H     H_    0.749544 0.839015 0.792049 0.165873
H18   H     H_    0.787336 0.617979 0.718235 0.166300
H19   H     H_    0.745480 0.730439 0.680621 0.168004
C35   C     C_R   0.457750 0.884302 0.387315 -0.161634
H20   H     H_    0.451777 0.834953 0.480749 0.101446
H21   H     H_    0.522066 0.003722 0.302255 0.125337
H22   H     H_    0.506728 0.959820 0.411852 0.107963
C36   C     C_R   0.362245 0.716032 0.396288 -0.032175
C37   C     C_R   0.287651 0.686988 0.070920 -0.166734
C38   C     C_R   0.255226 0.612845 0.107229 -0.119698
C39   C     C_R   0.281424 0.634533 0.177208 -0.159699
C40   C     C_R   0.343338 0.731922 0.212885 0.077788
C41   C     C_R   0.381865 0.806697 0.174924 0.069050
C42   C     C_R   0.367188 0.757827 0.284841 0.071814
C43   C     C_R   0.431225 0.857146 0.316838 0.145027
C44   C     C_R   0.471139 0.928282 0.278307 -0.213105
C45   C     C_R   0.447330 0.903459 0.208539 -0.199286
C46   C     C_R   0.331484 0.688456 0.326338 -0.216472
C47   C     C_R   0.425408 0.813763 0.426680 -0.175712
C48   C     C_R   0.351089 0.783606 0.103949 -0.078692
H23   H     H_    0.285003 0.611559 0.305958 0.091148
H24   H     H_    0.261652 0.669239 0.016778 0.102080
H25   H     H_    0.251144 0.573313 0.201663 0.104364
H26   H     H_    0.206647 0.538132 0.081044 0.116717
H27   H     H_    0.482143 0.960757 0.180881 0.122634
O11   O     O_R   0.203450 0.916320 0.913910 -0.541823
O12   O     O_R   0.535520 0.888300 0.047620 -0.541343
O13   O     O_R   0.710860 0.083650 0.086100 -0.539848
C49   C     C_R   0.365666 0.861573 0.064305 0.688644
O14   O     O_R   0.532860 0.904250 0.912040 -0.542255
O15   O     O_R   0.708190 0.099710 0.949550 -0.537121
C50   C     C_R   0.364429 0.882699 0.884772 0.697477
O16   O     O_R   0.206120 0.900260 0.050460 -0.535693
O17   O     O_3   0.375280 0.064080 0.012470 -0.371095
V3    V     V_3+5 0.648180 0.988110 0.997690 1.412151
O18   O     O_R   0.038220 0.111740 0.952370 -0.540860
C51   C     C_R   0.870299 0.137965 0.935311 0.687546
O19   O     O_R   0.040880 0.095790 0.087940 -0.544166
C52   C     C_R   0.872357 0.117574 0.115158 0.693608
V4    V     V_3+5 0.148800 0.011950 0.002300 1.411678
O20   O     O_3   0.871820 0.935920 0.987530 -0.370259
C53   C     C_3   0.863601 0.142444 0.492984 -0.382471
C54   C     C_3   0.071220 0.137827 0.466788 -0.303131
C55   C     C_3   0.079965 0.094375 0.390469 -0.757554
H28   H     H_    0.024202 0.015229 0.378081 0.237327
H29   H     H_    0.993821 0.140844 0.363199 0.230752
H30   H     H_    0.231299 0.094530 0.372920 0.210598
H31   H     H_    0.136104 0.215099 0.478103 0.206158
H32   H     H_    0.157839 0.089300 0.492598 0.197716
H33   H     H_    0.795629 0.066017 0.477772 0.173698
H34   H     H_    0.777960 0.193206 0.468720 0.157680

loop_
_geom_bond_atom_site_label_1
_geom_bond_atom_site_label_2
_ccdc_geom_bond_type
C54   H31   S    
O17   V4    S    
C1    C28   S    
C39   C40   A    
C1    O6    A    
C2    C36   S    
C45   H27   S    
C6    C16   A    
C28   C29   A    
C23   C24   A    
C25   H11   S    
C12   C13   A    
C40   C42   A    
C33   H17   S    
C14   C15   A    
C10   C12   A    
C27   C34   S    
O5    C3    A    
C19   C20   A    
C35   H22   S    
C55   H28   S    
V2    O10   S    
C30   H15   S    
C33   H16   S    
C36   C47   A    
C19   C24   A    
C29   H14   S    
O8    V2    S    
C9    C10   A    
O1    V2    S    
O12   C49   A    
O7    V1    S    
O15   C51   A    
O13   V3    S    
O16   V4    S    
C43   C44   A    
C37   C48   A    
C11   C18   A    
C21   C22   A    
C54   H32   S    
C32   C33   S    
O9    C4    A    
C11   C15   A    
C22   C23   A    
C46   H23   S    
O19   V4    S    
C53   C54   S    
O14   V3    S    
C20   C52   S    
C26   H12   S    
C29   C30   A    
H21   C44   S    
C7    C18   A    
O11   C50   A    
C40   C41   A    
C36   C46   A    
C5    C13   A    
C4    C6    S    
H1    C14   S    
C10   C11   A    
C20   C21   A    
C53   H33   S    
C44   C45   A    
C26   H13   S    
C7    H4    S    
C31   C32   A    
C24   C25   S    
C48   C49   S    
O12   V3    S    
C33   C34   S    
C34   H18   S    
O2    C1    A    
O13   C52   A    
C27   C32   A    
O11   V4    S    
O17   V3    S    
O14   C50   A    
C42   C43   A    
C39   H25   S    
C19   C26   S    
V3    O20   S    
O3    C4    A    
C21   H8    S    
H20   C47   S    
O6    V2    S    
C9    H5    S    
O9    V2    S    
C5    C17   A    
C22   H9    S    
O2    V1    S    
O15   V3    S    
C27   C28   A    
O4    C2    A    
C37   H24   S    
C35   C43   A    
C25   C26   S    
C16   H3    S    
O1    C2    A    
C42   C46   A    
C38   C39   A    
O5    V1    S    
C38   H26   S    
O8    C3    A    
C41   C48   A    
C12   C16   A    
C8    H6    S    
C54   C55   S    
C18   C51   S    
C17   C53   S    
O7    V2    S    
O4    V1    S    
C3    C23   S    
O3    V1    S    
O18   V4    S    
C35   C47   A    
C55   H29   S    
O19   C52   A    
C5    H2    S    
C30   C31   A    
C31   C50   S    
V4    O20   S    
C49   O16   A    
C53   H34   S    
C25   H10   S    
C34   H19   S    
C37   C38   A    
O18   C51   A    
C15   H7    S    
C13   C14   A    
C8    C9    A    
V1    O10   S    
C7    C8    A    
C41   C45   A    
C6    C17   A    
C55   H30   S    
