data_mof_unit_11423.cif
_audit_creation_date              2012-12-10T17:56:21-0500
_audit_creation_method            fapswitch 2.2
_symmetry_space_group_name_H-M    P1
_symmetry_Int_Tables_number       1
_space_group_crystal_system       triclinic
_cell_length_a                    12.99177
_cell_length_b                    10.833304
_cell_length_c                    9.508777
_cell_angle_alpha                 90.035979
_cell_angle_beta                  96.69077
_cell_angle_gamma                 90.220726
_cell_volume                      1329.17611313

loop_
_atom_site_label
_atom_site_type_symbol
_atom_type_description
_atom_site_fract_x
_atom_site_fract_y
_atom_site_fract_z
_atom_type_partial_charge
C1    C     C_R   0.499969 0.262044 0.499936 0.785892
C2    C     C_R   0.500031 0.737956 0.500063 0.785893
C3    C     C_R   0.500010 0.871789 0.500047 -0.018320
C4    C     C_R   0.499990 0.128211 0.499953 -0.018320
C5    C     C_R   0.431952 0.427614 0.063584 -0.035059
C6    C     C_R   0.568048 0.572386 0.936416 -0.035059
C7    C     C_R   0.432028 0.427575 0.914700 -0.019166
C8    C     C_R   0.567971 0.572425 0.085300 -0.019166
C9    C     C_R   0.300336 0.503609 0.472642 0.814808
C10   C     C_R   0.699664 0.496391 0.527358 0.814809
C11   C     C_R   0.812866 0.489142 0.544777 -0.063493
C12   C     C_R   0.187134 0.510858 0.455223 -0.063493
C13   C     C_R   0.022232 0.575603 0.331113 -0.191916
C14   C     C_R   0.977768 0.424397 0.668887 -0.191916
C15   C     C_R   0.130087 0.568111 0.336490 0.158589
C16   C     C_R   0.869913 0.431888 0.663509 0.158589
C17   C     C_R   0.135439 0.463230 0.564643 -0.297978
C18   C     C_R   0.864561 0.536769 0.435356 -0.297978
C19   C     C_R   0.028433 0.471758 0.558705 0.125784
C20   C     C_R   0.971567 0.528242 0.441295 0.125784
C21   C     C_R   0.497906 0.063747 0.371872 -0.183647
C22   C     C_R   0.502094 0.936253 0.628128 -0.183647
C23   C     C_R   0.497919 0.936043 0.371917 -0.190286
C24   C     C_R   0.502081 0.063957 0.628082 -0.190286
Cu1   Cu    Cu3+1 0.500000 0.500020 0.640660 0.937245
Cu2   Cu    Cu3+1 0.500000 0.499980 0.359340 0.937245
H1    H     H_    0.821193 0.580891 0.344746 0.151246
H2    H     H_    0.178807 0.419109 0.655254 0.151246
H3    H     H_    0.977559 0.619213 0.241295 0.133096
H4    H     H_    0.022441 0.380787 0.758705 0.133096
H5    H     H_    0.496180 0.111702 0.271695 0.149263
H6    H     H_    0.503820 0.888297 0.728305 0.149263
H7    H     H_    0.496226 0.887924 0.271768 0.149106
H8    H     H_    0.503774 0.112076 0.728232 0.149106
H9    H     H_    0.377556 0.369578 0.111097 0.116484
H10   H     H_    0.622444 0.630421 0.888903 0.116484
H11   H     H_    0.377717 0.369378 0.849868 0.114346
H12   H     H_    0.622283 0.630622 0.150132 0.114346
N1    N     N_R   0.500030 0.500030 0.852080 -0.154815
N2    N     N_R   0.499970 0.499970 0.147920 -0.154815
O1    O     O_R   0.499990 0.319660 0.618740 -0.590857
O2    O     O_R   0.500010 0.680340 0.381260 -0.590858
O3    O     O_R   0.499990 0.319630 0.381170 -0.585787
O4    O     O_R   0.500010 0.680370 0.618830 -0.585787
O5    O     O_R   0.349000 0.499990 0.599490 -0.585481
O6    O     O_R   0.651000 0.500010 0.400510 -0.585481
O7    O     O_R   0.348990 0.499960 0.361920 -0.581509
O8    O     O_R   0.651010 0.500040 0.638080 -0.581509
C25   C     C_3   0.818607 0.374746 0.782368 -0.829996
H13   H     H_    0.875125 0.325082 0.858643 0.215395
H14   H     H_    0.782610 0.447673 0.842287 0.241756
H15   H     H_    0.758874 0.306856 0.739047 0.235298
C26   C     C_3   0.181393 0.625254 0.217631 -0.829996
H16   H     H_    0.124875 0.674917 0.141357 0.215395
H17   H     H_    0.241126 0.693144 0.260952 0.235298
H18   H     H_    0.217390 0.552327 0.157713 0.241756

loop_
_geom_bond_atom_site_label_1
_geom_bond_atom_site_label_2
_ccdc_geom_bond_type
C12   C17   A    
C10   O6    A    
C2    O4    A    
C11   C18   A    
C9    O5    A    
Cu1   O5    S    
C11   C16   A    
C3    C23   A    
C19   C20   A    
C12   C15   A    
C1    C4    S    
C25   H15   S    
C22   C24   A    
C26   H17   S    
C2    C3    S    
C7    H11   S    
C26   H16   S    
Cu1   N1    S    
C4    C21   A    
C21   H5    S    
Cu1   O8    S    
Cu2   N2    S    
C22   H6    S    
C8    H12   S    
C2    O2    A    
Cu2   O7    S    
Cu1   O4    S    
C13   H3    S    
C17   C19   A    
C14   H4    S    
Cu2   O3    S    
C9    O7    A    
C18   C20   A    
C13   C15   A    
C21   C23   A    
C10   O8    A    
C4    C24   A    
C9    C12   S    
C14   C16   A    
C26   H18   S    
C10   C11   S    
Cu2   O6    S    
C15   C26   S    
C5    H9    S    
C16   C25   S    
Cu2   O2    S    
C25   H13   S    
C5    N2    A    
Cu1   O1    S    
C5    C7    A    
C7    N1    A    
C6    N1    A    
C3    C22   A    
C6    C8    A    
C8    N2    A    
C13   C20   A    
C23   H7    S    
Cu1   Cu2   S    
C17   H2    S    
C14   C19   A    
C1    O3    A    
C24   H8    S    
C18   H1    S    
C1    O1    A    
C6    H10   S    
C25   H14   S    
