data_mof_unit_33800.cif
_audit_creation_date              2012-12-10T18:45:08-0500
_audit_creation_method            fapswitch 2.2
_symmetry_space_group_name_H-M    P1
_symmetry_Int_Tables_number       1
_space_group_crystal_system       triclinic
_cell_length_a                    10.686204
_cell_length_b                    9.813054
_cell_length_c                    10.638918
_cell_angle_alpha                 89.946425
_cell_angle_beta                  90.867666
_cell_angle_gamma                 90.017121
_cell_volume                      1115.51420061

loop_
_atom_site_label
_atom_site_type_symbol
_atom_type_description
_atom_site_fract_x
_atom_site_fract_y
_atom_site_fract_z
_atom_type_partial_charge
C1    C     C_R   0.259962 0.499756 0.495012 0.951339
C2    C     C_R   0.509920 0.500144 0.740996 0.894363
C3    C     C_R   0.413786 0.753118 0.105418 -0.022240
C4    C     C_R   0.577556 0.746113 0.901362 -0.002288
C5    C     C_R   0.456168 0.874737 0.050783 -0.228627
C6    C     C_R   0.542504 0.871100 0.954068 -0.230133
C7    C     C_R   0.519550 0.624688 0.943990 0.019069
C8    C     C_R   0.460303 0.626752 0.059832 0.015545
C9    C     C_R   0.459226 0.502133 0.126976 -0.048619
C10   C     C_R   0.515913 0.500380 0.876363 -0.055276
C11   C     C_R   0.467926 0.377862 0.063854 -0.142375
C12   C     C_R   0.739805 0.500055 0.493031 0.966683
C13   C     C_R   0.490337 0.377435 0.937504 -0.189152
C14   C     C_R   0.063917 0.398931 0.414292 0.359240
C15   C     C_R   0.934103 0.399158 0.413429 0.343074
C16   C     C_R   0.872006 0.501482 0.480883 -0.183808
C17   C     C_R   0.127566 0.500030 0.484063 -0.199218
C18   C     C_2   0.309518 0.759720 0.196136 0.949937
C19   C     C_2   0.690919 0.740788 0.822940 0.935540
C20   C     C_R   0.936846 0.608965 0.537370 -0.222574
C21   C     C_R   0.064436 0.606851 0.541259 -0.228239
C22   C     C_R   0.556810 0.072079 0.406177 0.004480
C23   C     C_R   0.442805 0.071909 0.593565 -0.026971
C24   C     C_R   0.557204 0.928059 0.406432 -0.005955
C25   C     C_R   0.442676 0.927856 0.593462 -0.009378
C26   C     C_R   0.482292 0.500509 0.260717 0.923116
Cl1   Cl    Cl    0.144280 0.277399 0.322283 -0.485938
Cl2   Cl    Cl    0.851667 0.277193 0.321486 -0.540897
H1    H     H_    0.460654 0.281077 0.112362 0.175921
H2    H     H_    0.396775 0.873093 0.668033 0.127640
H3    H     H_    0.158198 0.667798 0.268776 0.354660
H4    H     H_    0.848865 0.637324 0.783489 0.340373
H5    H     H_    0.489142 0.280695 0.888463 0.164994
H6    H     H_    0.424565 0.972776 0.084631 0.185878
H7    H     H_    0.582861 0.965811 0.921469 0.184446
H8    H     H_    0.888935 0.692810 0.581894 0.208353
H9    H     H_    0.113719 0.687441 0.591108 0.194616
H10   H     H_    0.601829 0.126715 0.330965 0.166824
H11   H     H_    0.396968 0.126470 0.668223 0.127188
H12   H     H_    0.602852 0.873470 0.331645 0.138422
N1    N     N_R   0.500000 0.857200 0.500000 -0.082450
N2    N     N_R   0.500000 0.142810 0.500000 -0.086170
O1    O     O_R   0.316770 0.614620 0.499990 -0.623008
O2    O     O_R   0.229222 0.648296 0.209387 -0.798002
O3    O     O_2   0.721614 0.839198 0.759839 -0.630158
O4    O     O_R   0.766434 0.624459 0.827326 -0.806677
O5    O     O_R   0.683230 0.614620 0.500010 -0.617773
O6    O     O_R   0.316800 0.385290 0.500000 -0.579170
O7    O     O_R   0.683200 0.385290 0.500000 -0.574506
O8    O     O_R   0.500010 0.614690 0.316770 -0.648513
O9    O     O_R   0.499990 0.614690 0.683230 -0.642432
O10   O     O_R   0.500040 0.385360 0.316770 -0.610355
O11   O     O_R   0.499960 0.385360 0.683230 -0.633720
O12   O     O_2   0.291035 0.863894 0.256157 -0.599924
Zn1   Zn    Zn3+2 0.500000 0.653120 0.500000 0.995005
Zn2   Zn    Zn3+2 0.500000 0.346880 0.500000 1.027840

loop_
_geom_bond_atom_site_label_1
_geom_bond_atom_site_label_2
_ccdc_geom_bond_type
C7    C10   A    
C19   O3    D    
C1    O6    A    
C13   H5    S    
C26   O10   A    
C14   Cl1   S    
O7    Zn2   S    
C9    C11   A    
C1    C17   S    
O8    Zn1   S    
C16   C20   A    
C5    H6    S    
C26   O8    A    
C12   O7    A    
C19   O4    S    
C7    C8    A    
C10   C13   A    
C6    H7    S    
C24   N1    A    
C11   C13   A    
C14   C17   A    
C15   Cl2   S    
C22   N2    A    
C23   N2    A    
C12   O5    A    
C23   H11   S    
O1    Zn1   S    
C24   H12   S    
C9    C26   S    
O9    Zn1   S    
C4    C7    A    
C5    C6    A    
C22   C24   A    
C2    O9    A    
C18   O12   D    
C15   C16   A    
C22   H10   S    
O10   Zn2   S    
C18   O2    S    
C23   C25   A    
C21   H9    S    
C20   C21   A    
C11   H1    S    
C3    C18   S    
C4    C6    A    
C3    C8    A    
H3    O2    S    
O11   Zn2   S    
C25   N1    A    
C25   H2    S    
O6    Zn2   S    
O5    Zn1   S    
C14   C15   A    
N1    Zn1   S    
N2    Zn2   S    
C4    C19   S    
H4    O4    S    
C1    O1    A    
C2    C10   S    
C17   C21   A    
C12   C16   S    
C8    C9    A    
C3    C5    A    
C2    O11   A    
C20   H8    S    
