data_mof_unit_50860.cif
_audit_creation_date              2012-12-10T17:19:01-0500
_audit_creation_method            fapswitch 2.2
_symmetry_space_group_name_H-M    P1
_symmetry_Int_Tables_number       1
_space_group_crystal_system       triclinic
_cell_length_a                    10.246602
_cell_length_b                    10.857458
_cell_length_c                    13.487986
_cell_angle_alpha                 92.132538
_cell_angle_beta                  99.566101
_cell_angle_gamma                 95.747201
_cell_volume                      1470.04276005

loop_
_atom_site_label
_atom_site_type_symbol
_atom_type_description
_atom_site_fract_x
_atom_site_fract_y
_atom_site_fract_z
_atom_type_partial_charge
C1    C     C_R   0.053701 0.732114 0.495129 0.949082
C2    C     C_2   0.018058 0.066696 0.512430 -0.150680
C3    C     C_2   0.431053 0.509705 0.508242 -0.088703
C4    C     C_2   0.569840 0.491371 0.490334 -0.050117
C5    C     C_R   0.093069 0.515498 0.685928 0.897029
C6    C     C_R   0.907141 0.485089 0.314101 0.898694
C7    C     C_R   0.145578 0.545573 0.791993 -0.083761
C8    C     C_R   0.855698 0.458072 0.207628 -0.086263
C9    C     C_R   0.188585 0.691137 0.936759 0.064323
C10   C     C_R   0.816165 0.318274 0.059585 0.061493
C11   C     C_R   0.113232 0.650809 0.842174 0.059150
C12   C     C_R   0.947426 0.268053 0.507595 0.948141
C13   C     C_R   0.889370 0.355035 0.155502 0.053832
C14   C     C_R   0.248285 0.481156 0.836213 -0.330676
C15   C     C_R   0.754240 0.524304 0.163956 -0.331336
C16   C     C_R   0.340844 0.533118 0.918490 0.059102
C17   C     C_R   0.663313 0.475505 0.079661 0.057909
C18   C     C_R   0.302584 0.632252 0.974350 0.108805
C19   C     C_R   0.702752 0.378190 0.022409 0.111082
C20   C     C_R   0.466259 0.486286 0.949170 0.012382
C21   C     C_R   0.538509 0.523526 0.048514 0.010060
C22   C     C_3   0.513730 0.624109 0.226373 -0.420046
C23   C     C_R   0.480699 0.605487 0.111914 0.081489
C24   C     C_3   0.574978 0.758230 0.259284 -0.356674
C25   C     C_3   0.627473 0.773117 0.371901 -0.860130
C26   C     C_3   0.488684 0.384952 0.770990 -0.408351
C27   C     C_3   0.430818 0.249229 0.740598 -0.357297
C28   C     C_3   0.382157 0.229644 0.627867 -0.865707
C29   C     C_R   0.524431 0.405470 0.885185 0.077338
C30   C     C_R   0.372546 0.665708 0.069902 -0.239629
C31   C     C_R   0.634312 0.347067 0.926176 -0.242523
C32   C     C_2   0.086036 0.864150 0.496362 -0.382406
C33   C     C_2   0.919572 0.136863 0.516933 -0.390208
C34   C     C_2   0.995332 0.935767 0.518192 -0.158863
H1    H     H_    0.334681 0.732129 0.116733 0.176680
H2    H     H_    0.420025 0.579645 0.564865 0.170204
H3    H     H_    0.956523 0.195822 0.207431 0.174748
H4    H     H_    0.067188 0.287957 0.154458 0.185559
H5    H     H_    0.045134 0.807987 0.786637 0.176158
H6    H     H_    0.936079 0.719071 0.843478 0.177309
H7    H     H_    0.154769 0.871790 0.950427 0.180395
H8    H     H_    0.056286 0.771765 0.007471 0.184641
H9    H     H_    0.850134 0.138101 0.041950 0.179633
H10   H     H_    0.950465 0.240879 0.988774 0.184623
H11   H     H_    0.546305 0.747089 0.414885 0.263742
H12   H     H_    0.673668 0.282708 0.878541 0.176815
H13   H     H_    0.709012 0.714162 0.391564 0.302233
H14   H     H_    0.667367 0.871174 0.393013 0.237047
H15   H     H_    0.657087 0.787211 0.218001 0.218127
H16   H     H_    0.498453 0.823341 0.241504 0.218112
H17   H     H_    0.419451 0.607956 0.256995 0.196358
H18   H     H_    0.573385 0.553379 0.262412 0.215988
H19   H     H_    0.298615 0.285438 0.604904 0.301572
H20   H     H_    0.464814 0.256273 0.586529 0.256991
H21   H     H_    0.346394 0.130315 0.608710 0.236056
H22   H     H_    0.508335 0.185883 0.761437 0.218968
H23   H     H_    0.747297 0.612934 0.199112 0.177281
H24   H     H_    0.347606 0.220355 0.780785 0.217571
H25   H     H_    0.425482 0.453081 0.734909 0.222597
H26   H     H_    0.581417 0.403437 0.738643 0.200159
H27   H     H_    0.710151 0.723295 0.601005 0.198135
H28   H     H_    0.719298 0.609812 0.682149 0.204304
H29   H     H_    0.372547 0.406048 0.327248 0.162079
H30   H     H_    0.388198 0.291604 0.411573 0.161304
H31   H     H_    0.255439 0.391545 0.802806 0.174041
H32   H     H_    0.116298 0.105107 0.501019 0.194074
H33   H     H_    0.900578 0.897835 0.536882 0.186278
H34   H     H_    0.821156 0.097870 0.527442 0.146559
H35   H     H_    0.180803 0.902613 0.478197 0.147420
H36   H     H_    0.582154 0.422731 0.433244 0.130849
N1    N     N_2   0.322180 0.446120 0.460900 -0.065257
N2    N     N_2   0.677820 0.553880 0.539100 -0.079821
N3    N     N_3   0.995114 0.287418 0.200952 -0.428348
N4    N     N_3   0.006780 0.717098 0.795985 -0.450869
N5    N     N_3   0.152915 0.793622 0.993296 -0.490369
N6    N     N_3   0.853195 0.218071 0.001253 -0.491156
N7    N     N_3   0.663949 0.637516 0.616128 -0.430665
N8    N     N_3   0.330236 0.360400 0.383064 -0.361070
O1    O     O_R   0.935190 0.693030 0.507870 -0.622615
O2    O     O_R   0.064810 0.306970 0.492130 -0.601486
O3    O     O_R   0.142080 0.658430 0.482770 -0.615587
O4    O     O_R   0.857920 0.341570 0.517230 -0.617584
O5    O     O_R   0.969700 0.527180 0.651960 -0.588838
O6    O     O_R   0.030300 0.472820 0.348040 -0.566484
O7    O     O_R   0.176600 0.492580 0.626860 -0.632067
O8    O     O_R   0.823400 0.507420 0.373140 -0.633705
Zn1   Zn    Zn3+2 0.861850 0.523100 0.516760 0.921129
Zn2   Zn    Zn3+2 0.138150 0.476900 0.483240 0.953643

loop_
_geom_bond_atom_site_label_1
_geom_bond_atom_site_label_2
_ccdc_geom_bond_type
O5    Zn1   S    
C8    C13   A    
H28   N7    S    
C19   C31   A    
O1    Zn1   S    
C7    C11   A    
C26   C27   S    
C30   H1    S    
C5    O5    A    
C1    O3    A    
O4    Zn1   S    
C11   N4    S    
H9    N6    S    
H5    N4    S    
H10   N6    S    
C10   N6    S    
C7    C14   A    
H27   N7    S    
C31   H12   S    
C18   C30   A    
C26   H25   S    
C25   H13   S    
C5    O7    A    
C2    C34   S    
O2    Zn2   S    
C15   H23   S    
C4    H36   S    
C28   H21   S    
C20   C29   A    
C24   H16   S    
C6    O6    A    
C23   C30   A    
C24   C25   S    
C5    C7    S    
C28   H20   S    
C27   H22   S    
C6    C8    S    
C27   H24   S    
C1    C32   S    
C17   C21   A    
C32   C34   D    
C3    N1    D    
N2    N7    S    
H7    N5    S    
C10   C19   A    
C16   C20   A    
H8    N5    S    
C12   O4    A    
C9    C11   A    
C25   H14   S    
C2    C33   D    
C13   N3    S    
C8    C15   A    
C21   C23   A    
C1    O1    A    
C14   C16   A    
C3    C4    S    
C25   H11   S    
C4    N2    D    
N2    Zn1   S    
C22   H18   S    
O7    Zn2   S    
C24   H15   S    
C15   C17   A    
H3    N3    S    
O8    Zn1   S    
H30   N8    S    
O6    Zn2   S    
C2    H32   S    
C10   C13   A    
C34   H33   S    
C28   H19   S    
C32   H35   S    
C6    O8    A    
C29   C31   A    
C3    H2    S    
C12   O2    A    
C17   C19   A    
C14   H31   S    
H6    N4    S    
C22   C24   S    
O3    Zn2   S    
N1    Zn2   S    
C9    C18   A    
C20   C21   A    
C26   C29   S    
C16   C18   A    
C27   C28   S    
C22   C23   S    
C9    N5    S    
C12   C33   S    
C26   H26   S    
H29   N8    S    
N1    N8    S    
C33   H34   S    
C22   H17   S    
H4    N3    S    
