data_mof_unit_31577.cif
_audit_creation_date              2012-12-10T17:52:28-0500
_audit_creation_method            fapswitch 2.2
_symmetry_space_group_name_H-M    P1
_symmetry_Int_Tables_number       1
_space_group_crystal_system       triclinic
_cell_length_a                    19.21842
_cell_length_b                    10.636946
_cell_length_c                    9.910552
_cell_angle_alpha                 89.920235
_cell_angle_beta                  89.752454
_cell_angle_gamma                 92.080728
_cell_volume                      2024.61039889

loop_
_atom_site_label
_atom_site_type_symbol
_atom_type_description
_atom_site_fract_x
_atom_site_fract_y
_atom_site_fract_z
_atom_type_partial_charge
C1    C     C_R   0.502076 0.260728 0.500103 0.849305
C2    C     C_R   0.854874 0.514044 0.501739 0.092006
C3    C     C_R   0.615246 0.138643 0.636284 -0.248736
C4    C     C_R   0.365728 0.501258 0.500364 0.837664
C5    C     C_R   0.668337 0.076877 0.701209 -0.247938
C6    C     C_R   0.670603 0.945507 0.696136 0.564185
C7    C     C_R   0.616873 0.876834 0.632156 -0.282035
C8    C     C_R   0.561804 0.938242 0.568240 0.021589
C9    C     C_R   0.561320 0.069978 0.569285 0.107800
C10   C     C_R   0.507374 0.128774 0.499795 -0.074013
C11   C     C_R   0.457301 0.061308 0.426072 -0.219171
C12   C     C_R   0.290575 0.510921 0.501719 -0.016255
C13   C     C_R   0.457268 0.932978 0.426305 -0.186807
C14   C     C_R   0.507819 0.872210 0.499141 -0.076214
C15   C     C_R   0.408925 0.333530 0.141019 -0.270110
C16   C     C_R   0.502619 0.739526 0.499852 0.873035
C17   C     C_R   0.364572 0.249516 0.071275 0.497996
C18   C     C_R   0.365468 0.249202 0.931340 -0.273849
C19   C     C_R   0.409041 0.333573 0.860847 -0.249640
C20   C     C_R   0.454918 0.418350 0.928179 0.178536
C21   C     C_R   0.454872 0.418415 0.072739 0.113876
C22   C     C_R   0.543140 0.578131 0.071019 -0.098819
C23   C     C_R   0.930664 0.525064 0.504001 0.283320
C24   C     C_R   0.543120 0.578118 0.927875 -0.105594
C25   C     C_R   0.634316 0.499590 0.499713 0.835981
C26   C     C_R   0.253426 0.490497 0.622111 -0.193782
C27   C     C_R   0.181968 0.503044 0.624676 -0.166030
C28   C     C_R   0.146827 0.536083 0.506785 0.082381
C29   C     C_R   0.184290 0.558599 0.386814 -0.186162
C30   C     C_R   0.255799 0.545545 0.384201 -0.212144
C31   C     C_3   0.788083 0.908853 0.700333 0.067567
C32   C     C_3   0.794600 0.844720 0.562405 -0.382597
C33   C     C_3   0.869048 0.855778 0.508456 -0.906991
C34   C     C_R   0.071055 0.538871 0.507121 0.289257
C35   C     C_3   0.268261 0.211306 0.206247 0.063785
C36   C     C_3   0.268024 0.170942 0.354545 -0.346162
C37   C     C_3   0.198043 0.192881 0.422120 -0.921764
C38   C     C_R   0.817783 0.484961 0.620618 -0.173617
C39   C     C_R   0.745666 0.478237 0.619431 -0.209581
C40   C     C_R   0.709889 0.500383 0.499366 -0.038783
C41   C     C_R   0.746833 0.526389 0.379807 -0.198357
C42   C     C_R   0.818969 0.533286 0.380990 -0.172566
H1    H     H_    0.279413 0.463879 0.714073 0.155639
H2    H     H_    0.154304 0.484779 0.718486 0.149974
H3    H     H_    0.578361 0.641936 0.873655 0.157481
H4    H     H_    0.158389 0.584123 0.294451 0.154454
H5    H     H_    0.283771 0.562971 0.290509 0.158505
H6    H     H_    0.844257 0.468841 0.714948 0.152723
H7    H     H_    0.718029 0.456875 0.712642 0.162298
H8    H     H_    0.720103 0.543846 0.286000 0.160239
H9    H     H_    0.846399 0.555360 0.287791 0.151805
H10   H     H_    0.417247 0.108226 0.370771 0.168203
H11   H     H_    0.828169 0.871507 0.768531 0.180464
H12   H     H_    0.617657 0.240218 0.638160 0.179102
H13   H     H_    0.800000 0.011677 0.691410 0.127411
H14   H     H_    0.778717 0.743985 0.572439 0.253730
H15   H     H_    0.759441 0.888609 0.488700 0.213619
H16   H     H_    0.885930 0.956271 0.497677 0.262629
H17   H     H_    0.871702 0.810161 0.407974 0.269086
H18   H     H_    0.905014 0.808227 0.577736 0.267024
H19   H     H_    0.219910 0.174035 0.157162 0.173188
H20   H     H_    0.267257 0.316214 0.201156 0.117433
H21   H     H_    0.279003 0.069271 0.362096 0.240612
H22   H     H_    0.309591 0.225306 0.409007 0.192846
H23   H     H_    0.707919 0.131698 0.754683 0.145894
H24   H     H_    0.183602 0.292038 0.409655 0.279891
H25   H     H_    0.201388 0.171567 0.531534 0.263506
H26   H     H_    0.156810 0.130606 0.376925 0.263179
H27   H     H_    0.620106 0.775566 0.630130 0.162910
H28   H     H_    0.416829 0.880673 0.371928 0.161488
H29   H     H_    0.578413 0.641919 0.124388 0.146343
H30   H     H_    0.406392 0.328037 0.248045 0.210107
H31   H     H_    0.332104 0.182978 0.876580 0.171152
H32   H     H_    0.405749 0.328636 0.753815 0.223158
N1    N     N_R   0.036089 0.559061 0.391108 -0.181620
N2    N     N_R   0.967049 0.552496 0.389632 -0.182889
N3    N     N_R   0.965612 0.506711 0.620363 -0.184789
N4    N     N_R   0.034616 0.513269 0.621838 -0.182734
N5    N     N_R   0.499340 0.498800 0.142780 -0.108288
N6    N     N_R   0.499320 0.498720 0.857170 -0.114258
O1    O     O_R   0.500000 0.316780 0.614690 -0.636890
O2    O     O_3   0.325381 0.158036 0.139355 -0.646821
O3    O     O_R   0.499990 0.316750 0.385360 -0.623486
O4    O     O_R   0.398140 0.500000 0.614700 -0.631448
O5    O     O_R   0.398130 0.499970 0.385370 -0.641168
O6    O     O_R   0.500010 0.683250 0.614640 -0.609418
O7    O     O_R   0.500000 0.683220 0.385310 -0.612210
O8    O     O_R   0.601870 0.500030 0.614630 -0.631849
O9    O     O_R   0.601860 0.500000 0.385300 -0.614224
O10   O     O_3   0.722305 0.881050 0.760580 -0.654657
Zn1   Zn    Zn3+2 0.500000 0.500020 0.653130 0.938335
Zn2   Zn    Zn3+2 0.500000 0.499980 0.346870 0.941752

loop_
_geom_bond_atom_site_label_1
_geom_bond_atom_site_label_2
_ccdc_geom_bond_type
C33   H16   S    
C41   C42   A    
C41   H8    S    
C19   C20   A    
C23   N2    A    
C7    C8    A    
N3    N4    A    
O3    Zn2   S    
C26   C27   A    
C24   H3    S    
C36   C37   S    
C22   N5    A    
C18   C19   A    
O6    Zn1   S    
C25   C40   S    
C38   C39   A    
C3    H12   S    
C13   H28   S    
C1    O1    A    
C37   H26   S    
C17   O2    S    
C11   H10   S    
C27   H2    S    
O5    Zn2   S    
C35   C36   S    
C8    C9    A    
C16   O7    A    
O4    Zn1   S    
C4    C12   S    
C36   H21   S    
C9    C10   A    
C38   H6    S    
C34   N1    A    
C28   C34   S    
C33   H17   S    
O7    Zn2   S    
C16   O6    A    
C32   H15   S    
C35   O2    S    
C24   N6    A    
C26   H1    S    
C20   N6    A    
C30   H5    S    
C5    H23   S    
C39   C40   A    
C4    O5    A    
C6    O10   S    
C25   O8    A    
C23   N3    A    
C12   C26   A    
N1    N2    A    
C29   C30   A    
C3    C9    A    
C2    C38   A    
C31   C32   S    
C4    O4    A    
O8    Zn1   S    
C31   O10   S    
C37   H24   S    
C21   N5    A    
C17   C18   A    
C35   H19   S    
C31   H11   S    
O9    Zn2   S    
C33   H18   S    
N5    Zn2   S    
C40   C41   A    
C39   H7    S    
C18   H31   S    
C22   C24   A    
C22   H29   S    
C27   C28   A    
C15   C17   A    
C28   C29   A    
C8    C14   A    
C12   C30   A    
C19   H32   S    
C1    C10   S    
C3    C5    A    
C7    H27   S    
C6    C7    A    
C1    O3    A    
C42   H9    S    
C25   O9    A    
C29   H4    S    
C32   C33   S    
N6    Zn1   S    
C36   H22   S    
C34   N4    A    
C11   C13   A    
C5    C6    A    
C2    C42   A    
C37   H25   S    
C15   H30   S    
C35   H20   S    
C14   C16   S    
C10   C11   A    
O1    Zn1   S    
C15   C21   A    
C20   C21   A    
C2    C23   S    
C31   H13   S    
C13   C14   A    
C32   H14   S    
