data_mof_unit_22087.cif
_audit_creation_date              2012-10-26T18:26:38-0400
_audit_creation_method            fapswitch 2.2
_symmetry_space_group_name_H-M    P1
_symmetry_Int_Tables_number       1
_space_group_crystal_system       triclinic
_cell_length_a                    15.816218
_cell_length_b                    8.688214
_cell_length_c                    7.504103
_cell_angle_alpha                 103.355654
_cell_angle_beta                  94.799965
_cell_angle_gamma                 92.947963
_cell_volume                      997.10117233

loop_
_atom_site_label
_atom_site_type_symbol
_atom_type_description
_atom_site_fract_x
_atom_site_fract_y
_atom_site_fract_z
_atom_type_partial_charge
C1    C     C_R   0.497325 0.199707 0.452985 0.541628
C2    C     C_3   0.979390 0.640397 0.598404 -0.100895
C3    C     C_1   0.250306 0.499790 0.504025 -0.034232
C4    C     C_1   0.749694 0.500210 0.495975 -0.034198
C5    C     C_3   0.034598 0.523565 0.674806 -0.100907
C6    C     C_3   0.965402 0.476435 0.325194 -0.100904
C7    C     C_3   0.082819 0.499972 0.502540 0.053128
C8    C     C_3   0.917181 0.500027 0.497461 0.053128
C9    C     C_1   0.174634 0.499907 0.504297 -0.064504
C10   C     C_1   0.825366 0.500093 0.495704 -0.064488
C11   C     C_R   0.502672 0.800293 0.547015 0.541618
C12   C     C_R   0.339994 0.499543 0.501264 0.544973
C13   C     C_R   0.660006 0.500457 0.498736 0.544981
C14   C     C_2   0.495877 0.031381 0.427068 -0.155230
C15   C     C_2   0.504118 0.968619 0.572933 -0.155222
C16   C     C_3   0.970818 0.383201 0.573850 -0.100913
C17   C     C_3   0.029182 0.616799 0.426150 -0.100913
C18   C     C_3   0.020610 0.359603 0.401597 -0.100896
Cu1   Cu    Cu3+1 0.509330 0.517380 0.684380 0.994649
Cu2   Cu    Cu3+1 0.490670 0.482620 0.315620 0.994652
H1    H     H_    0.038995 0.244366 0.320988 0.101627
H2    H     H_    0.426203 0.238777 0.943087 0.212280
H3    H     H_    0.643198 0.620215 0.031376 0.221347
H4    H     H_    0.573625 0.761312 0.057281 0.212246
H5    H     H_    0.961005 0.755634 0.679012 0.101628
H6    H     H_    0.945402 0.287330 0.634369 0.102082
H7    H     H_    0.054598 0.712670 0.365632 0.102079
H8    H     H_    0.935630 0.457159 0.181718 0.103977
H9    H     H_    0.064370 0.542840 0.818282 0.103967
H10   H     H_    0.487930 0.958840 0.286950 0.129824
H11   H     H_    0.512062 0.041161 0.713052 0.129916
H12   H     H_    0.356767 0.380127 0.968352 0.221349
N1    N     N_2   0.476600 0.456420 0.038510 -0.021902
N2    N     N_2   0.523400 0.543580 0.961490 -0.021904
N3    N     N_3   0.415806 0.351408 0.922479 -0.446213
N4    N     N_3   0.584175 0.648629 0.077540 -0.446174
O1    O     O_R   0.506070 0.286130 0.619780 -0.479125
O2    O     O_R   0.493930 0.713870 0.380220 -0.479205
O3    O     O_R   0.490300 0.256770 0.308360 -0.514674
O4    O     O_R   0.509700 0.743230 0.691640 -0.514659
O5    O     O_R   0.386960 0.514660 0.655680 -0.474785
O6    O     O_R   0.613040 0.485340 0.344320 -0.474683
O7    O     O_R   0.371190 0.485310 0.344260 -0.512217
O8    O     O_R   0.628810 0.514690 0.655740 -0.512234

loop_
_geom_bond_atom_site_label_1
_geom_bond_atom_site_label_2
_ccdc_geom_bond_type
C11   O2    A    
Cu2   O6    S    
C15   H11   S    
C12   O5    A    
C3    C9    T    
C2    H5    S    
C18   H1    S    
Cu2   O2    S    
N2    N4    S    
Cu1   Cu2   S    
C1    O1    A    
C7    C18   S    
N1    N2    D    
Cu2   O3    S    
C8    C16   S    
C2    C17   S    
H2    N3    S    
C1    C14   S    
H4    N4    S    
C14   H10   S    
Cu2   N1    S    
C8    C10   S    
C13   O6    A    
N1    N3    S    
C12   O7    A    
C5    H9    S    
C16   H6    S    
C11   O4    A    
C6    C18   S    
C2    C8    S    
C2    C5    S    
Cu1   O4    S    
C1    O3    A    
C4    C10   T    
C17   H7    S    
H12   N3    S    
C7    C9    S    
Cu2   O7    S    
Cu1   O8    S    
C16   C18   S    
H3    N4    S    
C4    C13   S    
C5    C7    S    
C6    C17   S    
C14   C15   D    
C5    C16   S    
C6    C8    S    
C3    C12   S    
Cu1   O1    S    
C11   C15   S    
C13   O8    A    
C6    H8    S    
Cu1   O5    S    
C7    C17   S    
Cu1   N2    S    
