data_mof_unit_54784.cif
_audit_creation_date              2012-12-10T17:45:33-0500
_audit_creation_method            fapswitch 2.2
_symmetry_space_group_name_H-M    P1
_symmetry_Int_Tables_number       1
_space_group_crystal_system       triclinic
_cell_length_a                    11.528004
_cell_length_b                    10.624815
_cell_length_c                    9.942356
_cell_angle_alpha                 90.093195
_cell_angle_beta                  90.014207
_cell_angle_gamma                 91.482994
_cell_volume                      1217.35914075

loop_
_atom_site_label
_atom_site_type_symbol
_atom_type_description
_atom_site_fract_x
_atom_site_fract_y
_atom_site_fract_z
_atom_type_partial_charge
Br1   Br    Br    0.171812 0.140356 0.164548 -0.551809
C1    C     C_R   0.502456 0.260912 0.499973 0.872799
C2    C     C_R   0.506502 0.871934 0.499520 -0.227670
C3    C     C_R   0.349266 0.334132 0.139330 -0.162165
C4    C     C_R   0.282107 0.498800 0.500037 0.890536
C5    C     C_R   0.274812 0.252309 0.069195 0.292819
C6    C     C_R   0.274840 0.252495 0.929899 -0.223342
C7    C     C_R   0.349036 0.334348 0.860100 -0.170950
C8    C     C_R   0.425937 0.418178 0.927694 0.071444
C9    C     C_R   0.426073 0.418083 0.071995 0.105027
C10   C     C_R   0.570334 0.578788 0.071956 -0.201028
C11   C     C_R   0.572321 0.577934 0.928009 0.538696
C12   C     C_R   0.807033 0.072452 0.630250 -0.123585
C13   C     C_R   0.501022 0.739283 0.499921 0.910439
C14   C     C_R   0.717894 0.500320 0.500036 0.862365
C15   C     C_1   0.161552 0.496602 0.500324 -0.176164
C16   C     C_1   0.059273 0.495932 0.500613 0.001187
C17   C     C_1   0.940578 0.497037 0.500542 -0.001788
C18   C     C_1   0.838375 0.498659 0.500254 -0.203122
C19   C     C_R   0.708513 0.135998 0.590151 -0.141200
C20   C     C_3   0.759898 0.652679 0.889398 0.080538
C21   C     C_3   0.806126 0.773201 0.956052 -0.831264
C22   C     C_3   0.225719 0.860658 0.492878 0.088534
C23   C     C_R   0.807095 0.941509 0.627407 -0.158756
C24   C     C_3   0.113068 0.821361 0.422990 -0.744606
C25   C     C_R   0.708222 0.873637 0.585969 -0.102527
C26   C     C_R   0.607358 0.936681 0.545426 0.037006
C27   C     C_R   0.607939 0.068547 0.546606 0.099326
C28   C     C_R   0.508483 0.128899 0.499788 -0.160810
C29   C     C_R   0.412264 0.063429 0.449398 -0.295790
C30   C     C_R   0.409536 0.934194 0.451137 0.479893
H1    H     H_    0.338173 0.112914 0.410847 0.187474
H2    H     H_    0.808040 0.640197 0.793751 0.171675
H3    H     H_    0.780362 0.570031 0.953641 0.119765
H4    H     H_    0.767504 0.784874 0.057239 0.246721
H5    H     H_    0.901839 0.769352 0.966875 0.224516
H6    H     H_    0.784813 0.856126 0.894028 0.276084
H7    H     H_    0.211176 0.952295 0.544394 0.133103
H8    H     H_    0.246646 0.788532 0.569587 0.137406
H9    H     H_    0.125288 0.734072 0.363755 0.263359
H10   H     H_    0.043845 0.804006 0.498855 0.187412
H11   H     H_    0.085656 0.897084 0.353952 0.281934
H12   H     H_    0.216797 0.189198 0.875042 0.171694
H13   H     H_    0.343200 0.329310 0.753446 0.212819
H14   H     H_    0.712542 0.237728 0.591631 0.137116
H15   H     H_    0.883826 0.124978 0.662545 0.144080
H16   H     H_    0.883902 0.892307 0.657607 0.133550
H17   H     H_    0.712242 0.772092 0.584228 0.140117
H18   H     H_    0.625511 0.644178 0.127234 0.164803
H19   H     H_    0.343862 0.329468 0.245956 0.211395
N1    N     N_R   0.498930 0.498800 0.142780 -0.129467
N2    N     N_R   0.498900 0.498720 0.857170 -0.153242
O1    O     O_R   0.500000 0.316780 0.614690 -0.642077
O2    O     O_3   0.315456 0.868799 0.396336 -0.575056
O3    O     O_R   0.499990 0.316750 0.385360 -0.624205
O4    O     O_R   0.334450 0.500030 0.614670 -0.638967
O5    O     O_R   0.334440 0.500000 0.385330 -0.611403
O6    O     O_R   0.500010 0.683250 0.614640 -0.582256
O7    O     O_R   0.500000 0.683220 0.385310 -0.581765
O8    O     O_R   0.665560 0.500000 0.614670 -0.607969
O9    O     O_R   0.665550 0.499970 0.385330 -0.605329
O10   O     O_3   0.640798 0.664096 0.857416 -0.582743
Zn1   Zn    Zn3+2 0.500010 0.500020 0.653130 0.966475
Zn2   Zn    Zn3+2 0.499990 0.499980 0.346870 0.968949

loop_
_geom_bond_atom_site_label_1
_geom_bond_atom_site_label_2
_ccdc_geom_bond_type
C24   H11   S    
O9    Zn2   S    
C29   H1    S    
C10   C11   A    
C28   C29   A    
C10   H18   S    
C6    H12   S    
C22   H7    S    
C21   H5    S    
C8    C9    A    
C3    H19   S    
C4    O4    A    
C19   H14   S    
N2    Zn1   S    
C25   H17   S    
O3    Zn2   S    
C2    C26   A    
C16   C17   S    
C14   O9    A    
O4    Zn1   S    
C6    C7    A    
C24   H9    S    
C20   C21   S    
C2    C30   A    
C21   H4    S    
O1    Zn1   S    
C20   O10   S    
C5    C6    A    
C8    N2    A    
C2    C13   S    
C1    C28   S    
C22   H8    S    
C9    N1    A    
C27   C28   A    
C11   N2    A    
C23   C25   A    
C17   C18   T    
C1    O3    A    
O8    Zn1   S    
C30   O2    S    
C25   C26   A    
C29   C30   A    
C13   O6    A    
C10   N1    A    
C11   O10   S    
C3    C9    A    
Br1   C5    S    
O7    Zn2   S    
C26   C27   A    
C22   C24   S    
C20   H2    S    
O5    Zn2   S    
C3    C5    A    
C22   O2    S    
C14   O8    A    
C24   H10   S    
O6    Zn1   S    
C12   H15   S    
C15   C16   T    
C4    C15   S    
C20   H3    S    
C19   C27   A    
C12   C19   A    
C13   O7    A    
C14   C18   S    
C23   H16   S    
C21   H6    S    
N1    Zn2   S    
C7    H13   S    
C12   C23   A    
C4    O5    A    
C7    C8    A    
C1    O1    A    
