data_mof_unit_17127.cif
_audit_creation_date              2012-12-11T17:23:15-0500
_audit_creation_method            fapswitch 2.2
_symmetry_space_group_name_H-M    P1
_symmetry_Int_Tables_number       1
_space_group_crystal_system       triclinic
_cell_length_a                    22.492603
_cell_length_b                    7.085372
_cell_length_c                    19.473539
_cell_angle_alpha                 90.003339
_cell_angle_beta                  99.052611
_cell_angle_gamma                 90.003109
_cell_volume                      3064.81197451

loop_
_atom_site_label
_atom_site_type_symbol
_atom_type_description
_atom_site_fract_x
_atom_site_fract_y
_atom_site_fract_z
_atom_type_partial_charge
O1    O     O_R   0.443980 0.494320 0.557430 -0.537092
O2    O     O_R   0.556020 0.994320 0.442570 -0.537108
O3    O     O_R   0.441210 0.822520 0.414610 -0.536392
O4    O     O_R   0.558790 0.322520 0.585390 -0.536352
C1    C     C_R   0.426666 0.654824 0.389383 0.677519
C2    C     C_R   0.573328 0.154847 0.610623 0.677596
O5    O     O_R   0.436920 0.823940 0.555180 -0.534905
O6    O     O_R   0.563080 0.323940 0.444820 -0.534879
O7    O     O_R   0.551700 0.995760 0.584140 -0.536351
O8    O     O_R   0.448300 0.495760 0.415860 -0.536296
C3    C     C_R   0.421488 0.655318 0.574721 0.713054
C4    C     C_R   0.578511 0.155318 0.425277 0.713104
O9    O     O_3   0.537660 0.661290 0.509340 -0.370226
O10   O     O_3   0.462340 0.161290 0.490660 -0.370214
V1    V     V_3+5 0.493010 0.935560 0.498270 1.444651
V2    V     V_3+5 0.506990 0.435560 0.501730 1.444740
C5    C     C_R   0.755898 0.939980 0.211864 -0.121175
C6    C     C_R   0.244070 0.439977 0.788099 -0.121060
C7    C     C_R   0.795470 0.090906 0.207288 0.073561
C8    C     C_R   0.204493 0.590882 0.792664 0.073577
C9    C     C_R   0.790804 0.252994 0.247348 -0.124356
C10   C     C_R   0.209160 0.752953 0.752602 -0.124415
C11   C     C_R   0.747247 0.264311 0.291474 -0.082602
C12   C     C_R   0.252724 0.764275 0.708485 -0.082653
C13   C     C_R   0.707287 0.114227 0.296323 0.044142
C14   C     C_R   0.292691 0.614212 0.703649 0.044154
C15   C     C_R   0.711615 0.949425 0.255984 -0.010126
C16   C     C_R   0.288360 0.449426 0.743989 -0.010154
C17   C     C_1   0.840580 0.079493 0.161259 0.003906
C18   C     C_1   0.159382 0.579475 0.838693 0.004132
C19   C     C_1   0.662234 0.132694 0.342468 -0.054967
C20   C     C_1   0.337752 0.632686 0.657514 -0.055036
C21   C     C_1   0.624333 0.145142 0.380471 -0.173315
C22   C     C_1   0.375659 0.645137 0.619520 -0.173405
C23   C     C_1   0.878061 0.070527 0.122626 -0.059489
C24   C     C_1   0.121908 0.570516 0.877335 -0.059354
C25   C     C_R   0.629907 0.129194 0.801395 -0.143313
C26   C     C_R   0.370127 0.627405 0.198635 -0.143332
C27   C     C_R   0.616194 0.143083 0.676076 -0.104457
C28   C     C_R   0.383808 0.642938 0.323925 -0.104481
C29   C     C_R   0.907912 0.016722 0.763030 0.003927
C30   C     C_R   0.092040 0.517671 0.237017 0.003956
C31   C     C_R   0.869242 0.982848 0.701047 -0.195174
C32   C     C_R   0.130672 0.484425 0.299077 -0.195225
C33   C     C_R   0.807880 0.013250 0.695585 -0.056259
C34   C     C_R   0.192046 0.514594 0.304537 -0.056112
C35   C     C_R   0.782348 0.090219 0.750788 0.106813
C36   C     C_R   0.217639 0.590632 0.249227 0.106926
C37   C     C_R   0.820150 0.114743 0.817009 -0.061409
C38   C     C_R   0.179873 0.614577 0.182954 -0.061507
C39   C     C_R   0.718739 0.125583 0.743276 0.069365
C40   C     C_R   0.281270 0.625577 0.256709 0.069502
C41   C     C_R   0.692529 0.132780 0.804616 0.067608
C42   C     C_R   0.307506 0.631648 0.195377 0.067505
C43   C     C_R   0.728748 0.153892 0.868918 -0.151831
C44   C     C_R   0.271321 0.652285 0.131032 -0.151553
C45   C     C_R   0.791388 0.166690 0.874620 -0.053590
C46   C     C_R   0.208687 0.665644 0.125287 -0.053422
C47   C     C_R   0.679564 0.151792 0.678043 -0.077468
C48   C     C_R   0.320444 0.652342 0.321908 -0.077530
C49   C     C_R   0.592315 0.126535 0.737707 -0.152976
C50   C     C_R   0.407695 0.625191 0.262341 -0.152856
C51   C     C_R   0.883804 0.074059 0.822986 -0.122993
C52   C     C_R   0.116199 0.574217 0.177002 -0.122907
O11   O     O_R   0.051730 0.724670 0.084120 -0.543421
O12   O     O_R   0.948270 0.224670 0.915880 -0.543525
O13   O     O_R   0.063080 0.393540 0.944820 -0.532271
O14   O     O_R   0.936920 0.893540 0.055180 -0.532259
C53   C     C_R   0.077264 0.561785 0.923712 0.737129
C54   C     C_R   0.922722 0.061789 0.076271 0.737601
O15   O     O_R   0.058800 0.395030 0.085390 -0.536547
O16   O     O_R   0.941200 0.895030 0.914610 -0.536642
O17   O     O_R   0.943980 0.223310 0.057440 -0.524941
O18   O     O_R   0.056020 0.723310 0.942560 -0.525177
C55   C     C_R   0.075306 0.564743 0.109134 0.745408
C56   C     C_R   0.924697 0.064722 0.890861 0.745460
O19   O     O_3   0.962360 0.556290 0.990650 -0.379298
O20   O     O_3   0.037640 0.056290 0.009350 -0.379304
V3    V     V_3+5 0.006980 0.281990 0.001730 1.517902
V4    V     V_3+5 0.993020 0.781990 0.998270 1.517696
C57   C     C_2   0.670330 0.787093 0.259308 0.356543
H1    H     H_    0.637112 0.789858 0.294080 0.057539
O21   O     O_2   0.672771 0.647665 0.222983 -0.525822
C58   C     C_2   0.329651 0.287117 0.740676 0.356565
H2    H     H_    0.362877 0.289890 0.705915 0.057530
O22   O     O_2   0.327205 0.147698 0.777000 -0.525793
H3    H     H_    0.780428 0.968811 0.647789 0.122536
H4    H     H_    0.219459 0.470659 0.352422 0.122452
H5    H     H_    0.886677 0.928995 0.656056 0.119934
H6    H     H_    0.113195 0.431240 0.344137 0.119833
C59   C     C_2   0.822523 0.256882 0.938697 0.324338
H7    H     H_    0.857983 0.357934 0.936066 0.089179
O23   O     O_2   0.805186 0.231770 0.994315 -0.536138
C60   C     C_2   0.177635 0.755467 0.061093 0.323979
H8    H     H_    0.142120 0.856420 0.063551 0.089091
O24   O     O_2   0.195103 0.730200 0.005556 -0.536138
H9    H     H_    0.759668 0.814797 0.180837 0.166048
H10   H     H_    0.240300 0.314808 0.819130 0.166053
H11   H     H_    0.820877 0.371186 0.244470 0.133536
H12   H     H_    0.179083 0.871130 0.755473 0.133533
H13   H     H_    0.744641 0.391250 0.321890 0.138591
H14   H     H_    0.255332 0.891202 0.678068 0.138556
H15   H     H_    0.544007 0.121389 0.736580 0.119538
H16   H     H_    0.455999 0.619435 0.263504 0.119573
H17   H     H_    0.707386 0.178418 0.914373 0.169852
H18   H     H_    0.292722 0.676005 0.085558 0.169981
H19   H     H_    0.609851 0.129150 0.848500 0.129284
H20   H     H_    0.390200 0.626451 0.151546 0.129297
C61   C     C_2   0.702108 0.216015 0.614122 0.350478
H21   H     H_    0.678489 0.177135 0.563143 0.023001
O25   O     O_2   0.745637 0.320670 0.617799 -0.521392
C62   C     C_2   0.297925 0.717754 0.385691 0.350617
H22   H     H_    0.321517 0.679496 0.436745 0.023031
O26   O     O_2   0.254453 0.822684 0.381796 -0.521415
C63   C     C_2   0.973251 0.983030 0.762426 0.336323
H23   H     H_    0.987319 0.905114 0.719724 0.047349
O27   O     O_2   0.012110 0.046112 0.807419 -0.529191
C64   C     C_2   0.026688 0.484194 0.237632 0.336210
H24   H     H_    0.012588 0.407011 0.280481 0.047411
O28   O     O_2   0.987852 0.546615 0.192476 -0.529123

loop_
_geom_bond_atom_site_label_1
_geom_bond_atom_site_label_2
_ccdc_geom_bond_type
O14   V4    S    
C14   C20   S    
C37   C51   A    
C16   C58   S    
C38   C52   A    
C41   C43   A    
O1    C3    A    
O16   C56   A    
O2    C4    A    
C2    O7    A    
C62   O26   D    
C57   H1    S    
C32   H6    S    
C35   C37   A    
C8    C18   S    
O5    C3    A    
O12   V3    S    
C31   H5    S    
C43   H17   S    
C28   C48   A    
C7    C9    A    
C58   O22   D    
C25   H19   S    
C61   O25   D    
C9    H11   S    
O20   V4    S    
C51   C56   S    
C63   H23   S    
C28   C50   A    
C33   C35   A    
C64   H24   S    
C40   C48   A    
C5    C7    A    
C23   C54   S    
C32   C34   A    
C63   O27   D    
C19   C21   T    
C34   H4    S    
C25   C41   A    
O5    V1    S    
O12   C56   A    
O6    V2    S    
O11   V4    S    
O18   V4    S    
C29   C31   A    
C30   C32   A    
C29   C63   S    
O15   V3    S    
C62   H22   S    
C57   O21   D    
C40   C42   A    
C50   H16   S    
O19   V3    S    
C27   C49   A    
C42   C44   A    
C10   H12   S    
C5    C15   A    
C15   C57   S    
C6    C16   A    
C58   H2    S    
O4    C2    A    
C59   H7    S    
O20   V3    S    
C30   C64   S    
C35   C39   A    
O13   C53   A    
C38   C46   A    
O4    V2    S    
C48   C62   S    
C59   O23   D    
C12   H14   S    
C26   C42   A    
O6    C4    A    
C27   C47   A    
C54   O17   A    
O17   V3    S    
O13   V3    S    
C53   O18   A    
O1    V2    S    
C60   O24   D    
O2    V1    S    
C31   C33   A    
C44   H18   S    
C8    C10   A    
C43   C45   A    
C10   C12   A    
C1    C28   S    
C39   C47   A    
C29   C51   A    
C49   H15   S    
C7    C17   S    
C30   C52   A    
O3    V1    S    
C24   C53   S    
O19   V4    S    
C45   C59   S    
C33   H3    S    
O10   V1    S    
C13   C19   S    
C3    C22   S    
C12   C14   A    
O3    C1    A    
C37   C45   A    
C25   C49   A    
C13   C15   A    
C17   C23   T    
C14   C16   A    
O11   C55   A    
C18   C24   T    
C9    C11   A    
C46   C60   S    
C1    O8    A    
O16   V4    S    
O8    V2    S    
C61   H21   S    
O15   C55   A    
C11   H13   S    
C36   C38   A    
C47   C61   S    
C52   C55   S    
C44   C46   A    
C6    C8    A    
C11   C13   A    
C26   H20   S    
C60   H8    S    
C64   O28   D    
C34   C36   A    
C36   C40   A    
O14   C54   A    
O9    V2    S    
C2    C27   S    
C6    H10   S    
C39   C41   A    
C4    C21   S    
C5    H9    S    
O7    V1    S    
C20   C22   T    
C26   C50   A    
