data_mof_unit_5522.cif
_audit_creation_date              2012-12-10T18:29:42-0500
_audit_creation_method            fapswitch 2.2
_symmetry_space_group_name_H-M    P1
_symmetry_Int_Tables_number       1
_space_group_crystal_system       triclinic
_cell_length_a                    11.557219
_cell_length_b                    14.999401
_cell_length_c                    15.381174
_cell_angle_alpha                 80.904832
_cell_angle_beta                  89.667847
_cell_angle_gamma                 104.932522
_cell_volume                      2540.88621879

loop_
_atom_site_label
_atom_site_type_symbol
_atom_type_description
_atom_site_fract_x
_atom_site_fract_y
_atom_site_fract_z
_atom_type_partial_charge
C1    C     C_R   0.480640 0.440111 0.662780 0.858642
C2    C     C_R   0.591798 0.673513 0.967100 -0.153526
C3    C     C_R   0.663382 0.834914 0.648536 -0.107608
C4    C     C_R   0.332651 0.164424 0.353459 -0.116034
C5    C     C_R   0.636634 0.748058 0.621364 -0.078690
C6    C     C_R   0.357527 0.250384 0.382243 -0.075016
C7    C     C_R   0.516952 0.796114 0.508127 -0.054720
C8    C     C_R   0.489034 0.205709 0.487825 -0.061748
C9    C     C_R   0.539020 0.885738 0.531279 -0.021736
C10   C     C_R   0.466406 0.116000 0.464754 -0.021517
C11   C     C_R   0.618467 0.906439 0.600223 0.135568
C12   C     C_R   0.516536 0.559866 0.337248 0.859989
C13   C     C_R   0.383506 0.094414 0.397974 0.142262
C14   C     C_R   0.486263 0.955054 0.487248 0.094609
C15   C     C_R   0.520778 0.047102 0.507631 0.081235
C16   C     C_R   0.718071 0.501276 0.500172 0.917835
C17   C     C_R   0.281935 0.498725 0.499821 0.879349
C18   C     C_R   0.608939 0.067473 0.569965 -0.233067
C19   C     C_R   0.397905 0.934475 0.425130 -0.254667
C20   C     C_R   0.655098 0.998541 0.615949 -0.127167
C21   C     C_R   0.348928 0.002686 0.381025 -0.138585
C22   C     C_1   0.839385 0.503174 0.500637 -0.167894
C23   C     C_R   0.468266 0.346689 0.940663 0.077034
C24   C     C_1   0.160641 0.496834 0.499326 -0.184858
C25   C     C_1   0.941145 0.501635 0.500321 0.018202
C26   C     C_1   0.058886 0.498373 0.499625 0.012676
C27   C     C_R   0.461661 0.399826 0.757474 -0.196852
C28   C     C_R   0.526730 0.600183 0.242594 -0.190695
C29   C     C_R   0.465802 0.279609 0.884812 -0.036973
C30   C     C_R   0.624262 0.717181 0.115534 -0.061616
C31   C     C_R   0.475767 0.309614 0.792315 -0.087933
C32   C     C_R   0.604995 0.689245 0.208119 -0.115711
C33   C     C_R   0.435734 0.456324 0.815306 0.082249
C34   C     C_R   0.577340 0.651303 0.059549 0.067625
C35   C     C_R   0.466000 0.543169 0.184510 0.098381
C36   C     C_R   0.467720 0.439126 0.902980 0.063405
C37   C     C_R   0.512371 0.559671 0.097292 0.070249
C38   C     C_3   0.340958 0.477833 0.211000 -0.393240
C39   C     C_3   0.246135 0.503426 0.150210 -0.833922
C40   C     C_3   0.354872 0.521486 0.787324 -0.360408
C41   C     C_3   0.247525 0.504178 0.852219 -0.836767
C42   C     C_2   0.667908 0.753199 0.267504 0.403406
C43   C     C_2   0.494662 0.244906 0.733364 0.381411
C44   C     C_2   0.453862 0.179307 0.921142 0.392593
C45   C     C_R   0.499675 0.511292 0.953891 0.073120
C46   C     C_2   0.697208 0.813596 0.079982 0.499937
C47   C     C_2   0.734016 0.844711 0.728459 0.359570
C48   C     C_2   0.256776 0.153843 0.276234 0.376808
C49   C     C_R   0.493572 0.487782 0.046096 0.075678
C50   C     C_R   0.485030 0.394649 0.084543 -0.238875
C51   C     C_R   0.550633 0.605005 0.915091 -0.232358
C52   C     C_R   0.477504 0.325933 0.032376 -0.136597
H1    H     H_    0.482449 0.257767 0.064814 0.209164
H2    H     H_    0.463537 0.775167 0.454222 0.123856
H3    H     H_    0.318236 0.304860 0.351524 0.123120
H4    H     H_    0.670169 0.691889 0.656004 0.134127
H5    H     H_    0.248901 0.578471 0.146993 0.266564
H6    H     H_    0.260502 0.489488 0.082819 0.261600
H7    H     H_    0.155727 0.460422 0.176139 0.252698
H8    H     H_    0.338414 0.403585 0.211855 0.200939
H9    H     H_    0.311381 0.483119 0.278351 0.209308
H10   H     H_    0.184402 0.544358 0.823812 0.253885
H11   H     H_    0.199489 0.428656 0.865173 0.269218
H12   H     H_    0.633686 0.743455 0.933573 0.218011
H13   H     H_    0.276511 0.527723 0.915291 0.260159
H14   H     H_    0.404683 0.596209 0.777588 0.212594
H15   H     H_    0.315910 0.508812 0.723132 0.213172
H16   H     H_    0.617938 0.772778 0.317909 0.087289
H17   H     H_    0.428294 0.222182 0.686375 0.096016
H18   H     H_    0.504963 0.139659 0.891488 0.132673
H19   H     H_    0.684337 0.872334 0.108400 0.072143
H20   H     H_    0.795244 0.801249 0.745217 0.079829
H21   H     H_    0.191277 0.194300 0.263983 0.071613
H22   H     H_    0.646010 0.136653 0.584640 0.178060
H23   H     H_    0.361568 0.865264 0.410225 0.147627
H24   H     H_    0.496920 0.376297 0.154224 0.160005
H25   H     H_    0.570474 0.624520 0.844867 0.148532
H26   H     H_    0.723412 0.019802 0.661632 0.209101
H27   H     H_    0.279495 0.980885 0.336311 0.205830
H28   H     H_    0.547492 0.228196 0.538652 0.148103
N1    N     N_R   0.566020 0.731700 0.552730 -0.095862
N2    N     N_R   0.433980 0.268300 0.447270 -0.097873
O1    O     O_R   0.466720 0.383110 0.605620 -0.620913
O2    O     O_2   0.585181 0.217086 0.736811 -0.591933
O3    O     O_2   0.382008 0.138641 0.982131 -0.526756
O4    O     O_2   0.776609 0.827633 0.022885 -0.526063
O5    O     O_2   0.719393 0.896054 0.779319 -0.540983
O6    O     O_2   0.271560 0.105506 0.222498 -0.522387
O7    O     O_R   0.533280 0.616890 0.394380 -0.627622
O8    O     O_R   0.509090 0.531900 0.639510 -0.618109
O9    O     O_R   0.490910 0.468100 0.360490 -0.607994
O10   O     O_R   0.644370 0.425610 0.483050 -0.601939
O11   O     O_R   0.355630 0.574390 0.516950 -0.609910
O12   O     O_R   0.686740 0.574390 0.516930 -0.599456
O13   O     O_R   0.313260 0.425610 0.483070 -0.612933
O14   O     O_2   0.776544 0.785255 0.259732 -0.538866
Zn1   Zn    Zn3+2 0.471710 0.400660 0.477370 0.947361
Zn2   Zn    Zn3+2 0.528290 0.599340 0.522630 0.943951

loop_
_geom_bond_atom_site_label_1
_geom_bond_atom_site_label_2
_ccdc_geom_bond_type
C15   C18   A    
C1    O8    A    
C6    N2    A    
C34   C37   A    
C12   O9    A    
C6    H3    S    
C27   C33   A    
C31   C43   S    
C12   C28   S    
C42   O14   D    
C23   C29   A    
C35   C37   A    
C24   C26   T    
C10   C15   A    
C38   C39   S    
N1    Zn2   S    
O12   Zn2   S    
C39   H5    S    
C33   C36   A    
C5    N1    A    
C4    C13   A    
C5    H4    S    
C28   C35   A    
C22   C25   T    
C50   C52   A    
C48   O6    D    
C44   H18   S    
C17   O13   A    
C38   H9    S    
C2    C34   A    
C18   H22   S    
C40   H14   S    
C42   H16   S    
C43   O2    D    
C41   H10   S    
C48   H21   S    
C2    H12   S    
O10   Zn1   S    
C32   C42   S    
C11   C20   A    
C33   C40   S    
C30   C34   A    
C27   C31   A    
C17   C24   S    
C12   O7    A    
C28   C32   A    
C35   C38   S    
C4    C6    A    
C41   H13   S    
C25   C26   S    
C39   H6    S    
C40   H15   S    
C47   O5    D    
C9    C14   A    
C51   H25   S    
C50   H24   S    
C37   C49   A    
C45   C49   A    
C39   H7    S    
C21   H27   S    
C13   C21   A    
C36   C45   A    
O9    Zn1   S    
C9    C11   A    
C46   H19   S    
C38   H8    S    
C40   C41   S    
C7    N1    A    
C16   O10   A    
C29   C44   S    
N2    Zn1   S    
C8    N2    A    
C17   O11   A    
C41   H11   S    
C44   O3    D    
C52   H1    S    
C1    C27   S    
C4    C48   S    
C7    C9    A    
C16   C22   S    
C19   C21   A    
C14   C19   A    
C30   C46   S    
C3    C5    A    
C10   C13   A    
O13   Zn1   S    
C23   C36   A    
C1    O1    A    
C16   O12   A    
C20   H26   S    
O7    Zn2   S    
C19   H23   S    
C29   C31   A    
C30   C32   A    
C23   C52   A    
C3    C47   S    
C18   C20   A    
C47   H20   S    
C3    C11   A    
C2    C51   A    
C8    C10   A    
C49   C50   A    
O1    Zn1   S    
C8    H28   S    
C45   C51   A    
C14   C15   A    
C7    H2    S    
C43   H17   S    
O11   Zn2   S    
O8    Zn2   S    
C46   O4    D    
