data_mof_unit_28917.cif
_audit_creation_date              2012-12-10T17:33:52-0500
_audit_creation_method            fapswitch 2.2
_symmetry_space_group_name_H-M    P1
_symmetry_Int_Tables_number       1
_space_group_crystal_system       triclinic
_cell_length_a                    10.697257
_cell_length_b                    11.990739
_cell_length_c                    12.944408
_cell_angle_alpha                 93.86045
_cell_angle_beta                  90.597088
_cell_angle_gamma                 86.118513
_cell_volume                      1652.75763968

loop_
_atom_site_label
_atom_site_type_symbol
_atom_type_description
_atom_site_fract_x
_atom_site_fract_y
_atom_site_fract_z
_atom_type_partial_charge
C1    C     C_R   0.492944 0.522862 0.700932 0.944982
C2    C     C_3   0.121787 0.501339 0.498436 -0.081348
C3    C     C_3   0.079290 0.417567 0.408394 -0.251487
C4    C     C_3   0.063880 0.621869 0.481759 -0.377201
C5    C     C_R   0.505834 0.461826 0.189619 -0.062394
C6    C     C_R   0.484295 0.538421 0.813869 -0.225107
C7    C     C_R   0.538209 0.643702 0.973883 -0.085868
C8    C     C_R   0.516732 0.640290 0.866943 -0.106947
C9    C     C_R   0.456017 0.445573 0.869680 -0.078011
C10   C     C_R   0.476893 0.449387 0.976345 0.081941
C11   C     C_R   0.519825 0.547980 0.027833 0.081881
C12   C     C_R   0.742168 0.500231 0.496753 0.864560
C13   C     C_R   0.535515 0.551404 0.134398 -0.174603
C14   C     C_R   0.468873 0.363104 0.139691 -0.120047
C15   C     C_R   0.453506 0.356953 0.033737 -0.134300
C16   C     C_R   0.389045 0.955020 0.395471 -0.132206
C17   C     C_R   0.401157 0.837618 0.404858 0.032183
C18   C     C_R   0.547422 0.859177 0.543324 0.019691
C19   C     C_R   0.541423 0.976196 0.534780 0.077686
C20   C     C_R   0.459711 0.024929 0.461516 -0.023240
C21   C     C_R   0.450943 0.142855 0.457238 -0.012250
C22   C     C_R   0.605190 0.161710 0.588371 0.099498
C23   C     C_R   0.503911 0.477277 0.300050 0.898211
C24   C     C_R   0.615008 0.045707 0.598030 -0.244951
C25   C     C_R   0.258001 0.500230 0.500245 0.913645
C26   C     C_3   0.932099 0.451156 0.594749 -0.406826
C27   C     C_3   0.074730 0.461409 0.603174 -0.230001
C28   C     C_3   0.934735 0.430577 0.396932 -0.289621
C29   C     C_3   0.919956 0.628935 0.489758 -0.114495
C30   C     C_3   0.878722 0.502865 0.494484 -0.099195
H1    H     H_    0.913478 0.361093 0.593410 0.225349
H2    H     H_    0.093783 0.646301 0.405234 0.225916
H3    H     H_    0.911199 0.477491 0.327546 0.159418
H4    H     H_    0.565959 0.625762 0.176559 0.187426
H5    H     H_    0.446476 0.292695 0.182740 0.215479
H6    H     H_    0.419787 0.280261 0.998688 0.191750
H7    H     H_    0.386911 0.184581 0.405000 0.170081
H8    H     H_    0.882529 0.487928 0.665106 0.227927
H9    H     H_    0.662303 0.215337 0.636782 0.158328
H10   H     H_    0.679650 0.010865 0.654194 0.150220
H11   H     H_    0.609745 0.821005 0.599045 0.155514
H12   H     H_    0.118606 0.375843 0.613345 0.178635
H13   H     H_    0.106602 0.331773 0.432835 0.182483
H14   H     H_    0.104224 0.684915 0.536893 0.248384
N1    N     N_R   0.523380 0.207800 0.519350 -0.120814
N2    N     N_R   0.476620 0.792180 0.480650 -0.144999
O1    O     O_R   0.506240 0.421700 0.658830 -0.620027
O2    O     O_R   0.491240 0.609310 0.646410 -0.571868
O3    O     O_R   0.692710 0.406190 0.506230 -0.607908
O4    O     O_R   0.677700 0.593810 0.493810 -0.641801
O5    O     O_R   0.508760 0.390690 0.353590 -0.604597
O6    O     O_R   0.493760 0.578300 0.341170 -0.665418
O7    O     O_R   0.322300 0.406190 0.506190 -0.627294
O8    O     O_R   0.307290 0.593810 0.493770 -0.633343
Zn1   Zn    Zn3+2 0.510020 0.374730 0.508290 1.005373
Zn2   Zn    Zn3+2 0.489980 0.625270 0.491710 0.997738
C31   C     C_2   0.143760 0.426254 0.305314 0.888344
O9    O     O_2   0.211515 0.347146 0.269471 -0.615949
O10   O     O_R   0.125009 0.522669 0.250613 -0.797543
H15   H     H_    0.174499 0.517596 0.183885 0.368197
C32   C     C_2   0.576812 0.749177 0.028910 0.963429
O11   O     O_2   0.679718 0.751369 0.070780 -0.575395
O12   O     O_R   0.495867 0.845823 0.030852 -0.731543
H16   H     H_    0.532364 0.912045 0.070383 0.370845
C33   C     C_2   0.531343 0.744226 0.813150 0.998211
O13   O     O_2   0.440524 0.791116 0.772237 -0.584859
O14   O     O_R   0.647222 0.791693 0.815286 -0.754061
H17   H     H_    0.643951 0.865805 0.781795 0.330066
C34   C     C_2   0.402466 0.344737 0.817375 0.947682
O15   O     O_2   0.299290 0.353043 0.776261 -0.611218
O16   O     O_R   0.471988 0.241491 0.813240 -0.805825
H18   H     H_    0.426154 0.179713 0.775078 0.353726
C35   C     C_2   0.300978 0.003180 0.317874 0.974224
O17   O     O_2   0.339507 0.060338 0.251779 -0.596961
O18   O     O_R   0.174597 0.980339 0.319321 -0.735223
H19   H     H_    0.124044 0.016995 0.262592 0.378825
C36   C     C_2   0.337585 0.764128 0.327384 0.519937
H20   H     H_    0.285883 0.696292 0.349940 0.108261
O19   O     O_2   0.343921 0.778564 0.235132 -0.547921
C37   C     C_2   0.108963 0.531537 0.700818 0.988939
O20   O     O_2   0.070714 0.507042 0.784553 -0.552464
O21   O     O_R   0.187352 0.619865 0.697411 -0.798398
H21   H     H_    0.203974 0.657107 0.768413 0.372925
C38   C     C_2   0.881017 0.317273 0.373582 0.967387
O22   O     O_2   0.900025 0.241825 0.432031 -0.603609
O23   O     O_R   0.809061 0.299752 0.283884 -0.786805
H22   H     H_    0.776912 0.221970 0.276627 0.362159
C39   C     C_2   0.865991 0.684994 0.394329 0.459782
H23   H     H_    0.800044 0.644073 0.342749 0.074297
O24   O     O_2   0.895504 0.777874 0.374429 -0.475236
C40   C     C_2   0.880868 0.707855 0.584455 0.949919
O25   O     O_2   0.816152 0.677726 0.653263 -0.620252
O26   O     O_R   0.918464 0.817738 0.591149 -0.741086
H24   H     H_    0.886619 0.862567 0.655905 0.351059

loop_
_geom_bond_atom_site_label_1
_geom_bond_atom_site_label_2
_ccdc_geom_bond_type
O10   H15   S    
O26   H24   S    
C28   C38   S    
C35   O17   D    
C19   C20   A    
C29   C40   S    
C6    C9    A    
C12   O3    A    
C23   O6    A    
C7    C8    A    
C36   H20   S    
C7    C11   A    
C3    H13   S    
C26   C27   S    
C3    C28   S    
C38   O23   S    
C10   C15   A    
C31   O10   S    
C34   O16   S    
C18   C19   A    
C32   O12   S    
C7    C32   S    
C29   C39   S    
C38   O22   D    
C16   C17   A    
C33   O14   S    
C2    C27   S    
C9    C10   A    
C5    C13   A    
C4    C29   S    
C39   H23   S    
C36   O19   D    
C8    C33   S    
C25   O7    A    
C35   O18   S    
C34   O15   D    
C18   N2    A    
C21   N1    A    
O7    Zn1   S    
O8    Zn2   S    
O14   H17   S    
C17   N2    A    
C37   O21   S    
C27   C37   S    
C18   H11   S    
C40   O25   D    
O23   H22   S    
C1    O1    A    
C6    C8    A    
C4    H14   S    
O3    Zn1   S    
O4    Zn2   S    
C16   C35   S    
C2    C4    S    
O18   H19   S    
C29   C30   S    
C40   O26   S    
C23   O5    A    
C5    C23   S    
C16   C20   A    
C17   C36   S    
C21   H7    S    
C25   O8    A    
C5    C14   A    
C4    H2    S    
C3    C31   S    
C39   O24   D    
C28   H3    S    
C26   C30   S    
C22   C24   A    
C15   H6    S    
C14   H5    S    
O1    Zn1   S    
O2    Zn2   S    
C12   C30   S    
C26   H8    S    
C9    C34   S    
C37   O20   D    
C12   O4    A    
C1    O2    A    
C28   C30   S    
C2    C3    S    
C13   H4    S    
C11   C13   A    
C27   H12   S    
C31   O9    D    
C22   H9    S    
C24   H10   S    
C19   C24   A    
C2    C25   S    
O5    Zn1   S    
C33   O13   D    
C32   O11   D    
C10   C11   A    
O12   H16   S    
C26   H1    S    
C22   N1    A    
O16   H18   S    
C20   C21   A    
N1    Zn1   S    
O21   H21   S    
N2    Zn2   S    
C1    C6    S    
C14   C15   A    
O6    Zn2   S    
