data_mof_unit_42163.cif
_audit_creation_date              2012-12-10T17:50:30-0500
_audit_creation_method            fapswitch 2.2
_symmetry_space_group_name_H-M    P1
_symmetry_Int_Tables_number       1
_space_group_crystal_system       triclinic
_cell_length_a                    15.712624
_cell_length_b                    10.749308
_cell_length_c                    9.939755
_cell_angle_alpha                 92.241864
_cell_angle_beta                  90.81744
_cell_angle_gamma                 93.657915
_cell_volume                      1673.88391287

loop_
_atom_site_label
_atom_site_type_symbol
_atom_type_description
_atom_site_fract_x
_atom_site_fract_y
_atom_site_fract_z
_atom_type_partial_charge
C1    C     C_R   0.506325 0.261276 0.497502 1.074991
C2    C     C_R   0.622156 0.097460 0.827543 0.102952
C3    C     C_R   0.577064 0.985071 0.862803 0.050875
C4    C     C_R   0.338069 0.499232 0.499126 0.941887
C5    C     C_R   0.536351 0.908732 0.758611 -0.215941
C6    C     C_R   0.529811 0.949220 0.624830 -0.048786
C7    C     C_R   0.553519 0.074037 0.603950 -0.116832
C8    C     C_R   0.517565 0.129833 0.492181 -0.309088
C9    C     C_R   0.477131 0.057818 0.387133 0.501290
C10   C     C_R   0.468974 0.931031 0.394833 0.552727
C11   C     C_R   0.495832 0.874797 0.511732 -0.299544
C12   C     C_3   0.082642 0.489393 0.501032 -0.130624
C13   C     C_R   0.384216 0.341854 0.137075 -0.163384
C14   C     C_R   0.323624 0.263822 0.069017 -0.311266
C15   C     C_R   0.320211 0.261007 0.930705 0.589738
C16   C     C_R   0.497913 0.740478 0.503632 0.933990
C17   C     C_R   0.377709 0.335611 0.858664 0.542155
C18   C     C_R   0.440045 0.421598 0.924728 -0.092786
C19   C     C_R   0.441469 0.422574 0.069502 0.069732
C20   C     C_R   0.557536 0.571250 0.076981 -0.075558
C21   C     C_R   0.559118 0.570314 0.934271 0.178805
C22   C     C_R   0.661901 0.500662 0.500938 0.918512
C23   C     C_3   0.976301 0.605490 0.469707 -0.330626
C24   C     C_3   0.972301 0.466055 0.627544 0.120162
C25   C     C_3   0.022050 0.377664 0.535923 0.032912
C26   C     C_1   0.249024 0.495561 0.497638 -0.092793
C27   C     C_1   0.750642 0.498199 0.503060 -0.133655
C28   C     C_3   0.033115 0.577212 0.591171 0.601905
C29   C     C_3   0.053399 0.249403 0.565001 -0.330593
C30   C     C_3   0.979729 0.154021 0.589460 -0.793840
C31   C     C_3   0.559831 0.951352 0.008289 -0.288380
C32   C     C_3   0.638685 0.935247 0.096999 -0.897467
C33   C     C_3   0.631405 0.644605 0.871751 -0.400888
C34   C     C_3   0.916507 0.492842 0.504977 -0.056130
C35   C     C_3   0.714476 0.578601 0.880679 -0.845899
C36   C     C_3   0.935688 0.446434 0.767682 -0.413482
C37   C     C_3   0.004477 0.422846 0.871770 -0.709426
C38   C     C_3   0.682692 0.174456 0.923359 -0.378672
C39   C     C_3   0.636030 0.263086 0.015297 -0.805912
C40   C     C_3   0.026173 0.515837 0.380491 0.638540
C41   C     C_3   0.964873 0.403586 0.412945 -0.246342
C42   C     C_1   0.173617 0.492205 0.498393 0.085018
C43   C     C_1   0.825786 0.495597 0.504465 0.007665
C44   C     C_R   0.609448 0.140762 0.697582 0.590871
F1    F     F_    0.429922 0.863792 0.290047 -0.610957
F2    F     F_    0.261809 0.181600 0.864459 -0.609731
F3    F     F_    0.370052 0.313318 0.725958 -0.619723
F4    F     F_    0.056135 0.541006 0.253646 -0.637271
F5    F     F_    0.070493 0.666202 0.681517 -0.631177
F6    F     F_    0.442396 0.109791 0.278602 -0.658713
F7    F     F_    0.652388 0.247706 0.661309 -0.704894
H1    H     H_    0.501940 0.824491 0.787625 0.196206
H2    H     H_    0.089800 0.216288 0.477040 0.222166
H3    H     H_    0.097351 0.257435 0.653727 0.241646
H4    H     H_    0.624098 0.861455 0.169915 0.256863
H5    H     H_    0.694091 0.908883 0.036690 0.252823
H6    H     H_    0.656253 0.022318 0.157385 0.265234
H7    H     H_    0.520946 0.022962 0.055883 0.266127
H8    H     H_    0.519115 0.862951 0.010155 0.220469
H9    H     H_    0.706423 0.482462 0.835396 0.301982
H10   H     H_    0.764999 0.631788 0.825909 0.246558
H11   H     H_    0.735351 0.573447 0.987441 0.247381
H12   H     H_    0.604777 0.628351 0.135819 0.143374
H13   H     H_    0.617053 0.666436 0.767350 0.255469
H14   H     H_    0.641008 0.735974 0.925300 0.198745
H15   H     H_    0.032792 0.332820 0.848686 0.250896
H16   H     H_    0.055472 0.499333 0.874651 0.307522
H17   H     H_    0.975617 0.418404 0.972939 0.260634
H18   H     H_    0.903716 0.531463 0.800187 0.224218
H19   H     H_    0.886887 0.366969 0.762714 0.209833
H20   H     H_    0.597845 0.322421 0.952958 0.271308
H21   H     H_    0.593401 0.212216 0.085042 0.274847
H22   H     H_    0.683017 0.323992 0.076048 0.244573
H23   H     H_    0.385642 0.334274 0.243163 0.262175
H24   H     H_    0.722920 0.115022 0.982024 0.208036
H25   H     H_    0.729669 0.231892 0.865796 0.234539
H26   H     H_    0.280154 0.203224 0.124152 0.231124
H27   H     H_    0.934886 0.333576 0.338816 0.168388
H28   H     H_    0.956139 0.698528 0.442565 0.183824
H29   H     H_    0.944946 0.180680 0.681332 0.255538
H30   H     H_    0.934757 0.146279 0.501884 0.253343
H31   H     H_    0.005130 0.061311 0.603715 0.271323
N1    N     N_R   0.499210 0.498800 0.142780 -0.103235
N2    N     N_R   0.499180 0.498720 0.857170 -0.104594
O1    O     O_R   0.500000 0.316780 0.614690 -0.522506
O2    O     O_R   0.499990 0.316750 0.385360 -0.621611
O3    O     O_R   0.376780 0.500000 0.614650 -0.545668
O4    O     O_R   0.376770 0.499980 0.385310 -0.635527
O5    O     O_R   0.500010 0.683250 0.614640 -0.671930
O6    O     O_R   0.500000 0.683220 0.385310 -0.560398
O7    O     O_R   0.623230 0.500020 0.614690 -0.592815
O8    O     O_R   0.623220 0.500000 0.385350 -0.644483
Zn1   Zn    Zn3+2 0.500010 0.500020 0.653130 1.012876
Zn2   Zn    Zn3+2 0.499990 0.499980 0.346870 0.988382

loop_
_geom_bond_atom_site_label_1
_geom_bond_atom_site_label_2
_ccdc_geom_bond_type
C16   O6    A    
C1    C8    S    
C33   H14   S    
C7    C8    A    
C4    O3    A    
C38   H25   S    
C24   C36   S    
C12   C28   S    
C31   H7    S    
C36   C37   S    
C5    C6    A    
C21   C33   S    
C29   H3    S    
C23   C40   S    
C37   H17   S    
O3    Zn1   S    
C40   F4    S    
C18   C19   A    
C11   C16   S    
C14   H26   S    
C31   H8    S    
C12   C42   S    
O2    Zn2   S    
O1    Zn1   S    
C2    C44   A    
C8    C9    A    
C18   N2    A    
C39   H21   S    
C5    H1    S    
C9    C10   A    
C32   H4    S    
C30   H29   S    
C16   O5    A    
C13   C14   A    
C25   C29   S    
C34   C41   S    
C32   H6    S    
C19   N1    A    
C36   H19   S    
O6    Zn2   S    
C38   H24   S    
C1    O1    A    
O4    Zn2   S    
C13   C19   A    
C17   F3    S    
C24   C25   S    
C25   C41   S    
C6    C11   A    
C7    C44   A    
N1    Zn2   S    
C24   C34   S    
C35   H9    S    
C12   C40   S    
C29   C30   S    
O7    Zn1   S    
C28   F5    S    
C2    C38   S    
C31   C32   S    
C21   N2    A    
C22   O7    A    
C23   C34   S    
C37   H15   S    
C10   F1    S    
O8    Zn2   S    
C17   C18   A    
C35   H10   S    
C23   C28   S    
C13   H23   S    
C3    C31   S    
C44   F7    S    
C40   C41   S    
C22   C27   S    
C41   H27   S    
C36   H18   S    
C26   C42   T    
C1    O2    A    
C15   C17   A    
C39   H20   S    
C30   H31   S    
C9    F6    S    
C24   C28   S    
C3    C5    A    
C4    C26   S    
C6    C7    A    
C4    O4    A    
C12   C25   S    
C30   H30   S    
C2    C3    A    
C38   C39   S    
C29   H2    S    
C20   H12   S    
C33   H13   S    
C37   H16   S    
C33   C35   S    
C35   H11   S    
N2    Zn1   S    
C39   H22   S    
O5    Zn1   S    
C10   C11   A    
C27   C43   T    
C20   C21   A    
C20   N1    A    
C22   O8    A    
C14   C15   A    
C15   F2    S    
C23   H28   S    
C34   C43   S    
C32   H5    S    
