data_mof_unit_39028.cif
_audit_creation_date              2012-12-10T19:50:56-0500
_audit_creation_method            fapswitch 2.2
_symmetry_space_group_name_H-M    P1
_symmetry_Int_Tables_number       1
_space_group_crystal_system       triclinic
_cell_length_a                    23.517565
_cell_length_b                    10.816857
_cell_length_c                    22.192302
_cell_angle_alpha                 91.917306
_cell_angle_beta                  90.06147
_cell_angle_gamma                 89.62509
_cell_volume                      5642.1305894

loop_
_atom_site_label
_atom_site_type_symbol
_atom_type_description
_atom_site_fract_x
_atom_site_fract_y
_atom_site_fract_z
_atom_type_partial_charge
C1    C     C_R   0.499518 0.261711 0.498950 0.802528
C2    C     C_R   0.700975 0.544141 0.449035 -0.285714
C3    C     C_R   0.238779 0.539230 0.448172 0.203575
C4    C     C_R   0.760414 0.550935 0.449452 0.200212
C5    C     C_R   0.209053 0.510581 0.500709 0.372991
C6    C     C_R   0.790650 0.517881 0.501200 0.367314
C7    C     C_R   0.388868 0.236900 0.337894 0.207389
C8    C     C_R   0.625125 0.783594 0.652792 0.215524
C9    C     C_R   0.409132 0.187469 0.391557 -0.170836
C10   C     C_R   0.600538 0.837030 0.602072 -0.223046
C11   C     C_R   0.457453 0.110332 0.391281 -0.013787
C12   C     C_R   0.499454 0.738087 0.500972 0.810872
C13   C     C_R   0.545494 0.887804 0.605181 -0.003069
C14   C     C_R   0.485472 0.080456 0.335882 0.421837
C15   C     C_R   0.514804 0.886428 0.659832 0.463383
C16   C     C_R   0.390738 0.501048 0.500036 0.809702
C17   C     C_R   0.609229 0.501299 0.500039 0.812014
C18   C     C_R   0.464447 0.129888 0.282721 -0.227430
C19   C     C_R   0.539551 0.832689 0.709998 -0.203751
C20   C     C_R   0.417151 0.208578 0.283788 -0.188129
C21   C     C_R   0.594231 0.781633 0.706655 -0.190525
C22   C     C_R   0.474744 0.929191 0.452545 -0.205676
C23   C     C_R   0.238899 0.479707 0.552765 -0.161309
C24   C     C_R   0.522044 0.069703 0.547157 -0.271923
C25   C     C_R   0.497812 0.871628 0.502537 -0.090567
C26   C     C_R   0.499014 0.127761 0.497350 -0.107586
C27   C     C_R   0.520616 0.942488 0.551014 0.057766
C28   C     C_R   0.476315 0.056716 0.448508 0.013156
C29   C     C_R   0.487100 0.397549 0.871076 0.564422
C30   C     C_R   0.517368 0.609984 0.129838 0.590970
C31   C     C_R   0.516689 0.608012 0.874145 0.563933
C32   C     C_R   0.485394 0.401141 0.126605 0.606857
C33   C     C_R   0.516814 0.610853 0.937916 -0.031145
C34   C     C_R   0.761315 0.480519 0.552295 -0.165923
C35   C     C_R   0.485466 0.398297 0.062887 -0.032271
C36   C     C_R   0.501346 0.504149 0.968356 -0.014404
C37   C     C_R   0.501157 0.504938 0.032490 -0.009134
C38   C     C_R   0.486343 0.396446 0.934798 -0.035757
C39   C     C_R   0.517056 0.612026 0.066088 -0.047088
C40   C     C_R   0.879876 0.628316 0.505539 0.583534
C41   C     C_R   0.119794 0.401247 0.497987 0.557841
C42   C     C_R   0.532257 0.717626 0.971955 -0.159623
C43   C     C_R   0.470342 0.291321 0.028883 -0.169076
C44   C     C_R   0.532508 0.718108 0.035122 -0.179266
C45   C     C_R   0.298125 0.476786 0.552617 -0.216245
C46   C     C_R   0.470890 0.290336 0.965752 -0.163871
C47   C     C_R   0.542213 0.435554 0.255017 0.347081
C48   C     C_R   0.460299 0.571012 0.744396 0.327532
C49   C     C_R   0.540398 0.434865 0.319284 -0.122509
C50   C     C_R   0.461868 0.571391 0.680921 -0.061194
C51   C     C_R   0.460560 0.568858 0.321979 -0.060431
C52   C     C_R   0.538717 0.429599 0.678443 -0.084379
C53   C     C_R   0.460879 0.576604 0.258413 0.307443
C54   C     C_R   0.541620 0.432241 0.741877 0.335441
C55   C     C_R   0.501049 0.505876 0.224738 0.231098
C56   C     C_R   0.702181 0.475143 0.551936 -0.211190
C57   C     C_R   0.501303 0.502221 0.775916 0.138376
C58   C     C_R   0.880016 0.407548 0.497870 0.547211
C59   C     C_R   0.119806 0.622059 0.504989 0.573671
C60   C     C_R   0.939533 0.404293 0.498181 -0.027155
C61   C     C_R   0.060247 0.625414 0.505150 -0.032194
C62   C     C_R   0.969795 0.516217 0.501784 -0.065689
C63   C     C_R   0.029949 0.513497 0.501720 -0.065180
C64   C     C_R   0.939977 0.630548 0.505405 -0.015251
C65   C     C_R   0.059731 0.399116 0.498210 -0.010710
C66   C     C_R   0.969078 0.291368 0.494845 -0.222340
C67   C     C_R   0.328274 0.504603 0.500257 -0.065676
C68   C     C_R   0.030676 0.738325 0.508626 -0.221462
C69   C     C_R   0.028511 0.287440 0.494903 0.161247
C70   C     C_R   0.971208 0.742218 0.508774 0.161751
C71   C     C_3   0.577434 0.024089 0.362870 0.061628
C72   C     C_3   0.629085 0.966480 0.330493 -0.332037
C73   C     C_3   0.681107 0.962970 0.371704 -0.907310
C74   C     C_3   0.454348 0.053739 0.671598 0.040418
C75   C     C_3   0.409426 0.085563 0.719422 -0.286131
C76   C     C_3   0.394739 0.223433 0.720677 -0.863699
C77   C     C_3   0.619953 0.294320 0.248761 0.084662
C78   C     C_R   0.671597 0.506242 0.500225 -0.067322
C79   C     C_3   0.671209 0.363077 0.276357 -0.385735
C80   C     C_3   0.703447 0.282462 0.320042 -0.898867
C81   C     C_3   0.373414 0.570783 0.790532 0.067432
C82   C     C_3   0.330432 0.562047 0.738511 -0.380184
C83   C     C_3   0.275605 0.499879 0.757646 -0.892665
C84   C     C_3   0.415596 0.766535 0.252846 0.108310
C85   C     C_3   0.383095 0.848761 0.209643 -0.352606
C86   C     C_3   0.415770 0.867864 0.151342 -0.703660
C87   C     C_3   0.628991 0.435976 0.787229 0.069060
C88   C     C_3   0.671162 0.446712 0.734999 -0.394971
C89   C     C_R   0.298301 0.536802 0.448274 -0.290139
C90   C     C_3   0.724727 0.515427 0.755046 -0.867718
Cu1   Cu    Cu3+1 0.500000 0.499970 0.559570 0.944839
Cu2   Cu    Cu3+1 0.500000 0.500030 0.440430 0.944802
H1    H     H_    0.946174 0.204715 0.492194 0.186033
H2    H     H_    0.459070 0.206044 0.941300 0.183886
H3    H     H_    0.571120 0.384402 0.345055 0.149913
H4    H     H_    0.431893 0.628078 0.656988 0.177998
H5    H     H_    0.428751 0.617615 0.348730 0.138683
H6    H     H_    0.568506 0.372781 0.652548 0.153977
H7    H     H_    0.216056 0.457547 0.593307 0.142779
H8    H     H_    0.784515 0.455064 0.592242 0.147003
H9    H     H_    0.320282 0.451618 0.593249 0.155319
H10   H     H_    0.680422 0.445464 0.591852 0.160980
H11   H     H_    0.320919 0.559779 0.407669 0.167840
H12   H     H_    0.053587 0.824972 0.511190 0.185553
H13   H     H_    0.677939 0.569712 0.408962 0.159625
H14   H     H_    0.401343 0.245190 0.242172 0.206408
H15   H     H_    0.612495 0.739732 0.745913 0.178127
H16   H     H_    0.387201 0.208352 0.433648 0.130641
H17   H     H_    0.623909 0.838403 0.560033 0.133423
H18   H     H_    0.575634 0.985282 0.408394 0.180003
H19   H     H_    0.583352 0.126108 0.367914 0.111005
H20   H     H_    0.619147 0.870050 0.315202 0.249050
H21   H     H_    0.638984 0.020179 0.290058 0.206604
H22   H     H_    0.690455 0.056427 0.391139 0.267222
H23   H     H_    0.484509 0.105427 0.240044 0.200987
H24   H     H_    0.718610 0.929034 0.345524 0.262617
H25   H     H_    0.673608 0.899197 0.409072 0.256671
H26   H     H_    0.440088 0.092914 0.628475 0.180911
H27   H     H_    0.495047 0.099323 0.685611 0.136896
H28   H     H_    0.370113 0.031965 0.709649 0.230322
H29   H     H_    0.425724 0.059758 0.764357 0.242340
H30   H     H_    0.433719 0.279741 0.726675 0.275879
H31   H     H_    0.365326 0.245475 0.758666 0.257811
H32   H     H_    0.373650 0.248452 0.677913 0.240366
H33   H     H_    0.596745 0.237614 0.281302 0.123643
H34   H     H_    0.515685 0.829676 0.751463 0.230715
H35   H     H_    0.636479 0.226161 0.214448 0.167407
H36   H     H_    0.700295 0.389767 0.239621 0.229349
H37   H     H_    0.657421 0.449373 0.300783 0.218178
H38   H     H_    0.676155 0.263876 0.359473 0.253177
H39   H     H_    0.742167 0.331020 0.336397 0.267514
H40   H     H_    0.716489 0.193747 0.297316 0.265705
H41   H     H_    0.352491 0.617181 0.830120 0.174831
H42   H     H_    0.385736 0.476417 0.804851 0.144288
H43   H     H_    0.320330 0.656368 0.723030 0.243357
H44   H     H_    0.349049 0.507083 0.700187 0.203936
H45   H     H_    0.456932 0.874414 0.415337 0.163430
H46   H     H_    0.284679 0.405095 0.773006 0.255444
H47   H     H_    0.245927 0.493311 0.718729 0.257468
H48   H     H_    0.254818 0.554821 0.794728 0.259511
H49   H     H_    0.458093 0.808238 0.262310 0.182825
H50   H     H_    0.390643 0.766367 0.295328 0.083821
H51   H     H_    0.341155 0.806748 0.198771 0.222463
H52   H     H_    0.375324 0.940488 0.232342 0.174613
H53   H     H_    0.458092 0.908724 0.161312 0.258853
H54   H     H_    0.391609 0.932159 0.122753 0.215569
H55   H     H_    0.421183 0.778562 0.125831 0.272009
H56   H     H_    0.541443 0.123889 0.583627 0.147461
H57   H     H_    0.650888 0.390403 0.824993 0.176443
H58   H     H_    0.616083 0.529772 0.804822 0.144971
H59   H     H_    0.683096 0.352771 0.717304 0.230221
H60   H     H_    0.650986 0.498044 0.698073 0.229999
H61   H     H_    0.713693 0.610113 0.772349 0.257507
H62   H     H_    0.753904 0.522974 0.716043 0.261386
H63   H     H_    0.746952 0.464615 0.790918 0.253692
H64   H     H_    0.043176 0.122381 0.452114 0.217874
H65   H     H_    0.043016 0.118372 0.528196 0.210986
H66   H     H_    0.956604 0.907238 0.551609 0.214014
H67   H     H_    0.544364 0.801280 0.949894 0.185106
H68   H     H_    0.956576 0.911270 0.475529 0.214421
H69   H     H_    0.220514 0.506449 0.360303 0.221278
H70   H     H_    0.220974 0.657501 0.382284 0.232046
H71   H     H_    0.775944 0.680478 0.388443 0.232791
H72   H     H_    0.779297 0.533380 0.360815 0.211999
H73   H     H_    0.308824 0.270620 0.310336 0.215318
H74   H     H_    0.321820 0.322447 0.380680 0.223318
H75   H     H_    0.707079 0.782597 0.679117 0.223002
H76   H     H_    0.698001 0.736500 0.606867 0.234771
H77   H     H_    0.458131 0.207718 0.050939 0.178650
H78   H     H_    0.544739 0.802081 0.059603 0.182680
N1    N     N_R   0.851644 0.518136 0.501505 -0.464597
N2    N     N_3   0.790266 0.591306 0.397554 -0.571455
N3    N     N_3   0.339358 0.315015 0.337469 -0.584907
N4    N     N_3   0.681030 0.729866 0.650163 -0.597135
N5    N     N_R   0.148080 0.511374 0.501262 -0.465811
N6    N     N_R   0.501702 0.502643 0.841669 -0.428258
N7    N     N_R   0.500775 0.506193 0.159073 -0.405396
N8    N     N_R   0.500010 0.500010 0.350920 -0.193915
N9    N     N_R   0.499990 0.499990 0.649080 -0.215379
N10   N     N_3   0.056437 0.169190 0.491608 -0.505556
N11   N     N_3   0.943256 0.860429 0.512150 -0.507499
N12   N     N_3   0.208314 0.569463 0.394719 -0.572234
O1    O     O_R   0.500000 0.319610 0.550310 -0.587487
O2    O     O_2   0.150016 0.294862 0.494168 -0.496540
O3    O     O_2   0.850528 0.300930 0.493634 -0.536518
O4    O     O_2   0.149404 0.728551 0.508683 -0.531102
O5    O     O_2   0.472954 0.294323 0.838953 -0.550572
O6    O     O_2   0.534774 0.710524 0.162187 -0.557635
O7    O     O_2   0.532203 0.709658 0.845040 -0.575742
O8    O     O_2   0.470183 0.299216 0.155738 -0.581106
O9    O     O_3   0.527773 0.990585 0.330305 -0.627614
O10   O     O_3   0.458419 0.923626 0.663273 -0.608372
O11   O     O_3   0.583688 0.376785 0.218811 -0.589396
O12   O     O_R   0.500000 0.680390 0.449690 -0.586165
O13   O     O_3   0.420620 0.643810 0.775078 -0.581532
O14   O     O_3   0.420401 0.644739 0.227746 -0.575379
O15   O     O_3   0.582193 0.361079 0.769913 -0.583587
O16   O     O_R   0.499990 0.319670 0.449690 -0.575758
O17   O     O_R   0.500010 0.680330 0.550310 -0.560207
O18   O     O_R   0.417880 0.499930 0.550320 -0.588215
O19   O     O_R   0.582120 0.500070 0.449680 -0.586859
O20   O     O_R   0.417880 0.499990 0.449700 -0.577532
O21   O     O_R   0.582120 0.500010 0.550300 -0.578879
O22   O     O_2   0.849598 0.734560 0.509922 -0.498841

loop_
_geom_bond_atom_site_label_1
_geom_bond_atom_site_label_2
_ccdc_geom_bond_type
C51   H5    S    
C23   H7    S    
C87   C88   S    
C72   H20   S    
C34   C56   A    
C23   C45   A    
Cu1   O1    S    
C55   N7    S    
C14   C18   A    
C59   N5    A    
C1    O16   A    
C24   C27   A    
C79   H36   S    
C86   H55   S    
C85   H51   S    
C63   C65   A    
C81   C82   S    
C43   H77   S    
Cu2   O20   S    
C48   C57   A    
C47   C49   A    
C85   C86   S    
C9    H16   S    
C15   C19   A    
C74   H27   S    
C22   H45   S    
C73   H24   S    
C10   H17   S    
C80   H40   S    
C33   C42   A    
C84   H49   S    
C36   C37   A    
C35   C37   A    
H76   N4    S    
C24   C26   A    
H70   N12   S    
Cu2   O12   S    
C69   N10   S    
C11   C14   A    
C8    N4    S    
C66   C69   A    
H73   N3    S    
C79   H37   S    
C71   H18   S    
C67   C89   A    
C33   C36   A    
C56   C78   A    
C59   O4    S    
C60   C62   A    
C59   C61   A    
C52   H6    S    
C82   H43   S    
C17   O21   A    
C77   O11   S    
C62   C64   A    
C12   O17   A    
C42   H67   S    
C22   C25   A    
Cu1   N9    S    
C29   C38   A    
C45   C67   A    
C34   H8    S    
C31   C33   A    
C41   O2    S    
C64   C70   A    
H69   N12   S    
C90   H62   S    
C51   N8    A    
C35   C43   A    
C16   O18   A    
C31   N6    A    
Cu1   O17   S    
C48   C50   A    
C41   N5    A    
C60   C66   A    
C80   H39   S    
C22   C28   A    
C89   H11   S    
C58   O3    S    
C5    N5    S    
C15   O10   S    
C42   C44   A    
C16   O20   A    
C86   H54   S    
C85   H52   S    
C83   H47   S    
C83   H48   S    
C3    N12   S    
C52   C54   A    
C20   H14   S    
C6    N1    S    
C53   C55   A    
C1    O1    A    
C74   H26   S    
Cu2   O16   S    
C73   H25   S    
C74   C75   S    
C76   H32   S    
C32   C35   A    
C40   O22   S    
C81   H42   S    
C80   H38   S    
C84   C85   S    
C4    C6    A    
C24   H56   S    
Cu1   Cu2   S    
C41   C65   A    
C72   H21   S    
C87   H58   S    
C73   H22   S    
C29   O5    S    
C71   H19   S    
C51   C53   A    
H65   N10   S    
C30   O6    S    
C2    C4    A    
C75   C76   S    
C62   C63   A    
C2    C78   A    
C81   O13   S    
C57   N6    S    
H66   N11   S    
C70   N11   S    
C46   H2    S    
C84   H50   S    
C61   C63   A    
C8    C21   A    
C77   C79   S    
C32   O8    S    
C16   C67   S    
C49   H3    S    
C90   H61   S    
C17   O19   A    
H71   N2    S    
C9    C11   A    
C21   H15   S    
C45   H9    S    
C66   H1    S    
C74   O10   S    
C14   O9    S    
Cu2   N8    S    
C8    C10   A    
C88   C90   S    
C54   O15   S    
H75   N4    S    
C48   O13   S    
C1    C26   S    
C88   H59   S    
C32   N7    A    
H72   N2    S    
Cu1   O18   S    
C29   N6    A    
C86   H53   S    
H68   N11   S    
C77   H33   S    
C47   C55   A    
C49   N8    A    
C7    C9    A    
C31   O7    S    
H74   N3    S    
C4    N2    S    
C19   C21   A    
C75   H29   S    
C76   H31   S    
C12   O12   A    
C47   O11   S    
C75   H28   S    
C68   H12   S    
C72   C73   S    
C3    C5    A    
C10   C13   A    
C77   H35   S    
C18   H23   S    
C88   H60   S    
C81   H41   S    
C39   C44   A    
C25   C27   A    
C5    C23   A    
C19   H34   S    
C26   C28   A    
C40   C64   A    
C12   C25   S    
C3    C89   A    
C76   H30   S    
C13   C15   A    
C58   N1    A    
C52   N9    A    
C56   H10   S    
C71   C72   S    
C37   C39   A    
C71   O9    S    
H64   N10   S    
C61   C68   A    
C50   H4    S    
C11   C28   S    
C84   O14   S    
C65   C69   A    
C7    N3    S    
C36   C38   A    
C17   C78   S    
C30   N7    A    
C30   C39   A    
C50   N9    A    
C18   C20   A    
C83   H46   S    
C82   H44   S    
C43   C46   A    
C44   H78   S    
C38   C46   A    
C2    H13   S    
C79   C80   S    
C6    C34   A    
C68   C70   A    
C7    C20   A    
C87   H57   S    
C53   O14   S    
C87   O15   S    
C13   C27   S    
C82   C83   S    
C90   H63   S    
C58   C60   A    
C40   N1    A    
Cu1   O21   S    
Cu2   O19   S    
C54   C57   A    
