data_mof_unit_59729.cif
_audit_creation_date              2012-12-10T17:11:02-0500
_audit_creation_method            fapswitch 2.2
_symmetry_space_group_name_H-M    P1
_symmetry_Int_Tables_number       1
_space_group_crystal_system       triclinic
_cell_length_a                    11.778689
_cell_length_b                    12.992953
_cell_length_c                    13.399781
_cell_angle_alpha                 94.343819
_cell_angle_beta                  76.588916
_cell_angle_gamma                 100.716779
_cell_volume                      1958.84780941

loop_
_atom_site_label
_atom_site_type_symbol
_atom_type_description
_atom_site_fract_x
_atom_site_fract_y
_atom_site_fract_z
_atom_type_partial_charge
C1    C     C_R   0.521961 0.701416 0.503457 0.804238
C2    C     C_R   0.490055 0.553452 0.959981 0.090027
C3    C     C_R   0.462798 0.492906 0.872918 0.012549
C4    C     C_R   0.541846 0.507967 0.029348 -0.005257
C5    C     C_R   0.583575 0.410747 0.997775 0.038740
C6    C     C_R   0.559983 0.355385 0.908015 0.253580
C7    C     C_R   0.494815 0.393951 0.850853 -0.231549
C8    C     C_R   0.548724 0.549945 0.130720 0.198226
C9    C     C_R   0.650370 0.409414 0.154963 -0.255648
C10   C     C_R   0.410716 0.534707 0.803870 -0.072952
C11   C     C_R   0.464667 0.185603 0.501003 -0.047138
C12   C     C_R   0.437901 0.502183 0.695321 0.777281
C13   C     C_R   0.536228 0.816650 0.511605 -0.151410
C14   C     C_R   0.627563 0.989791 0.571164 0.042231
C15   C     C_R   0.628192 0.880762 0.552361 0.246046
C16   C     C_R   0.453629 0.862483 0.479347 -0.341279
C17   C     C_R   0.456697 0.969565 0.489480 0.159097
C18   C     C_R   0.543220 0.034074 0.534946 0.070558
C19   C     C_R   0.544673 0.142462 0.540436 -0.262889
C20   C     C_R   0.377095 0.120466 0.459965 -0.204052
C21   C     C_R   0.373159 0.012789 0.454206 -0.183617
C22   C     C_R   0.937434 0.582615 0.611603 -0.323014
C23   C     C_R   0.477924 0.299260 0.499685 0.786290
C24   C     C_R   0.821130 0.575703 0.598860 0.021794
C25   C     C_R   0.860071 0.465249 0.450613 0.434916
C26   C     C_R   0.979236 0.471297 0.460718 -0.068224
C27   C     C_R   0.019721 0.531581 0.541061 -0.013683
C28   C     C_R   0.140655 0.537764 0.548685 0.389124
C29   C     C_R   0.173349 0.419030 0.403592 0.292254
C30   C     C_R   0.056894 0.415397 0.394022 -0.332197
C31   C     C_R   0.563272 0.506951 0.304719 0.800428
C32   C     C_R   0.643939 0.367612 0.058623 -0.211015
C33   C     C_R   0.596299 0.494733 0.193536 -0.099512
C34   C     C_R   0.374196 0.631750 0.826526 -0.190939
C35   C     C_R   0.405998 0.694103 0.907712 -0.189972
C36   C     C_R   0.469912 0.658288 0.969234 -0.154849
Cu1   Cu    Cu3+1 0.386470 0.492430 0.492410 0.936140
Cu2   Cu    Cu3+1 0.613530 0.507570 0.507590 0.948337
H1    H     H_    0.687026 0.367866 0.203625 0.167004
H2    H     H_    0.314029 0.152781 0.429808 0.138228
H3    H     H_    0.306037 0.963342 0.420456 0.125889
H4    H     H_    0.387043 0.814344 0.443991 0.170697
H5    H     H_    0.960627 0.626472 0.677800 0.158162
H6    H     H_    0.025531 0.363603 0.336217 0.187102
H7    H     H_    0.759768 0.615204 0.654244 0.134954
H8    H     H_    0.679280 0.296218 0.036400 0.152238
H9    H     H_    0.336149 0.665566 0.773358 0.148520
H10   H     H_    0.507056 0.716498 0.019404 0.186234
H11   H     H_    0.388792 0.773672 0.918348 0.140735
H12   H     H_    0.473254 0.346723 0.785315 0.154787
H13   H     H_    0.609704 0.195436 0.573041 0.155426
N1    N     N_R   0.215880 0.481050 0.481000 -0.215388
N2    N     N_R   0.784100 0.518950 0.519000 -0.186523
O1    O     O_R   0.419710 0.645650 0.494620 -0.558233
O2    O     O_R   0.611450 0.658430 0.507430 -0.585991
O3    O     O_R   0.357340 0.490460 0.641450 -0.557456
O4    O     O_R   0.549080 0.503250 0.654260 -0.582706
O5    O     O_R   0.388550 0.341570 0.492570 -0.607937
O6    O     O_R   0.580290 0.354350 0.505380 -0.556633
O7    O     O_R   0.450920 0.496750 0.345740 -0.594425
O8    O     O_R   0.642660 0.509540 0.358550 -0.557975
C37   C     C_3   0.712413 0.061961 0.629277 -0.403339
C38   C     C_3   0.787431 0.013008 0.686646 -0.306637
C39   C     C_3   0.845891 0.093555 0.756550 -0.898821
H14   H     H_    0.894138 0.164394 0.713701 0.262565
H15   H     H_    0.778169 0.115853 0.822713 0.254636
H16   H     H_    0.909998 0.058870 0.786772 0.245429
H17   H     H_    0.730912 0.948649 0.734884 0.226951
H18   H     H_    0.860311 0.983220 0.630752 0.250038
H19   H     H_    0.773636 0.118280 0.574393 0.184207
H20   H     H_    0.657063 0.107090 0.688834 0.218646
N3    N     N_2   0.723253 0.837408 0.570970 -0.442033
H21   H     H_    0.700865 0.775309 0.619250 0.254589
C40   C     C_3   0.821217 0.832480 0.483445 -0.671586
H22   H     H_    0.893025 0.802995 0.507577 0.216045
H23   H     H_    0.857095 0.911854 0.452591 0.219604
H24   H     H_    0.792704 0.779433 0.421595 0.244374
N4    N     N_2   0.183547 0.600383 0.628333 -0.385455
H25   H     H_    0.143507 0.574553 0.701112 0.228174
C41   C     C_3   0.198377 0.713044 0.620192 -0.680636
H26   H     H_    0.284582 0.750209 0.637395 0.235801
H27   H     H_    0.128282 0.745331 0.677367 0.194248
H28   H     H_    0.195843 0.734828 0.542167 0.221373
C42   C     C_3   0.239554 0.341090 0.332651 -0.371150
C43   C     C_3   0.277166 0.366710 0.217954 -0.352857
C44   C     C_3   0.177491 0.347109 0.159855 -0.854003
H29   H     H_    0.119346 0.270367 0.179230 0.246548
H30   H     H_    0.124852 0.411365 0.176736 0.248591
H31   H     H_    0.216547 0.346187 0.076013 0.247677
H32   H     H_    0.322126 0.448346 0.209404 0.249992
H33   H     H_    0.343439 0.317085 0.179759 0.209860
H34   H     H_    0.320753 0.332835 0.353422 0.221699
H35   H     H_    0.184320 0.261577 0.341333 0.156308
N5    N     N_2   0.599057 0.258924 0.873579 -0.436767
H36   H     H_    0.685687 0.257328 0.874951 0.243736
C45   C     C_3   0.516042 0.166464 0.912381 -0.729464
H37   H     H_    0.551009 0.095206 0.877549 0.226668
H38   H     H_    0.429613 0.165264 0.891922 0.241030
H39   H     H_    0.502579 0.164814 0.997144 0.226033
N6    N     N_2   0.819771 0.407085 0.367216 -0.394105
H40   H     H_    0.866343 0.432484 0.295740 0.222559
C46   C     C_3   0.793176 0.293817 0.373989 -0.676747
H41   H     H_    0.859125 0.256813 0.316572 0.187216
H42   H     H_    0.705580 0.264266 0.355640 0.237647
H43   H     H_    0.792120 0.268745 0.451726 0.221068
N7    N     N_2   0.514456 0.647936 0.170137 -0.457269
H44   H     H_    0.565167 0.689621 0.217931 0.241606
C47   C     C_3   0.389320 0.652419 0.206278 -0.723771
H45   H     H_    0.355069 0.621538 0.284335 0.259389
H46   H     H_    0.377198 0.735474 0.210711 0.220124
H47   H     H_    0.336217 0.609155 0.153154 0.240835

loop_
_geom_bond_atom_site_label_1
_geom_bond_atom_site_label_2
_ccdc_geom_bond_type
C23   O5    A    
C31   O8    A    
C35   C36   A    
C4    C8    A    
C43   H33   S    
C43   C44   S    
C23   O6    A    
C15   N3    S    
C11   C19   A    
C26   C27   A    
C37   C38   S    
C40   H23   S    
C24   H7    S    
Cu1   Cu2   S    
C25   N2    A    
C18   C19   A    
C3    C7    A    
C5    C6    A    
C46   H42   S    
N4    C41   S    
N7    H44   S    
C14   C37   S    
C45   H39   S    
C9    H1    S    
C47   H45   S    
C37   H19   S    
C46   H43   S    
C34   C35   A    
C14   C18   A    
C9    C32   A    
Cu1   O3    S    
Cu2   O2    S    
C38   H18   S    
C16   C17   A    
C6    N5    S    
C40   H24   S    
C45   H38   S    
C35   H11   S    
C31   C33   S    
C28   N4    S    
Cu1   O5    S    
N3    H21   S    
Cu2   O8    S    
C9    C33   A    
C30   H6    S    
N5    H36   S    
C41   H28   S    
C11   C20   A    
C40   H22   S    
C39   H16   S    
C42   C43   S    
C29   C42   S    
C41   H27   S    
Cu1   N1    S    
N4    H25   S    
C41   H26   S    
C24   N2    A    
C17   C21   A    
C38   C39   S    
C39   H15   S    
C31   O7    A    
C2    C4    A    
C1    O1    A    
C29   C30   A    
Cu2   O4    S    
C25   N6    S    
C22   H5    S    
C45   H37   S    
N6    C46   S    
C17   C18   A    
C10   C34   A    
N5    C45   S    
C12   O3    A    
C10   C12   S    
C21   H3    S    
C12   O4    A    
N3    C40   S    
C26   C30   A    
C22   C27   A    
C13   C15   A    
C22   C24   A    
C1    C13   S    
Cu1   O1    S    
C16   H4    S    
C2    C36   A    
C38   H17   S    
C44   H29   S    
C32   H8    S    
C7    H12   S    
C4    C5    A    
C44   H31   S    
C8    N7    S    
C43   H32   S    
C6    C7    A    
C47   H47   S    
C42   H35   S    
C39   H14   S    
C5    C32   A    
C2    C3    A    
C25   C26   A    
C3    C10   A    
C28   N1    A    
Cu2   N2    S    
N7    C47   S    
C20   H2    S    
C11   C23   S    
N6    H40   S    
C47   H46   S    
C37   H20   S    
C36   H10   S    
C44   H30   S    
C8    C33   A    
C1    O2    A    
C46   H41   S    
Cu1   O7    S    
Cu2   O6    S    
C19   H13   S    
C20   C21   A    
C13   C16   A    
C27   C28   A    
C14   C15   A    
C34   H9    S    
C42   H34   S    
C29   N1    A    
