data_mof_unit_20450.cif
_audit_creation_date              2012-12-10T19:45:42-0500
_audit_creation_method            fapswitch 2.2
_symmetry_space_group_name_H-M    P1
_symmetry_Int_Tables_number       1
_space_group_crystal_system       triclinic
_cell_length_a                    10.88905
_cell_length_b                    14.672222
_cell_length_c                    14.544611
_cell_angle_alpha                 65.898448
_cell_angle_beta                  102.789897
_cell_angle_gamma                 101.756715
_cell_volume                      2051.69620257

loop_
_atom_site_label
_atom_site_type_symbol
_atom_type_description
_atom_site_fract_x
_atom_site_fract_y
_atom_site_fract_z
_atom_type_partial_charge
C1    C     C_R   0.479404 0.119131 0.311355 0.803038
C2    C     C_R   0.520598 0.880869 0.688645 0.803038
C3    C     C_R   0.870299 0.997210 0.498236 -0.094686
C4    C     C_R   0.129701 0.002788 0.501766 -0.094689
C5    C     C_R   0.911019 0.934018 0.462243 0.000204
C6    C     C_R   0.088980 0.065980 0.537760 0.000204
C7    C     C_R   0.471903 0.185523 0.201741 -0.073381
C8    C     C_R   0.528096 0.814477 0.798259 -0.073378
C9    C     C_R   0.467114 0.220082 0.022826 -0.193590
C10   C     C_R   0.532862 0.779916 0.977170 -0.193590
C11   C     C_R   0.463100 0.150181 0.122702 0.174597
C12   C     C_R   0.536888 0.849817 0.877297 0.174595
C13   C     C_R   0.479516 0.289248 0.177044 -0.296507
C14   C     C_R   0.520490 0.710753 0.822956 -0.296499
C15   C     C_R   0.484638 0.360179 0.077020 0.087939
C16   C     C_R   0.515344 0.639821 0.922976 0.087940
C17   C     C_R   0.479233 0.323500 0.999999 0.117342
C18   C     C_R   0.520739 0.676499 0.999997 0.117341
C19   C     C_R   0.496560 0.466234 0.051524 0.076774
C20   C     C_R   0.503413 0.533765 0.948471 0.076775
C21   C     C_R   0.497941 0.492872 0.874569 -0.214516
C22   C     C_R   0.502016 0.507126 0.125423 -0.214515
C23   C     C_R   0.262865 0.000986 0.501075 0.796230
C24   C     C_R   0.737135 0.999014 0.498926 0.796226
C25   C     C_R   0.486366 0.390125 0.900236 -0.222765
C26   C     C_R   0.513592 0.609873 0.099757 -0.222767
C27   C     C_R   0.703103 0.278977 0.676539 -0.314736
C28   C     C_R   0.296890 0.721021 0.323464 -0.314738
C29   C     C_R   0.675156 0.200411 0.642272 0.065934
C30   C     C_R   0.324841 0.799589 0.357730 0.065936
C31   C     C_R   0.522509 0.286946 0.507496 0.044330
C32   C     C_R   0.477489 0.713053 0.492504 0.044332
C33   C     C_R   0.549918 0.371865 0.535837 -0.043480
C34   C     C_R   0.450076 0.628132 0.464166 -0.043483
C35   C     C_R   0.638813 0.364672 0.625521 0.144909
C36   C     C_R   0.361179 0.635325 0.374483 0.144911
C37   C     C_R   0.488936 0.461097 0.480572 0.016632
C38   C     C_R   0.511056 0.538901 0.519431 0.016627
C39   C     C_R   0.593166 0.525198 0.612545 -0.245345
C40   C     C_R   0.406823 0.474797 0.387460 -0.245344
C41   C     C_R   0.659146 0.441541 0.663945 0.164692
C42   C     C_R   0.340841 0.558455 0.336061 0.164685
C43   C     C_R   0.315183 0.164288 0.723313 -0.146701
C44   C     C_R   0.684809 0.835725 0.276680 -0.146698
C45   C     C_R   0.246410 0.099311 0.676325 -0.151591
C46   C     C_R   0.753588 0.900697 0.323672 -0.151586
C47   C     C_R   0.174663 0.137569 0.578846 0.132631
C48   C     C_R   0.825335 0.862433 0.421152 0.132628
C49   C     C_R   0.172055 0.243015 0.528538 0.194867
C50   C     C_R   0.827936 0.756985 0.471456 0.194866
C51   C     C_R   0.238942 0.306754 0.578164 -0.136784
C52   C     C_R   0.761041 0.693251 0.421826 -0.136788
C53   C     C_R   0.310644 0.267675 0.674521 -0.151884
C54   C     C_R   0.689340 0.732337 0.325468 -0.151878
C55   C     C_R   0.960135 0.061457 0.536191 -0.228635
C56   C     C_R   0.039865 0.938540 0.463812 -0.228645
Cu1   Cu    Cu3+1 0.466270 0.918260 0.475690 0.938420
Cu2   Cu    Cu3+1 0.533730 0.081740 0.524310 0.938418
H1    H     H_    0.362774 0.317936 0.711098 0.135250
H2    H     H_    0.637205 0.682080 0.288887 0.135250
H3    H     H_    0.461828 0.193816 0.962125 0.127648
H4    H     H_    0.538141 0.806181 0.037871 0.127648
H5    H     H_    0.502418 0.537509 0.795426 0.139707
H6    H     H_    0.497515 0.462487 0.204562 0.139704
H7    H     H_    0.551267 0.717700 0.553822 0.124628
H8    H     H_    0.448734 0.282299 0.446176 0.124630
H9    H     H_    0.773599 0.270864 0.743758 0.154227
H10   H     H_    0.226391 0.729134 0.256247 0.154228
H11   H     H_    0.608064 0.579208 0.647636 0.129672
H12   H     H_    0.391919 0.420786 0.352371 0.129675
H13   H     H_    0.370026 0.134430 0.798511 0.128641
H14   H     H_    0.629966 0.865589 0.201481 0.128639
H15   H     H_    0.246693 0.018838 0.716659 0.121131
H16   H     H_    0.753310 0.981172 0.283341 0.121128
H17   H     H_    0.235866 0.387223 0.541824 0.154577
H18   H     H_    0.764110 0.612780 0.458164 0.154576
H19   H     H_    0.930509 0.109273 0.565570 0.170849
H20   H     H_    0.069491 0.890724 0.434433 0.170851
H21   H     H_    0.484047 0.362577 0.841220 0.144777
H22   H     H_    0.515902 0.637420 0.158772 0.144781
H23   H     H_    0.517459 0.687330 0.761543 0.154508
H24   H     H_    0.482579 0.312675 0.238459 0.154517
N1    N     N_R   0.584450 0.204570 0.560790 -0.176734
N2    N     N_R   0.415550 0.795430 0.439210 -0.176732
O1    O     O_R   0.455540 0.022090 0.338120 -0.581664
O2    O     O_R   0.544460 0.977910 0.661880 -0.581666
O3    O     O_R   0.512510 0.160150 0.379180 -0.591928
O4    O     O_R   0.487490 0.839850 0.620820 -0.591925
O5    O     O_R   0.291160 0.930970 0.479480 -0.588314
O6    O     O_R   0.708840 0.069030 0.520520 -0.588315
O7    O     O_R   0.348130 0.069020 0.520540 -0.576597
O8    O     O_R   0.651870 0.930980 0.479460 -0.576597
C57   C     C_3   0.749010 0.435225 0.761271 -0.897719
H25   H     H_    0.750945 0.500584 0.781892 0.236398
H26   H     H_    0.719104 0.366188 0.825529 0.236492
H27   H     H_    0.846969 0.433622 0.752039 0.237635
C58   C     C_3   0.250972 0.564768 0.238738 -0.897734
H28   H     H_    0.249033 0.499409 0.218118 0.236398
H29   H     H_    0.153014 0.566371 0.247975 0.237637
H30   H     H_    0.280872 0.633804 0.174478 0.236492
H31   H     H_    0.276310 0.865613 0.317454 0.122071
H32   H     H_    0.723687 0.134387 0.682548 0.122071
C59   C     C_3   0.098773 0.290216 0.423478 -0.905777
H33   H     H_    0.057417 0.235352 0.386976 0.245161
H34   H     H_    0.020874 0.325912 0.428035 0.239792
H35   H     H_    0.162894 0.348756 0.373219 0.240324
C60   C     C_3   0.901212 0.709776 0.576518 -0.905763
H36   H     H_    0.942599 0.764640 0.613014 0.245162
H37   H     H_    0.837078 0.651255 0.626780 0.240318
H38   H     H_    0.979089 0.674053 0.571965 0.239789
C61   C     C_3   0.549153 0.959912 0.858720 -0.853667
H39   H     H_    0.467257 0.993826 0.803503 0.240224
H40   H     H_    0.550710 0.972046 0.929565 0.208585
H41   H     H_    0.639243 0.999161 0.829461 0.236168
C62   C     C_3   0.450844 0.040086 0.141280 -0.853658
H42   H     H_    0.532745 0.006178 0.196496 0.240220
H43   H     H_    0.360756 0.000833 0.170539 0.236167
H44   H     H_    0.449292 0.027952 0.070435 0.208582

loop_
_geom_bond_atom_site_label_1
_geom_bond_atom_site_label_2
_ccdc_geom_bond_type
C1    O3    A    
C31   H8    S    
C57   H25   S    
Cu1   O8    S    
C27   C29   A    
C62   H43   S    
C5    C56   A    
C36   C42   A    
C61   H39   S    
C18   C26   A    
C6    C55   A    
Cu2   O3    S    
C58   H28   S    
C53   H1    S    
C31   N1    A    
C39   C41   A    
C54   H2    S    
C15   C19   A    
Cu1   O5    S    
C9    H3    S    
C28   H10   S    
C51   H17   S    
C29   N1    A    
C37   C40   A    
C38   C39   A    
C55   H19   S    
C62   H42   S    
Cu2   O2    S    
C56   H20   S    
C45   H15   S    
C33   C35   A    
C44   H14   S    
C3    C55   A    
C43   C53   A    
C41   C57   S    
C19   C20   A    
C52   C54   A    
C49   C51   A    
C50   C52   A    
C60   H36   S    
C23   O5    A    
C2    O4    A    
C14   C16   A    
C59   H35   S    
C11   C62   S    
Cu2   O7    S    
C8    C12   A    
C40   C42   A    
C57   H26   S    
C25   H21   S    
C4    C56   A    
C60   H37   S    
C3    C24   S    
C10   H4    S    
C24   O8    A    
C58   H29   S    
C44   C46   A    
C45   C47   A    
C1    O1    A    
C32   N2    A    
C5    C48   S    
C46   C48   A    
C6    C47   S    
C19   C22   A    
C43   H13   S    
C4    C6    A    
C42   C58   S    
C4    C23   S    
C34   C38   A    
C27   C35   A    
C13   H24   S    
C33   C37   A    
C51   C53   A    
C32   C34   A    
C7    C11   A    
C37   C38   A    
C9    C11   A    
C16   C20   A    
C62   H44   S    
C31   C33   A    
C39   H11   S    
Cu1   N2    S    
C61   H40   S    
C43   C45   A    
C10   C12   A    
Cu2   O6    S    
C9    C17   A    
C57   H27   S    
C13   C15   A    
C50   C60   S    
C59   H34   S    
C23   O7    A    
C3    C5    A    
C46   H16   S    
C58   H30   S    
C15   C17   A    
C21   C25   A    
C8    C14   A    
C1    C7    S    
C2    C8    S    
C52   H18   S    
C24   O6    A    
C49   C59   S    
C47   C49   A    
C40   H12   S    
Cu1   O4    S    
C17   C25   A    
C28   C30   A    
Cu2   N1    S    
Cu1   Cu2   S    
C10   C18   A    
C30   H31   S    
C48   C50   A    
C60   H38   S    
Cu1   O1    S    
C29   H32   S    
C2    O2    A    
C61   H41   S    
C34   C36   A    
C30   N2    A    
C35   C41   A    
C26   H22   S    
C21   H5    S    
C27   H9    S    
C22   H6    S    
C44   C54   A    
C7    C13   A    
C20   C21   A    
C28   C36   A    
C16   C18   A    
C22   C26   A    
C59   H33   S    
C14   H23   S    
C12   C61   S    
C32   H7    S    
