data_mof_unit_44218.cif
_audit_creation_date              2012-12-11T15:37:23-0500
_audit_creation_method            fapswitch 2.2
_symmetry_space_group_name_H-M    P1
_symmetry_Int_Tables_number       1
_space_group_crystal_system       triclinic
_cell_length_a                    17.406192
_cell_length_b                    24.278934
_cell_length_c                    14.871411
_cell_angle_alpha                 90.226751
_cell_angle_beta                  125.889178
_cell_angle_gamma                 89.619048
_cell_volume                      5091.46393536

loop_
_atom_site_label
_atom_site_type_symbol
_atom_type_description
_atom_site_fract_x
_atom_site_fract_y
_atom_site_fract_z
_atom_type_partial_charge
C1    C     C_R   0.808108 0.623469 0.908036 -0.082339
C2    C     C_R   0.149925 0.347271 0.090745 -0.101403
C3    C     C_R   0.189978 0.625918 0.093075 -0.094202
C4    C     C_R   0.850235 0.347571 0.909721 -0.104263
C5    C     C_R   0.308108 0.123469 0.908036 -0.082340
C6    C     C_R   0.649925 0.847271 0.090745 -0.101402
C7    C     C_R   0.689978 0.125918 0.093075 -0.094201
C8    C     C_R   0.350235 0.847572 0.909721 -0.104263
C9    C     C_3   0.410261 0.500889 0.435495 0.150936
C10   C     C_3   0.593394 0.501061 0.559733 0.152588
C11   C     C_3   0.910260 0.000889 0.435495 0.150937
C12   C     C_3   0.093394 0.001061 0.559734 0.152588
C13   C     C_R   0.790955 0.233081 0.903492 -0.147158
C14   C     C_R   0.337902 0.690733 0.103623 -0.142067
C15   C     C_R   0.209559 0.231441 0.099480 -0.144255
C16   C     C_R   0.656791 0.684738 0.899738 -0.134717
C17   C     C_R   0.290955 0.733082 0.903492 -0.147159
C18   C     C_R   0.837902 0.190733 0.103623 -0.142066
C19   C     C_R   0.709560 0.731441 0.099480 -0.144256
C20   C     C_R   0.156791 0.184738 0.899738 -0.134718
C21   C     C_R   0.239964 0.689542 0.902682 -0.106982
C22   C     C_R   0.888117 0.234758 0.104462 -0.137309
C23   C     C_R   0.757371 0.685383 0.100541 -0.139039
C24   C     C_R   0.109687 0.231250 0.898562 -0.115099
C25   C     C_R   0.739964 0.189542 0.902682 -0.106989
C26   C     C_R   0.388117 0.734757 0.104462 -0.137309
C27   C     C_R   0.257371 0.185383 0.100541 -0.139039
C28   C     C_R   0.609687 0.731250 0.898563 -0.115098
C29   C     C_R   0.256774 0.672303 0.002321 0.110066
C30   C     C_R   0.857886 0.259717 0.004068 0.110027
C31   C     C_R   0.738111 0.665756 0.000733 0.119295
C32   C     C_R   0.142337 0.257968 0.998473 0.109801
C33   C     C_R   0.756774 0.172303 0.002321 0.110066
C34   C     C_R   0.357885 0.759717 0.004068 0.110027
C35   C     C_R   0.238111 0.165756 0.000733 0.119295
C36   C     C_R   0.642337 0.757968 0.998473 0.109802
C37   C     C_R   0.108022 0.448130 0.626990 0.586593
C38   C     C_R   0.121757 0.548025 0.546279 0.600370
C39   C     C_R   0.120936 0.448682 0.543657 0.598476
C40   C     C_R   0.110015 0.547511 0.630566 0.568353
C41   C     C_R   0.608026 0.948130 0.626993 0.586593
C42   C     C_R   0.621761 0.048026 0.546283 0.600375
C43   C     C_R   0.620938 0.948682 0.543659 0.598474
C44   C     C_R   0.610018 0.047511 0.630569 0.568351
C45   C     C_R   0.111910 0.498679 0.490742 -0.486530
C46   C     C_R   0.088121 0.497786 0.658791 -0.491484
C47   C     C_R   0.611912 0.998680 0.490743 -0.486542
C48   C     C_R   0.588125 0.997786 0.658794 -0.491481
C49   C     C_R   0.944197 0.349495 0.094688 -0.113872
C50   C     C_R   0.092054 0.630983 0.908097 -0.081741
C51   C     C_R   0.055297 0.348425 0.906476 -0.096368
C52   C     C_R   0.903338 0.623310 0.093998 -0.095560
C53   C     C_R   0.444196 0.849495 0.094688 -0.113870
C54   C     C_R   0.592054 0.130983 0.908097 -0.081745
C55   C     C_R   0.555297 0.848425 0.906476 -0.096368
C56   C     C_R   0.403337 0.123310 0.093998 -0.095560
C57   C     C_R   0.053979 0.545467 0.307263 -0.115605
C58   C     C_R   0.013084 0.452580 0.744567 -0.068849
C59   C     C_R   0.004298 0.544684 0.733345 -0.082333
C60   C     C_R   0.051798 0.453637 0.305401 -0.089626
C61   C     C_R   0.553977 0.045467 0.307262 -0.115594
C62   C     C_R   0.513085 0.952581 0.744568 -0.068851
C63   C     C_R   0.504299 0.044684 0.733346 -0.082334
C64   C     C_R   0.551798 0.953637 0.305402 -0.089630
C65   C     C_R   0.743897 0.455027 0.694752 0.141088
C66   C     C_R   0.257571 0.545631 0.303188 0.114720
C67   C     C_R   0.258931 0.454853 0.303284 0.141450
C68   C     C_R   0.744375 0.545652 0.695152 0.113859
C69   C     C_R   0.243896 0.955027 0.694752 0.141089
C70   C     C_R   0.757570 0.045631 0.303188 0.114720
C71   C     C_R   0.758931 0.954853 0.303284 0.141450
C72   C     C_R   0.244375 0.045652 0.695152 0.113859
C73   C     C_R   0.811900 0.635974 0.001473 0.015919
C74   C     C_R   0.118197 0.315912 0.997942 0.034908
C75   C     C_R   0.183558 0.642536 0.000524 0.026023
C76   C     C_R   0.882200 0.316892 0.003360 0.032058
C77   C     C_R   0.311901 0.135974 0.001472 0.015921
C78   C     C_R   0.618197 0.815912 0.997942 0.034907
C79   C     C_R   0.683558 0.142536 0.000524 0.026022
C80   C     C_R   0.382200 0.816892 0.003360 0.032058
C81   C     C_R   0.073811 0.499292 0.372595 0.239449
C82   C     C_R   0.038415 0.498209 0.711494 0.234076
C83   C     C_R   0.573811 0.999293 0.372596 0.239456
C84   C     C_R   0.538416 0.998209 0.711496 0.234077
C85   C     C_R   0.695374 0.500599 0.633312 -0.017507
C86   C     C_R   0.308332 0.500442 0.362995 -0.012287
C87   C     C_R   0.195374 0.000599 0.633312 -0.017507
C88   C     C_R   0.808331 0.000442 0.362996 -0.012290
C89   C     C_3   0.532998 0.455857 0.561480 -0.120934
C90   C     C_3   0.470453 0.546151 0.433539 -0.123439
C91   C     C_3   0.471570 0.455788 0.433780 -0.119624
C92   C     C_3   0.532091 0.546248 0.561365 -0.124096
C93   C     C_3   0.032998 0.955857 0.561481 -0.120935
C94   C     C_3   0.970453 0.046150 0.433540 -0.123440
C95   C     C_3   0.971570 0.955788 0.433781 -0.119624
C96   C     C_3   0.032090 0.046248 0.561365 -0.124097
C97   C     C_3   0.470289 0.501017 0.561594 -0.116852
C98   C     C_3   0.533373 0.501006 0.433589 -0.123957
C99   C     C_3   0.970289 0.001018 0.561594 -0.116853
C100  C     C_3   0.033373 0.001006 0.433589 -0.123957
H1    H     H_    0.748149 0.627395 0.822859 0.125077
H2    H     H_    0.187557 0.332324 0.174043 0.134105
H3    H     H_    0.250263 0.628672 0.178007 0.123235
H4    H     H_    0.811381 0.332675 0.826125 0.138029
H5    H     H_    0.248150 0.127395 0.822859 0.125077
H6    H     H_    0.687557 0.832324 0.174043 0.134105
H7    H     H_    0.750263 0.128672 0.178007 0.123234
H8    H     H_    0.311381 0.832675 0.826125 0.138029
H9    H     H_    0.991063 0.336527 0.180258 0.116479
H10   H     H_    0.059881 0.645506 0.825061 0.125646
H11   H     H_    0.007061 0.334463 0.821784 0.117744
H12   H     H_    0.931412 0.628526 0.180164 0.108892
H13   H     H_    0.491063 0.836527 0.180258 0.116479
H14   H     H_    0.559881 0.145507 0.825061 0.125648
H15   H     H_    0.507061 0.834463 0.821784 0.117744
H16   H     H_    0.431412 0.128526 0.180163 0.108891
H17   H     H_    0.071270 0.587655 0.333787 0.210082
H18   H     H_    0.022573 0.409670 0.735613 0.192106
H19   H     H_    0.996943 0.585515 0.701847 0.178876
H20   H     H_    0.065851 0.410918 0.328974 0.202262
H21   H     H_    0.571261 0.087657 0.333782 0.210078
H22   H     H_    0.522575 0.909670 0.735614 0.192106
H23   H     H_    0.496943 0.085515 0.701848 0.178882
H24   H     H_    0.565852 0.910919 0.328975 0.202263
H25   H     H_    0.441727 0.501009 0.611551 0.156807
H26   H     H_    0.561880 0.501023 0.383579 0.150569
H27   H     H_    0.941726 0.001009 0.611551 0.156805
H28   H     H_    0.061880 0.001023 0.383580 0.150569
H29   H     H_    0.559602 0.418599 0.614870 0.161425
H30   H     H_    0.443374 0.583286 0.379785 0.145470
H31   H     H_    0.445637 0.418549 0.380340 0.159641
H32   H     H_    0.558228 0.583518 0.614755 0.148414
H33   H     H_    0.059602 0.918600 0.614870 0.161425
H34   H     H_    0.943374 0.083285 0.379786 0.145470
H35   H     H_    0.945637 0.918549 0.380341 0.159641
H36   H     H_    0.058228 0.083518 0.614755 0.148414
H37   H     H_    0.770332 0.248671 0.824296 0.146590
H38   H     H_    0.357631 0.675649 0.182775 0.126058
H39   H     H_    0.232624 0.248588 0.178656 0.135347
H40   H     H_    0.635066 0.667940 0.820752 0.124573
H41   H     H_    0.270331 0.748671 0.824296 0.146589
H42   H     H_    0.857631 0.175649 0.182775 0.126057
H43   H     H_    0.732625 0.748588 0.178656 0.135347
H44   H     H_    0.135066 0.167940 0.820751 0.124573
H45   H     H_    0.182026 0.673434 0.823511 0.195548
H46   H     H_    0.943596 0.252155 0.183763 0.133714
H47   H     H_    0.815517 0.669283 0.179944 0.128904
H48   H     H_    0.054203 0.248676 0.819116 0.136520
H49   H     H_    0.682026 0.173434 0.823511 0.195547
H50   H     H_    0.443596 0.752155 0.183763 0.133714
H51   H     H_    0.315517 0.169283 0.179944 0.128906
H52   H     H_    0.554203 0.748676 0.819116 0.136520
N1    N     N_R   0.892620 0.603790 0.941800 -0.037771
N2    N     N_R   0.107380 0.396210 0.058200 -0.042746
N3    N     N_R   0.107380 0.603790 0.058200 -0.039348
N4    N     N_R   0.892620 0.396210 0.941800 -0.042073
N5    N     N_R   0.392620 0.103790 0.941800 -0.037771
N6    N     N_R   0.607380 0.896210 0.058200 -0.042746
N7    N     N_R   0.607380 0.103790 0.058200 -0.039347
N8    N     N_R   0.392620 0.896210 0.941800 -0.042073
N9    N     N_R   0.952210 0.397600 0.057910 -0.044838
N10   N     N_R   0.047790 0.602400 0.942090 -0.045000
N11   N     N_R   0.047790 0.397600 0.942090 -0.048108
N12   N     N_R   0.952210 0.602400 0.057910 -0.041722
N13   N     N_R   0.452210 0.897600 0.057910 -0.044837
N14   N     N_R   0.547790 0.102400 0.942090 -0.045000
N15   N     N_R   0.547790 0.897600 0.942090 -0.048108
N16   N     N_R   0.452210 0.102400 0.057910 -0.041722
N17   N     N_R   0.026300 0.529110 0.206760 -0.067832
N18   N     N_R   0.973700 0.470890 0.793240 -0.064918
N19   N     N_R   0.973700 0.529110 0.793240 -0.060941
N20   N     N_R   0.026300 0.470890 0.206760 -0.066866
N21   N     N_R   0.526300 0.029110 0.206760 -0.067833
N22   N     N_R   0.473700 0.970890 0.793240 -0.064918
N23   N     N_R   0.473700 0.029110 0.793240 -0.060941
N24   N     N_R   0.526300 0.970890 0.206760 -0.066866
N25   N     N_R   0.818530 0.472270 0.792960 -0.074177
N26   N     N_R   0.181470 0.527730 0.207040 -0.077454
N27   N     N_R   0.181470 0.472270 0.207040 -0.075749
N28   N     N_R   0.818530 0.527730 0.792960 -0.077011
N29   N     N_R   0.318530 0.972270 0.792960 -0.074177
N30   N     N_R   0.681470 0.027730 0.207040 -0.077454
N31   N     N_R   0.681470 0.972270 0.207040 -0.075749
N32   N     N_R   0.318530 0.027730 0.792960 -0.077012
Ni1   Ni    Ni4+2 0.934150 0.565840 0.869060 0.262681
Ni2   Ni    Ni4+2 0.065850 0.434160 0.130940 0.235579
Ni3   Ni    Ni4+2 0.065850 0.565840 0.130940 0.257687
Ni4   Ni    Ni4+2 0.934150 0.434160 0.869060 0.239491
Ni5   Ni    Ni4+2 0.434150 0.065840 0.869060 0.262681
Ni6   Ni    Ni4+2 0.565850 0.934160 0.130940 0.235579
Ni7   Ni    Ni4+2 0.565850 0.065840 0.130940 0.257688
Ni8   Ni    Ni4+2 0.434150 0.934160 0.869060 0.239491
I1    I     I_    0.737967 0.380056 0.618162 -0.427065
I2    I     I_    0.266906 0.622318 0.378059 -0.365262
I3    I     I_    0.273149 0.379401 0.382631 -0.383810
I4    I     I_    0.739679 0.622148 0.623970 -0.403090
I5    I     I_    0.237967 0.880056 0.618162 -0.427065
I6    I     I_    0.766904 0.122318 0.378059 -0.365262
I7    I     I_    0.773149 0.879401 0.382632 -0.383813
I8    I     I_    0.239679 0.122148 0.623970 -0.403087
F1    F     F_    0.111108 0.398806 0.671312 -0.648456
F2    F     F_    0.137282 0.597091 0.516566 -0.637617
F3    F     F_    0.136732 0.399982 0.512111 -0.630823
F4    F     F_    0.116097 0.595933 0.679894 -0.685429
F5    F     F_    0.611112 0.898806 0.671316 -0.648456
F6    F     F_    0.637275 0.097095 0.516562 -0.637611
F7    F     F_    0.636734 0.899983 0.512113 -0.630824
F8    F     F_    0.616091 0.095934 0.679888 -0.685431

loop_
_geom_bond_atom_site_label_1
_geom_bond_atom_site_label_2
_ccdc_geom_bond_type
C16   C28   A    
C10   C85   S    
C22   H46   S    
C37   F1    S    
C39   F3    S    
C50   N10   A    
C20   H44   S    
C65   C85   A    
C51   C74   A    
C55   N15   A    
N12   Ni3   S    
C70   C88   A    
C9    C91   S    
N26   N27   A    
C15   C32   A    
C96   H36   S    
N27   Ni2   S    
C5    H5    S    
N24   Ni6   S    
C16   C31   A    
C40   C46   A    
N15   Ni8   S    
C66   N26   A    
N25   Ni4   S    
C55   H15   S    
C11   C99   S    
C92   H32   S    
C68   N28   A    
C93   H33   S    
C19   C36   A    
N6    Ni6   S    
C32   C74   S    
N29   Ni8   S    
C67   I3    S    
C6    C78   A    
C91   H31   S    
N18   N19   A    
C52   H12   S    
C11   C95   S    
C62   N22   A    
C96   C99   S    
C4    H4    S    
C18   C33   A    
C44   F8    S    
C89   H29   S    
N2    Ni2   S    
C25   H49   S    
C10   C98   S    
C58   H18   S    
C20   C24   A    
N22   N23   A    
C38   C45   A    
C34   C80   S    
N30   N31   A    
C20   C35   A    
C90   C92   S    
C26   C34   A    
C14   H38   S    
C10   C89   S    
N20   Ni2   S    
N6    N15   A    
C19   H43   S    
C59   C82   A    
C51   N11   A    
C47   C83   S    
C64   N24   A    
C3    C75   A    
C93   C99   S    
C57   N17   A    
C2    C74   A    
C39   C45   A    
C10   C92   S    
C2    N2    A    
C100  H28   S    
C69   I5    S    
C68   C85   A    
C41   C43   A    
C13   C25   A    
C16   H40   S    
C42   C44   A    
C54   N14   A    
C50   H10   S    
C59   N19   A    
C8    H8    S    
N5    N16   A    
C3    N3    A    
C69   N29   A    
C66   I2    S    
C53   H13   S    
C92   C97   S    
C15   H39   S    
N4    Ni4   S    
N3    N10   A    
C56   H16   S    
C70   I6    S    
C4    C76   A    
N19   Ni1   S    
N1    N12   A    
C43   F7    S    
C60   N20   A    
C40   F4    S    
N2    N11   A    
C26   H50   S    
C53   C80   A    
C61   N21   A    
C72   N32   A    
C67   N27   A    
C97   H25   S    
C52   C73   A    
C24   H48   S    
C55   C78   A    
C95   C100  S    
C33   C79   S    
C99   H27   S    
C27   C35   A    
C64   H24   S    
C21   C29   A    
C35   C77   S    
C17   C21   A    
C56   C77   A    
C48   C84   S    
C89   C97   S    
N11   Ni4   S    
C13   H37   S    
C19   C23   A    
C24   C32   A    
C64   C83   A    
C66   C86   A    
N9    Ni2   S    
N7    Ni7   S    
C9    C86   S    
C72   I8    S    
C30   C76   S    
C60   C81   A    
C13   C30   A    
C15   C27   A    
C63   N23   A    
C94   C100  S    
C11   C88   S    
N25   N28   A    
C56   N16   A    
C95   H35   S    
N13   Ni6   S    
C6    H6    S    
C49   C76   A    
C68   I4    S    
N8    N13   A    
C14   C26   A    
C94   C96   S    
N16   Ni7   S    
C1    N1    A    
N17   Ni3   S    
C38   F2    S    
C52   N12   A    
C9    C97   S    
N26   Ni3   S    
C11   C94   S    
C53   N13   A    
C4    N4    A    
C31   C73   S    
N18   Ni4   S    
N4    N9    A    
C28   H52   S    
C5    N5    A    
C61   C83   A    
C91   C98   S    
N17   N20   A    
C57   C81   A    
C12   C93   S    
C89   C91   S    
N30   Ni7   S    
C14   C29   A    
C5    C77   A    
C8    N8    A    
N31   Ni6   S    
C1    H1    S    
C62   H22   S    
C72   C87   A    
C23   H47   S    
N23   Ni5   S    
C57   H17   S    
C54   C79   A    
N29   N32   A    
C3    H3    S    
C62   C84   A    
C67   C86   A    
C59   H19   S    
C42   F6    S    
C22   C30   A    
C12   C87   S    
C58   N18   A    
C18   C22   A    
C49   N9    A    
C45   C81   S    
C61   H21   S    
C27   H51   S    
C69   C87   A    
C9    C90   S    
C6    N6    A    
N10   Ni1   S    
C63   H23   S    
C71   I7    S    
C29   C75   S    
C18   H42   S    
C46   C82   S    
C65   N25   A    
C51   H11   S    
C94   H34   S    
N7    N14   A    
C63   C84   A    
N14   Ni5   S    
C1    C73   A    
C98   H26   S    
C58   C82   A    
C49   H9    S    
C37   C39   A    
N3    Ni3   S    
C50   C75   A    
C38   C40   A    
N1    Ni1   S    
C54   H14   S    
N21   N24   A    
C41   C48   A    
N21   Ni7   S    
C60   H20   S    
C7    H7    S    
C42   C47   A    
C65   I1    S    
C41   F5    S    
C17   H41   S    
N5    Ni5   S    
C12   C100  S    
C25   C33   A    
N28   Ni1   S    
N8    Ni8   S    
C71   C88   A    
C90   H30   S    
C70   N30   A    
C7    N7    A    
C7    C79   A    
C28   C36   A    
C93   C95   S    
C17   C34   A    
N22   Ni8   S    
C8    C80   A    
C2    H2    S    
N32   Ni5   S    
C12   C96   S    
C36   C78   S    
C37   C46   A    
C43   C47   A    
C90   C98   S    
C21   H45   S    
C44   C48   A    
C23   C31   A    
C71   N31   A    
