data_mof_unit_29069.cif
_audit_creation_date              2012-12-10T17:50:37-0500
_audit_creation_method            fapswitch 2.2
_symmetry_space_group_name_H-M    P1
_symmetry_Int_Tables_number       1
_space_group_crystal_system       triclinic
_cell_length_a                    15.684579
_cell_length_b                    10.765612
_cell_length_c                    9.900913
_cell_angle_alpha                 89.676055
_cell_angle_beta                  87.96395
_cell_angle_gamma                 90.83334
_cell_volume                      1670.54564398

loop_
_atom_site_label
_atom_site_type_symbol
_atom_type_description
_atom_site_fract_x
_atom_site_fract_y
_atom_site_fract_z
_atom_type_partial_charge
C1    C     C_R   0.507585 0.260884 0.501529 0.873868
C2    C     C_3   0.082903 0.498406 0.502295 0.134668
C3    C     C_3   0.966875 0.512167 0.623764 -0.148361
C4    C     C_3   0.917539 0.498153 0.493668 0.160692
C5    C     C_3   0.027234 0.606857 0.549123 -0.187808
C6    C     C_3   0.976042 0.593198 0.418921 -0.163132
C7    C     C_1   0.173702 0.498978 0.505868 -0.020816
C8    C     C_1   0.826632 0.498681 0.491773 -0.057082
C9    C     C_R   0.521913 0.115113 0.761383 -0.191364
C10   C     C_R   0.491251 0.054979 0.878006 -0.205843
C11   C     C_R   0.447278 0.942022 0.869121 0.009333
C12   C     C_R   0.338008 0.499915 0.501963 0.884707
C13   C     C_R   0.442860 0.884656 0.742330 -0.175151
C14   C     C_R   0.483994 0.938951 0.625120 0.069435
C15   C     C_R   0.509716 0.062995 0.632244 0.124246
C16   C     C_R   0.521226 0.129213 0.508730 -0.145647
C17   C     C_R   0.539610 0.066970 0.389040 -0.245916
C18   C     C_R   0.541614 0.939179 0.389324 -0.001224
C19   C     C_R   0.504660 0.874305 0.502920 -0.200291
C20   C     C_R   0.392713 0.331736 0.143522 -0.187767
C21   C     C_R   0.346288 0.245173 0.070611 -0.228752
C22   C     C_R   0.337183 0.262237 0.931683 -0.182231
C23   C     C_R   0.499256 0.740456 0.500312 0.901972
C24   C     C_R   0.365928 0.376452 0.875383 -0.118741
C25   C     C_R   0.438413 0.432133 0.932750 0.146811
C26   C     C_R   0.444026 0.422665 0.075698 0.154222
C27   C     C_R   0.556119 0.570435 0.067803 -0.086788
C28   C     C_R   0.557560 0.567919 0.924528 -0.063979
C29   C     C_R   0.662083 0.500181 0.497864 0.926117
C30   C     C_3   0.972981 0.389269 0.446723 -0.186357
C31   C     C_3   0.032936 0.484509 0.373543 0.188453
C32   C     C_1   0.249052 0.499498 0.505743 -0.135084
C33   C     C_1   0.751182 0.499410 0.493199 -0.163395
C34   C     C_3   0.024231 0.403684 0.576840 -0.153012
H1    H     H_    0.406158 0.799303 0.736785 0.214611
H2    H     H_    0.601901 0.627884 0.118468 0.174765
H3    H     H_    0.389217 0.321043 0.250440 0.221513
H4    H     H_    0.314863 0.168141 0.123759 0.227964
H5    H     H_    0.604382 0.623654 0.867703 0.140417
H6    H     H_    0.948761 0.300866 0.404223 0.146533
H7    H     H_    0.954304 0.670038 0.353917 0.149136
H8    H     H_    0.051563 0.695229 0.591540 0.158662
H9    H     H_    0.937442 0.523506 0.726524 0.146758
H10   H     H_    0.046178 0.326944 0.641799 0.180551
H11   H     H_    0.558169 0.118393 0.297851 0.196741
H12   H     H_    0.558126 0.199905 0.775159 0.179269
H13   H     H_    0.500699 0.098202 0.974992 0.203665
N1    N     N_R   0.499210 0.498800 0.142780 -0.118880
N2    N     N_R   0.499180 0.498720 0.857170 -0.102321
O1    O     O_R   0.500000 0.316780 0.614690 -0.649768
O2    O     O_R   0.499990 0.316750 0.385360 -0.643363
O3    O     O_R   0.376780 0.500000 0.614650 -0.607852
O4    O     O_R   0.376770 0.499980 0.385310 -0.636744
O5    O     O_R   0.500010 0.683250 0.614640 -0.617901
O6    O     O_R   0.500000 0.683220 0.385310 -0.589033
O7    O     O_R   0.623230 0.500020 0.614690 -0.631968
O8    O     O_R   0.623220 0.500000 0.385350 -0.595466
Zn1   Zn    Zn3+2 0.500010 0.500020 0.653130 0.963996
Zn2   Zn    Zn3+2 0.499990 0.499980 0.346870 0.968908
C35   C     C_3   0.074338 0.468900 0.232647 -0.408479
C36   C     C_3   0.007512 0.457778 0.125040 -0.826193
H14   H     H_    0.965381 0.375547 0.145680 0.256652
H15   H     H_    0.968172 0.542678 0.123107 0.253683
H16   H     H_    0.039762 0.446627 0.024246 0.271646
H17   H     H_    0.116636 0.550412 0.209158 0.218650
H18   H     H_    0.113879 0.384101 0.231624 0.221124
C37   C     C_2   0.410173 0.881803 0.993144 0.973894
O9    O     O_2   0.395762 0.943244 0.094746 -0.621714
O10   O     O_R   0.393444 0.754184 0.995618 -0.775311
H19   H     H_    0.369793 0.723709 0.086731 0.352183
C38   C     C_2   0.590095 0.880102 0.275799 0.938769
O11   O     O_2   0.641397 0.798830 0.298776 -0.649787
O12   O     O_R   0.582022 0.924010 0.143858 -0.819236
H20   H     H_    0.619248 0.877828 0.075686 0.327041
C39   C     C_2   0.286298 0.171760 0.852826 1.033792
O13   O     O_2   0.242818 0.092060 0.911814 -0.583993
O14   O     O_R   0.287922 0.173942 0.711364 -0.763884
H21   H     H_    0.329231 0.237515 0.669618 0.306673
C40   C     C_2   0.294817 0.461765 0.843507 0.955084
O15   O     O_2   0.224461 0.420262 0.816133 -0.654758
O16   O     O_R   0.307794 0.590379 0.846661 -0.752839
H22   H     H_    0.255052 0.638159 0.823076 0.341026

loop_
_geom_bond_atom_site_label_1
_geom_bond_atom_site_label_2
_ccdc_geom_bond_type
C27   N1    A    
C5    H8    S    
O6    Zn2   S    
O12   H20   S    
C2    C7    S    
C4    C8    S    
O16   H22   S    
O4    Zn2   S    
O14   H21   S    
C3    H9    S    
N1    Zn2   S    
C17   H11   S    
C13   H1    S    
O5    Zn1   S    
C5    C6    S    
O8    Zn2   S    
C15   C16   A    
C29   C33   S    
C18   C19   A    
C36   H15   S    
C21   H4    S    
C16   C17   A    
C6    H7    S    
C1    O1    A    
C12   O4    A    
C26   N1    A    
C2    C34   S    
C6    C31   S    
C35   H18   S    
C9    H12   S    
C21   C22   A    
C12   C32   S    
O10   H19   S    
C22   C39   S    
C12   O3    A    
C11   C37   S    
C30   C34   S    
C37   O9    D    
O1    Zn1   S    
C34   H10   S    
C24   C25   A    
C4    C6    S    
C40   O16   S    
C28   H5    S    
C25   C26   A    
N2    Zn1   S    
C35   C36   S    
C37   O10   S    
C31   C35   S    
C36   H16   S    
C19   C23   S    
C39   O13   D    
C39   O14   S    
C28   N2    A    
C24   C40   S    
C17   C18   A    
C30   H6    S    
C1    C16   S    
C1    O2    A    
O3    Zn1   S    
C29   O8    A    
C35   H17   S    
C22   C24   A    
C2    C5    S    
O2    Zn2   S    
C3    C4    S    
C10   H13   S    
C23   O5    A    
C38   O12   S    
C9    C10   A    
C18   C38   S    
C7    C32   T    
C14   C19   A    
C3    C5    S    
C23   O6    A    
C29   O7    A    
C27   H2    S    
C3    C34   S    
C9    C15   A    
C38   O11   D    
C20   H3    S    
C11   C13   A    
C30   C31   S    
C20   C26   A    
O7    Zn1   S    
C8    C33   T    
C36   H14   S    
C25   N2    A    
C10   C11   A    
C40   O15   D    
C20   C21   A    
C27   C28   A    
C14   C15   A    
C2    C31   S    
C13   C14   A    
C4    C30   S    
