data_mof_unit_34532.cif
_audit_creation_date              2012-12-10T18:05:49-0500
_audit_creation_method            fapswitch 2.2
_symmetry_space_group_name_H-M    P1
_symmetry_Int_Tables_number       1
_space_group_crystal_system       triclinic
_cell_length_a                    12.606867
_cell_length_b                    12.976367
_cell_length_c                    14.984446
_cell_angle_alpha                 91.304796
_cell_angle_beta                  102.460395
_cell_angle_gamma                 81.398446
_cell_volume                      2366.5486374

loop_
_atom_site_label
_atom_site_type_symbol
_atom_type_description
_atom_site_fract_x
_atom_site_fract_y
_atom_site_fract_z
_atom_type_partial_charge
C1    C     C_R   0.438176 0.691984 0.492521 0.884392
C2    C     C_R   0.569525 0.558033 0.828198 -0.238698
C3    C     C_R   0.501814 0.499107 0.768633 -0.055549
C4    C     C_R   0.500624 0.500207 0.672805 0.884340
C5    C     C_R   0.433926 0.439324 0.800173 -0.219149
C6    C     C_R   0.691173 0.068215 0.651721 -0.195948
C7    C     C_R   0.600812 0.197264 0.534464 -0.333167
C8    C     C_R   0.297741 0.841362 0.430376 -0.304404
C9    C     C_R   0.262771 0.948361 0.420229 -0.023017
C10   C     C_R   0.330948 0.018440 0.464422 0.489711
C11   C     C_R   0.437450 0.978909 0.516795 -0.014863
C12   C     C_R   0.435024 0.432366 0.078466 0.079798
C13   C     C_R   0.459849 0.873095 0.542452 0.033093
C14   C     C_R   0.523029 0.039562 0.544475 0.026987
C15   C     C_R   0.610298 0.005508 0.619324 0.012223
C16   C     C_R   0.562095 0.307828 0.512549 0.865161
C17   C     C_R   0.617567 0.907435 0.658445 -0.185840
C18   C     C_R   0.545352 0.840194 0.618252 -0.160499
C19   C     C_R   0.529701 0.127450 0.494502 0.356784
C20   C     C_R   0.686597 0.164795 0.611048 0.414055
C21   C     C_R   0.396503 0.803288 0.490937 -0.120992
C22   C     C_R   0.096728 0.331944 0.382811 -0.170938
C23   C     C_R   0.635876 0.617705 0.073597 0.013145
C24   C     C_R   0.800540 0.625494 0.613689 -0.113792
C25   C     C_R   0.909072 0.635234 0.652390 -0.107625
C26   C     C_R   0.993505 0.573420 0.620040 0.516511
C27   C     C_R   0.966621 0.513802 0.539013 -0.109864
C28   C     C_R   0.500340 0.496978 0.327197 0.868385
C29   C     C_R   0.856358 0.497781 0.509933 0.138454
C30   C     C_R   0.044046 0.466487 0.488239 -0.115176
C31   C     C_R   0.016880 0.385266 0.426219 0.042511
C32   C     C_R   0.909956 0.360570 0.406764 0.419640
C33   C     C_R   0.830039 0.420086 0.445943 -0.299573
C34   C     C_R   0.635749 0.617711 0.980678 -0.242993
C35   C     C_R   0.145615 0.500903 0.492965 0.514238
C36   C     C_R   0.200359 0.361580 0.398882 -0.029617
C37   C     C_R   0.438255 0.427216 0.171761 0.388134
C38   C     C_R   0.501477 0.491791 0.231181 -0.189424
C39   C     C_R   0.566293 0.554531 0.198976 -0.278579
C40   C     C_R   0.568680 0.556374 0.106847 0.062759
C41   C     C_R   0.501398 0.495708 0.046229 -0.031753
C42   C     C_1   0.156634 0.985884 0.363639 0.282105
C43   C     C_1   0.932957 0.701720 0.730359 0.257355
C44   C     C_1   0.706512 0.680569 0.132955 0.171520
C45   C     C_R   0.569215 0.558041 0.920656 0.106657
C46   C     C_R   0.501302 0.497257 0.953140 0.087857
C47   C     C_R   0.433679 0.437428 0.892312 0.127964
C48   C     C_R   0.367380 0.376200 0.924287 -0.235987
C49   C     C_R   0.368466 0.373122 0.016871 -0.133707
H1    H     H_    0.682933 0.880353 0.716391 0.144816
H2    H     H_    0.687634 0.664332 0.955071 0.155091
H3    H     H_    0.621033 0.604851 0.802358 0.148301
H4    H     H_    0.382396 0.393137 0.753117 0.156554
H5    H     H_    0.315337 0.330098 0.877775 0.159021
H6    H     H_    0.316857 0.324288 0.039839 0.208177
H7    H     H_    0.424438 0.328871 0.262346 0.331237
H8    H     H_    0.499024 0.193222 0.374267 0.319605
H9    H     H_    0.326840 0.157081 0.516039 0.338192
H10   H     H_    0.805534 0.274197 0.340240 0.331379
H11   H     H_    0.241044 0.591705 0.558513 0.383204
H12   H     H_    0.757596 0.042754 0.709423 0.181261
H13   H     H_    0.136439 0.492719 0.665806 0.325845
H14   H     H_    0.785744 0.260453 0.599289 0.354632
H15   H     H_    0.247668 0.787779 0.391429 0.199178
H16   H     H_    0.555579 0.763074 0.647767 0.138471
H17   H     H_    0.263480 0.319272 0.367743 0.213601
H18   H     H_    0.079819 0.267736 0.337088 0.228555
H19   H     H_    0.614115 0.603091 0.246417 0.193824
H20   H     H_    0.734800 0.667672 0.641810 0.147754
H21   H     H_    0.748302 0.402550 0.426771 0.202493
N1    N     N_R   0.222190 0.444670 0.452360 -0.167777
N2    N     N_R   0.776970 0.554790 0.547140 -0.108458
N3    N     N_1   0.071483 0.016100 0.318290 -0.156431
N4    N     N_1   0.952006 0.755129 0.792896 -0.188542
N5    N     N_1   0.763067 0.730849 0.180443 -0.172657
O1    O     O_R   0.366740 0.627160 0.477250 -0.614593
O2    O     O_3   0.467953 0.142867 0.406250 -0.721451
O3    O     O_3   0.287907 0.122977 0.461410 -0.750835
O4    O     O_3   0.884024 0.281299 0.346407 -0.756522
O5    O     O_3   0.162524 0.596227 0.530502 -0.732045
O6    O     O_3   0.097630 0.563067 0.675210 -0.728479
O7    O     O_3   0.764940 0.225523 0.649599 -0.734815
O8    O     O_R   0.544830 0.662520 0.507680 -0.606624
O9    O     O_R   0.410940 0.482340 0.616930 -0.651049
O10   O     O_R   0.589030 0.517700 0.647360 -0.613064
O11   O     O_R   0.455170 0.337480 0.492320 -0.596452
O12   O     O_R   0.633260 0.372840 0.522750 -0.625982
O13   O     O_R   0.410970 0.482300 0.352640 -0.586932
O14   O     O_R   0.589060 0.517660 0.383070 -0.630973
O15   O     O_3   0.381022 0.357631 0.202764 -0.762731
Zn1   Zn    Zn3+2 0.381090 0.476390 0.479680 0.964477
Zn2   Zn    Zn3+2 0.618910 0.523610 0.520320 0.948121

loop_
_geom_bond_atom_site_label_1
_geom_bond_atom_site_label_2
_ccdc_geom_bond_type
C1    C21   S    
C20   O7    S    
C27   C29   A    
C39   H19   S    
C25   C43   S    
C12   C49   A    
C10   O3    S    
C45   C46   A    
C18   H16   S    
C48   H5    S    
O8    Zn2   S    
C5    C47   A    
C34   H2    S    
C37   C38   A    
C30   C35   A    
C6    H12   S    
C5    H4    S    
O11   Zn1   S    
C30   C31   A    
N2    Zn2   S    
C11   C14   A    
C36   H17   S    
C23   C40   A    
C29   C33   A    
C35   O5    S    
C12   C37   A    
C19   O2    S    
C6    C15   A    
C47   C48   A    
C8    C9    A    
C28   O13   A    
C16   O12   A    
C41   C46   A    
C28   O14   A    
O9    Zn1   S    
C9    C10   A    
C36   N1    A    
C29   N2    A    
C43   N4    T    
H7    O15   S    
C35   N1    A    
O12   Zn2   S    
C27   C30   A    
C16   O11   A    
O10   Zn2   S    
C24   H20   S    
C8    C21   A    
C2    C45   A    
C22   C31   A    
H14   O7    S    
H8    O2    S    
C24   C25   A    
H10   O4    S    
C39   C40   A    
C4    O10   A    
C25   C26   A    
C49   H6    S    
C23   C44   S    
C44   N5    T    
C12   C41   A    
C31   C32   A    
C4    O9    A    
O13   Zn1   S    
C28   C38   S    
C23   C34   A    
C17   C18   A    
C9    C42   S    
C13   C21   A    
C34   C45   A    
O14   Zn2   S    
C2    H3    S    
C33   H21   S    
C8    H15   S    
C13   C18   A    
C48   C49   A    
H13   O6    S    
C26   O6    S    
C7    C19   A    
C26   C27   A    
C3    C4    S    
C6    C20   A    
C24   N2    A    
C15   C17   A    
C46   C47   A    
H11   O5    S    
C42   N3    T    
C37   O15   S    
C1    O1    A    
C14   C19   A    
C7    C16   S    
C3    C5    A    
C17   H1    S    
C1    O8    A    
C22   C36   A    
C32   C33   A    
C2    C3    A    
C32   O4    S    
C11   C13   A    
C38   C39   A    
C22   H18   S    
C10   C11   A    
H9    O3    S    
O1    Zn1   S    
N1    Zn1   S    
C7    C20   A    
C14   C15   A    
C40   C41   A    
