data_mof_unit_47180.cif
_audit_creation_date              2012-12-11T15:34:33-0500
_audit_creation_method            fapswitch 2.2
_symmetry_space_group_name_H-M    P1
_symmetry_Int_Tables_number       1
_space_group_crystal_system       triclinic
_cell_length_a                    15.048675
_cell_length_b                    15.058289
_cell_length_c                    34.9267
_cell_angle_alpha                 90.476744
_cell_angle_beta                  89.968457
_cell_angle_gamma                 60.066085
_cell_volume                      6858.50510531

loop_
_atom_site_label
_atom_site_type_symbol
_atom_type_description
_atom_site_fract_x
_atom_site_fract_y
_atom_site_fract_z
_atom_type_partial_charge
C1    C     C_R   0.302447 0.608257 0.555763 0.551455
C2    C     C_R   0.222713 0.719172 0.389006 -0.084770
C3    C     C_R   0.747680 0.141622 0.266390 -0.182212
C4    C     C_R   0.754885 0.133692 0.226661 -0.132898
C5    C     C_R   0.672061 0.201504 0.203895 -0.029784
C6    C     C_R   0.726614 0.219003 0.348683 -0.111159
C7    C     C_R   0.714106 0.233283 0.388444 0.137608
C8    C     C_R   0.546699 0.246306 0.382827 -0.155486
C9    C     C_R   0.740717 0.584753 0.647455 -0.113730
C10   C     C_R   0.560859 0.230516 0.343522 -0.076621
C11   C     C_R   0.648551 0.221720 0.326012 0.037954
C12   C     C_R   0.620007 0.253789 0.405470 0.041866
C13   C     C_R   0.199520 0.726694 0.349972 0.175606
C14   C     C_R   0.086892 0.705224 0.093466 -0.008557
C15   C     C_R   0.081124 0.626447 0.112594 -0.180667
C16   C     C_R   0.115209 0.601969 0.149934 -0.190668
C17   C     C_R   0.156381 0.655117 0.168896 0.017763
C18   C     C_R   0.171397 0.727432 0.149115 0.379502
C19   C     C_R   0.137982 0.752184 0.111142 0.156488
C20   C     C_R   0.264184 0.624192 0.226877 -0.009727
C21   C     C_3   0.132141 0.918767 0.885063 -0.306013
C22   C     C_3   0.176413 0.468222 0.938470 -0.274631
C23   C     C_3   0.434571 0.960835 0.100640 -0.261873
C24   C     C_R   0.198255 0.643615 0.331437 0.074741
C25   C     C_3   0.849669 0.142206 0.433946 -0.291230
C26   C     C_3   0.236257 0.784320 0.064450 -0.286346
C27   C     C_3   0.260362 0.839502 0.327297 -0.283670
C28   C     C_R   0.566761 0.727920 0.649321 -0.096303
C29   C     C_R   0.247863 0.629272 0.409072 -0.009474
C30   C     C_R   0.736112 0.025227 0.943161 0.563093
C31   C     C_R   0.746020 0.722919 0.945016 0.538274
C32   C     C_R   0.039248 0.733451 0.948273 0.547802
C33   C     C_R   0.722973 0.038898 0.052864 0.565833
C34   C     C_R   0.732730 0.733989 0.054553 0.540079
C35   C     C_R   0.659042 0.663478 0.668227 0.042229
C36   C     C_R   0.028557 0.744083 0.057668 0.552429
C37   C     C_R   0.553460 0.708309 0.611288 -0.123293
C38   C     C_R   0.675760 0.676817 0.787544 0.345879
C39   C     C_R   0.667061 0.671653 0.710019 0.362293
C40   C     C_R   0.764991 0.600780 0.848943 -0.121582
C41   C     C_R   0.780729 0.610860 0.887640 -0.126835
C42   C     C_R   0.628469 0.779012 0.888937 -0.126064
C43   C     C_R   0.612572 0.768783 0.850215 -0.116665
C44   C     C_R   0.683084 0.681314 0.829515 0.032137
C45   C     C_R   0.610796 0.588539 0.555180 0.545603
C46   C     C_R   0.273861 0.622017 0.266562 0.425101
C47   C     C_R   0.715061 0.701862 0.907584 0.018360
C48   C     C_R   0.724572 0.070583 0.904832 0.026588
C49   C     C_R   0.634453 0.101483 0.883494 0.377081
C50   C     C_R   0.633597 0.118931 0.844358 -0.077977
C51   C     C_R   0.721462 0.107565 0.825939 -0.027421
C52   C     C_R   0.808317 0.085593 0.847567 -0.139183
C53   C     C_R   0.810007 0.066962 0.886728 -0.186489
C54   C     C_R   0.752213 0.178190 0.766170 -0.113857
C55   C     C_R   0.744922 0.189716 0.726497 -0.147658
C56   C     C_R   0.709706 0.135673 0.704019 0.050488
C57   C     C_R   0.190222 0.640369 0.289871 0.024329
C58   C     C_R   0.590430 0.300215 0.553522 0.543581
C59   C     C_R   0.686764 0.065946 0.721762 0.414668
C60   C     C_R   0.692914 0.055588 0.761443 -0.056084
C61   C     C_R   0.723282 0.113378 0.783936 -0.027994
C62   C     C_R   0.592448 0.180997 0.648077 -0.050003
C63   C     C_R   0.563718 0.220034 0.611309 -0.118847
C64   C     C_R   0.726223 0.214691 0.603109 -0.125875
C65   C     C_R   0.755215 0.174960 0.639851 -0.109643
C66   C     C_R   0.687363 0.160529 0.663049 0.066555
C67   C     C_R   0.628860 0.240571 0.588966 0.016217
C68   C     C_R   0.098649 0.656781 0.273502 -0.194557
C69   C     C_R   0.094131 0.695725 0.910796 0.039962
C70   C     C_R   0.300242 0.610278 0.446076 0.548115
C71   C     C_R   0.119510 0.759587 0.888963 0.114980
C72   C     C_R   0.134333 0.742830 0.849220 -0.092726
C73   C     C_R   0.129354 0.662120 0.831411 -0.019612
C74   C     C_R   0.118644 0.591394 0.853570 -0.109125
C75   C     C_R   0.102433 0.606273 0.893168 0.110973
C76   C     C_R   0.208013 0.562910 0.771273 -0.087237
C77   C     C_R   0.218523 0.558657 0.731480 0.329898
C78   C     C_R   0.154186 0.644786 0.709284 0.061669
C79   C     C_R   0.089150 0.658630 0.233895 -0.144455
C80   C     C_R   0.076557 0.733387 0.727423 0.403146
C81   C     C_R   0.067447 0.737727 0.767212 -0.089274
C82   C     C_R   0.607791 0.589699 0.445213 0.544841
C83   C     C_R   0.134383 0.653341 0.789374 -0.091788
C84   C     C_R   0.195263 0.719649 0.653106 0.432438
C85   C     C_R   0.229696 0.711433 0.615489 -0.091079
C86   C     C_R   0.220255 0.556620 0.606509 -0.148247
C87   C     C_R   0.184754 0.565310 0.644055 -0.122790
C88   C     C_R   0.174931 0.645066 0.667978 0.100023
C89   C     C_R   0.246023 0.627945 0.592272 -0.042344
C90   C     C_R   0.171287 0.643916 0.210407 0.000002
C91   C     C_R   0.689899 0.715881 0.090044 0.024885
C92   C     C_R   0.593274 0.789830 0.105617 0.138657
C93   C     C_R   0.569056 0.777438 0.143570 -0.083801
C94   C     C_R   0.588154 0.302538 0.443736 0.554490
C95   C     C_R   0.637354 0.692633 0.165207 0.002678
C96   C     C_R   0.727629 0.616033 0.148188 -0.136548
C97   C     C_R   0.753494 0.627424 0.111156 -0.154409
C98   C     C_R   0.641989 0.594475 0.223184 -0.098052
C99   C     C_R   0.641271 0.585994 0.262849 -0.076043
C100  C     C_R   0.618710 0.670552 0.286563 0.034914
C101  C     C_R   0.213981 0.558110 0.352275 -0.116932
C102  C     C_R   0.591713 0.765145 0.269923 -0.116660
C103  C     C_R   0.592535 0.773623 0.230187 -0.107275
C104  C     C_R   0.620073 0.687697 0.206544 0.033361
C105  C     C_R   0.545949 0.731672 0.352119 -0.107725
C106  C     C_R   0.632266 0.623976 0.591592 0.019982
C107  C     C_R   0.544972 0.713400 0.391165 -0.121972
C108  C     C_R   0.705719 0.553812 0.384085 -0.116907
C109  C     C_R   0.706280 0.571877 0.345058 -0.117692
C110  C     C_R   0.624473 0.658959 0.328529 0.042660
C111  C     C_R   0.622831 0.622259 0.407220 0.024186
C112  C     C_R   0.238888 0.550732 0.390852 -0.135000
C113  C     C_R   0.699586 0.102526 0.087824 0.028749
C114  C     C_R   0.777161 0.115925 0.104549 -0.185510
C115  C     C_R   0.765306 0.155495 0.141521 -0.140990
C116  C     C_R   0.675511 0.182958 0.162335 -0.025748
C117  C     C_R   0.594037 0.179091 0.144445 -0.082255
C118  C     C_R   0.727456 0.565190 0.609480 -0.126496
C119  C     C_R   0.605624 0.139253 0.107422 0.377985
C120  C     C_R   0.583244 0.279770 0.221430 -0.081093
C121  C     C_R   0.575989 0.288140 0.261238 0.393096
C122  C     C_R   0.657547 0.217406 0.283997 0.028229
Cr1   Cr    Cr6+3 0.421670 0.426920 0.499620 1.017456
Cr2   Cr    Cr6+3 0.427030 0.651190 0.500980 1.018638
Cr3   Cr    Cr6+3 0.651280 0.421870 0.499380 1.032946
Cr4   Cr    Cr6+3 0.910810 0.908010 0.001130 1.023261
Cr5   Cr    Cr6+3 0.682800 0.909890 0.998370 1.090294
Cr6   Cr    Cr6+3 0.908370 0.682300 0.002180 1.021978
F1    F     F_    0.657235 0.008840 0.700818 -0.620905
F2    F     F_    0.295398 0.472594 0.714906 -0.636493
F3    F     F_    0.010952 0.816297 0.706686 -0.578013
F4    F     F_    0.189515 0.796056 0.675775 -0.592067
F5    F     F_    0.527376 0.130686 0.092049 -0.630692
F6    F     F_    0.489515 0.365246 0.277478 -0.610425
F7    F     F_    0.364319 0.602349 0.282267 -0.602748
F8    F     F_    0.212991 0.778049 0.167354 -0.663399
F9    F     F_    0.548827 0.109403 0.899792 -0.623999
H1    H     H_    0.790011 0.500387 0.594872 0.133528
H2    H     H_    0.876651 0.077183 0.833794 0.127038
H3    H     H_    0.479357 0.755358 0.598162 0.137368
H4    H     H_    0.778282 0.229252 0.586461 0.129700
H5    H     H_    0.168831 0.507506 0.654949 0.159604
H6    H     H_    0.260241 0.497280 0.788070 0.155086
H7    H     H_    0.149421 0.792527 0.831543 0.130476
H8    H     H_    0.008902 0.807497 0.780854 0.149666
H9    H     H_    0.847877 0.549804 0.901257 0.134860
H10   H     H_    0.249569 0.767166 0.605403 0.153415
H11   H     H_    0.119212 0.526306 0.839834 0.118778
H12   H     H_    0.880430 0.043628 0.902260 0.154170
H13   H     H_    0.231810 0.491605 0.589235 0.141580
H14   H     H_    0.826918 0.568914 0.099933 0.137026
H15   H     H_    0.768977 0.515919 0.327506 0.098640
H16   H     H_    0.659519 0.512930 0.275043 0.135048
H17   H     H_    0.662019 0.527579 0.205503 0.111703
H18   H     H_    0.497742 0.833642 0.156836 0.116732
H19   H     H_    0.573952 0.831369 0.287652 0.101664
H20   H     H_    0.813443 0.534870 0.661022 0.138766
H21   H     H_    0.576568 0.846030 0.218033 0.106824
H22   H     H_    0.482382 0.799694 0.340026 0.095718
H23   H     H_    0.829131 0.158983 0.650681 0.131339
H24   H     H_    0.480001 0.767643 0.408241 0.121138
H25   H     H_    0.781700 0.549944 0.164363 0.111528
H26   H     H_    0.766928 0.483002 0.395553 0.132299
H27   H     H_    0.849752 0.090043 0.090043 0.147566
H28   H     H_    0.501367 0.229032 0.326552 0.151780
H29   H     H_    0.519067 0.333434 0.204297 0.130791
H30   H     H_    0.502766 0.789962 0.664441 0.158278
H31   H     H_    0.828393 0.159646 0.154615 0.128277
H32   H     H_    0.811194 0.086383 0.283395 0.118769
H33   H     H_    0.823562 0.071594 0.213767 0.133616
H34   H     H_    0.762243 0.244522 0.713593 0.126280
H35   H     H_    0.795977 0.209248 0.335316 0.098119
H36   H     H_    0.523975 0.200048 0.160067 0.128574
H37   H     H_    0.474735 0.259743 0.394975 0.132751
H38   H     H_    0.044124 0.587756 0.099658 0.151035
H39   H     H_    0.819707 0.531607 0.833925 0.134455
H40   H     H_    0.328539 0.611280 0.209032 0.168665
H41   H     H_    0.104489 0.545078 0.164790 0.130142
H42   H     H_    0.034124 0.670394 0.291391 0.120916
H43   H     H_    0.016672 0.674608 0.221546 0.128015
H44   H     H_    0.212767 0.494439 0.338094 0.124666
H45   H     H_    0.776115 0.223098 0.783117 0.132142
H46   H     H_    0.257369 0.480769 0.405703 0.132338
H47   H     H_    0.225973 0.781663 0.403212 0.132940
H48   H     H_    0.576239 0.849906 0.903612 0.155828
H49   H     H_    0.548013 0.831665 0.836135 0.146707
H50   H     H_    0.174898 0.817529 0.931253 0.256189
H51   H     H_    0.126411 0.980085 0.904536 0.144539
H52   H     H_    0.066377 0.953868 0.865010 0.148202
H53   H     H_    0.205861 0.886083 0.869095 0.146976
H54   H     H_    0.064487 0.491972 0.898843 0.241665
H55   H     H_    0.157990 0.417828 0.955716 0.144880
H56   H     H_    0.565038 0.138413 0.828105 0.142510
H57   H     H_    0.194143 0.515012 0.958453 0.150249
H58   H     H_    0.244847 0.419530 0.920374 0.154350
H59   H     H_    0.509106 0.854823 0.056215 0.246795
H60   H     H_    0.396702 0.023402 0.079520 0.180925
H61   H     H_    0.458555 0.990796 0.125341 0.185241
H62   H     H_    0.378476 0.937723 0.109951 0.121751
H63   H     H_    0.842423 0.249304 0.395362 0.237278
H64   H     H_    0.906552 0.150221 0.451671 0.137962
H65   H     H_    0.890911 0.072773 0.415463 0.134948
H66   H     H_    0.796637 0.132903 0.453473 0.153317
H67   H     H_    0.672853 0.003154 0.774743 0.144299
H68   H     H_    0.152913 0.881972 0.109115 0.289850
H69   H     H_    0.310181 0.738461 0.079637 0.155282
H70   H     H_    0.238403 0.847425 0.049036 0.135738
H71   H     H_    0.226434 0.735014 0.043005 0.149352
H72   H     H_    0.138242 0.829031 0.304470 0.257187
H73   H     H_    0.233957 0.912576 0.311866 0.136555
H74   H     H_    0.326064 0.777325 0.311316 0.215438
H75   H     H_    0.285954 0.848030 0.356200 0.133732
H76   H     H_    0.537736 0.172604 0.665588 0.175359
H77   H     H_    0.488024 0.239644 0.601316 0.139358
N1    N     N_R   0.753210 0.600519 0.767041 -0.231361
N2    N     N_2   0.177096 0.817714 0.329888 -0.524716
N3    N     N_R   0.748795 0.597814 0.729079 -0.230770
N4    N     N_R   0.589665 0.748288 0.730493 -0.197811
N5    N     N_R   0.594202 0.751139 0.768505 -0.215717
N6    N     N_2   0.128565 0.840050 0.907405 -0.495056
N7    N     N_2   0.089793 0.533223 0.914617 -0.489583
N8    N     N_2   0.522965 0.874834 0.082942 -0.479276
N9    N     N_2   0.794079 0.232293 0.410577 -0.491859
N10   N     N_2   0.152074 0.826934 0.091586 -0.479596
O1    O     O_R   0.502070 0.323090 0.541280 -0.517069
O2    O     O_R   0.831550 0.656950 0.958960 -0.507455
O3    O     O_R   0.998590 0.685540 0.963930 -0.464369
O4    O     O_R   0.338340 0.520690 0.539540 -0.496387
O5    O     O_R   0.008220 0.831200 0.045060 -0.480274
O6    O     O_R   0.813270 0.997930 0.038810 -0.522447
O7    O     O_R   0.657500 0.016560 0.039940 -0.424868
O8    O     O_R   0.685680 0.820940 0.038120 -0.475547
O9    O     O_R   0.822130 0.666070 0.043610 -0.528927
O10   O     O_R   0.989860 0.694000 0.042400 -0.513569
O11   O     O_3   0.833990 0.833400 0.000560 -0.259461
O12   O     O_R   0.520720 0.641670 0.461580 -0.502526
O13   O     O_R   0.324760 0.674070 0.543580 -0.519251
O14   O     O_R   0.522400 0.640310 0.540110 -0.502727
O15   O     O_R   0.675940 0.500630 0.542210 -0.518788
O16   O     O_R   0.641790 0.337020 0.538150 -0.504491
O17   O     O_R   0.500260 0.324550 0.456580 -0.530402
O18   O     O_R   0.336660 0.522040 0.461020 -0.500149
O19   O     O_R   0.322940 0.675540 0.458880 -0.521465
O20   O     O_R   0.674120 0.502090 0.457500 -0.508744
O21   O     O_R   0.640110 0.338380 0.459630 -0.459612
O22   O     O_3   0.499990 0.499990 0.499990 -0.240793
O23   O     O_R   0.017640 0.822070 0.960410 -0.502271
O24   O     O_R   0.822000 0.989470 0.960340 -0.518194
O25   O     O_R   0.666920 0.007430 0.955290 -0.436350
O26   O     O_R   0.694410 0.812480 0.959650 -0.506123

loop_
_geom_bond_atom_site_label_1
_geom_bond_atom_site_label_2
_ccdc_geom_bond_type
C87   C88   A    
C98   H17   S    
C100  C110  S    
C82   O12   A    
C73   C74   A    
C29   C112  A    
Cr3   O21   S    
C95   C96   A    
C51   C61   S    
Cr1   O17   S    
C38   N1    A    
C55   C56   A    
C49   C50   A    
C36   O5    A    
C114  C115  A    
C21   H53   S    
C120  H29   S    
C6    H35   S    
C77   C78   A    
C108  C109  A    
C101  C112  A    
C105  C107  A    
C23   H61   S    
C119  F5    S    
C4    H33   S    
C32   O3    A    
C2    C29   A    
C13   N2    S    
C30   C48   S    
Cr4   O6    S    
C94   O17   A    
C113  C114  A    
C25   H64   S    
C117  C119  A    
C14   C36   S    
C50   H56   S    
C8    H37   S    
C26   H71   S    
C64   H4    S    
C36   O10   A    
C115  C116  A    
C23   H62   S    
C52   H2    S    
C7    N9    S    
C116  C117  A    
Cr3   O20   S    
C18   C19   A    
C49   F9    S    
C69   C71   A    
C2    C13   A    
C34   C91   S    
C27   H75   S    
C79   C90   A    
Cr5   O8    S    
C39   N4    A    
C28   H30   S    
C46   F7    S    
C45   O14   A    
C21   H52   S    
C84   C85   A    
C60   H67   S    
C59   F1    S    
C41   H9    S    
C26   H70   S    
C28   C35   A    
C16   C17   A    
C37   H3    S    
C20   H40   S    
C54   H45   S    
C18   F8    S    
C121  F6    S    
C21   N6    S    
H54   N7    S    
Cr5   O7    S    
Cr3   O15   S    
C3    C122  A    
C72   C73   A    
C33   C113  S    
C68   C79   A    
C59   C60   A    
C93   C95   A    
C80   F3    S    
C31   C47   S    
C106  C118  A    
C53   H12   S    
C9    C118  A    
C12   C94   S    
Cr3   O22   S    
C26   H69   S    
C65   H23   S    
C58   O16   A    
C14   C19   A    
C76   C83   A    
C55   H34   S    
C81   C83   A    
C16   H41   S    
C50   C51   A    
C112  H46   S    
H50   N6    S    
Cr6   O10   S    
C7    C12   A    
C108  H26   S    
C63   C67   A    
C98   C104  A    
H72   N2    S    
C85   H10   S    
C74   C75   A    
C62   C66   A    
C5    C120  A    
Cr4   O24   S    
C51   C52   A    
C64   C67   A    
C107  H24   S    
C93   H18   S    
C109  H15   S    
C76   C77   A    
C25   H65   S    
C91   C92   A    
C40   H39   S    
C85   C89   A    
C86   C87   A    
C3    H32   S    
C2    H47   S    
Cr1   O4    S    
C32   O23   A    
C43   H49   S    
C1    O13   A    
C20   C90   A    
C84   F4    S    
C27   H73   S    
C71   N6    S    
C31   O26   A    
C60   C61   A    
Cr5   O25   S    
C35   C39   S    
C43   C44   A    
C45   O15   A    
C38   C44   S    
C62   C63   A    
C10   H28   S    
C70   O19   A    
Cr2   O14   S    
C114  H27   S    
C99   C100  A    
C23   N8    S    
C9    H20   S    
C8    C12   A    
C96   C97   A    
Cr4   O5    S    
C27   H74   S    
C17   C18   A    
C41   C47   A    
C82   O20   A    
C92   N8    S    
C103  H21   S    
C113  C119  A    
C91   C97   A    
Cr2   O19   S    
Cr4   O11   S    
C58   O1    A    
C75   N7    S    
C121  C122  A    
C32   C69   S    
Cr3   O16   S    
C30   O24   A    
C1    O4    A    
C8    C10   A    
C48   C49   A    
C100  C102  A    
C65   C66   A    
C81   H8    S    
C5    C116  S    
C26   N10   S    
C45   C106  S    
C62   H76   S    
C22   H58   S    
C20   C46   A    
C11   C122  S    
C42   C43   A    
C57   C68   A    
C22   H55   S    
C3    C4    A    
C102  H19   S    
C6    C11   A    
C101  H44   S    
C52   C53   A    
C42   H48   S    
C21   H51   S    
C29   C70   S    
C24   C57   S    
C117  H36   S    
Cr6   O9    S    
C72   H7    S    
C23   H60   S    
C54   C55   A    
C78   C88   S    
C1    C89   S    
H68   N10   S    
Cr4   O23   S    
C14   C15   A    
H63   N9    S    
C107  C111  A    
C38   N5    A    
C39   N3    A    
C34   O8    A    
C17   C90   S    
C84   C88   A    
C80   C81   A    
C25   H66   S    
C86   C89   A    
Cr1   O22   S    
C56   C59   A    
C19   N10   S    
C6    C7    A    
Cr1   O1    S    
C54   C61   A    
C48   C53   A    
C74   H11   S    
C68   H42   S    
Cr5   O11   S    
C105  C110  A    
C108  C111  A    
C15   H38   S    
C63   H77   S    
C24   C101  A    
Cr5   O26   S    
C82   C111  S    
C86   H13   S    
C25   N9    S    
C79   H43   S    
C37   C106  A    
C46   C57   A    
C118  H1    S    
C109  C110  A    
C64   C65   A    
C95   C104  S    
Cr2   O13   S    
C30   O25   A    
N4    N5    A    
C27   N2    S    
C28   C37   A    
Cr6   O11   S    
Cr6   O3    S    
C56   C66   S    
C4    C5    A    
C99   H16   S    
C70   O18   A    
C92   C93   A    
C96   H25   S    
C69   C75   A    
C78   C80   A    
C42   C47   A    
Cr1   O18   S    
C87   H5    S    
Cr2   O22   S    
C102  C103  A    
C94   O21   A    
H59   N8    S    
N1    N3    A    
C10   C11   A    
C105  H22   S    
Cr2   O12   S    
C76   H6    S    
C58   C67   S    
C40   C44   A    
C71   C72   A    
C13   C24   A    
Cr6   O2    S    
C98   C99   A    
C31   O2    A    
C103  C104  A    
C9    C35   A    
C77   F2    S    
C120  C121  A    
C22   H57   S    
C40   C41   A    
C115  H31   S    
C33   O7    A    
C34   O9    A    
C73   C83   S    
C97   H14   S    
C22   N7    S    
C15   C16   A    
C33   O6    A    
