data_mof_unit_47670.cif
_audit_creation_date              2013-03-05T15:44:39-0500
_audit_creation_method            fapswitch 2.2
_symmetry_space_group_name_H-M    P1
_symmetry_Int_Tables_number       1
_space_group_crystal_system       triclinic
_cell_length_a                    24.874205
_cell_length_b                    7.176278
_cell_length_c                    14.451974
_cell_angle_alpha                 90.691953
_cell_angle_beta                  102.77598
_cell_angle_gamma                 91.467615
_cell_volume                      2514.62769837

loop_
_atom_site_label
_atom_site_type_symbol
_atom_site_description
_atom_site_fract_x
_atom_site_fract_y
_atom_site_fract_z
_atom_type_partial_charge
O1    O     O_R   0.319150 0.364170 0.330530 -0.589677
O2    O     O_R   0.680850 0.635830 0.669470 -0.589677
O3    O     O_R   0.180850 0.864170 0.169470 -0.610272
O4    O     O_R   0.819150 0.135830 0.830530 -0.610254
O5    O     O_R   0.210330 0.696850 0.354180 -0.590719
O6    O     O_R   0.789670 0.303150 0.645820 -0.590719
O7    O     O_R   0.289670 0.196850 0.145820 -0.576673
O8    O     O_R   0.710330 0.803150 0.854180 -0.576677
C1    C     C_R   0.197630 0.525118 0.378689 1.013582
C2    C     C_R   0.802371 0.474882 0.621311 1.013578
C3    C     C_R   0.302460 0.025413 0.121506 1.007374
C4    C     C_R   0.697537 0.974587 0.878490 1.007194
O9    O     O_R   0.320550 0.694110 0.341970 -0.608227
O10   O     O_R   0.679450 0.305890 0.658030 -0.608226
O11   O     O_R   0.179450 0.194110 0.158030 -0.584931
O12   O     O_R   0.820550 0.805890 0.841970 -0.584959
O13   O     O_R   0.291860 0.861000 0.157170 -0.594645
O14   O     O_R   0.708140 0.139000 0.842830 -0.594642
O15   O     O_R   0.208140 0.361000 0.342830 -0.583402
O16   O     O_R   0.791860 0.639000 0.657170 -0.583399
C5    C     C_R   0.342105 0.528962 0.362246 0.990121
C6    C     C_R   0.657895 0.471038 0.637754 0.990120
C7    C     C_R   0.158173 0.022048 0.137660 0.985510
C8    C     C_R   0.841826 0.977952 0.862343 0.985380
O17   O     O_3   0.240460 0.529330 0.189380 -0.286747
O18   O     O_3   0.759540 0.470670 0.810620 -0.286725
O19   O     O_3   0.259540 0.029330 0.310620 -0.283890
O20   O     O_3   0.740460 0.970670 0.689380 -0.283884
V1    V     V_3+5 0.251770 0.805510 0.261240 1.202805
V2    V     V_3+5 0.748230 0.194490 0.738760 1.202826
V3    V     V_3+5 0.248230 0.305510 0.238760 1.217898
V4    V     V_3+5 0.751770 0.694490 0.761240 1.217907
C9    C     C_R   0.102705 0.998085 0.074332 -0.108001
C10   C     C_R   0.897294 0.001915 0.925672 -0.108037
C11   C     C_R   0.398077 0.534964 0.425332 -0.112716
C12   C     C_R   0.601923 0.465036 0.574667 -0.112711
C13   C     C_R   0.963678 0.202660 0.034874 -0.233144
C14   C     C_R   0.036320 0.797340 0.965131 -0.233148
C15   C     C_R   0.531436 0.292750 0.458193 -0.232260
C16   C     C_R   0.468564 0.707250 0.541806 -0.232228
C17   C     C_R   0.909952 0.163358 0.983693 -0.087295
C18   C     C_R   0.090046 0.836642 0.016311 -0.087316
C19   C     C_R   0.585638 0.313326 0.510890 -0.089896
C20   C     C_R   0.414362 0.686674 0.489109 -0.089891
C21   C     C_R   0.939416 0.877772 0.921131 -0.286984
C22   C     C_R   0.060583 0.122228 0.078873 -0.287015
C23   C     C_R   0.562860 0.598403 0.583512 -0.282308
C24   C     C_R   0.437140 0.401597 0.416487 -0.282320
C25   C     C_R   0.993838 0.917830 0.971505 0.211790
C26   C     C_R   0.006160 0.082170 0.028499 0.211793
C27   C     C_R   0.507971 0.577291 0.531445 0.211252
C28   C     C_R   0.492029 0.422710 0.468555 0.211253
H1    H     H_    0.069676 0.245561 0.124364 0.130031
H2    H     H_    0.930323 0.754439 0.875640 0.130037
H3    H     H_    0.425380 0.285384 0.366821 0.131369
H4    H     H_    0.574620 0.714616 0.633178 0.131365
H5    H     H_    0.121817 0.738709 0.011581 0.157560
H6    H     H_    0.878181 0.261290 0.988423 0.157620
H7    H     H_    0.385116 0.791365 0.497593 0.158516
H8    H     H_    0.614884 0.208635 0.502407 0.158518
H9    H     H_    0.972094 0.328580 0.078465 0.130543
H10   H     H_    0.027905 0.671419 0.921539 0.130536
H11   H     H_    0.520238 0.173993 0.410069 0.128401
H12   H     H_    0.479763 0.826008 0.589931 0.128391
C29   C     C_R   0.666134 0.984115 0.952955 -0.252730
C30   C     C_R   0.333859 0.015909 0.047032 -0.252798
C31   C     C_R   0.833684 0.482119 0.546668 -0.255317
C32   C     C_R   0.166317 0.517885 0.453334 -0.255315
C33   C     C_R   0.658962 0.050339 0.114136 -0.233743
C34   C     C_R   0.341033 0.950174 0.885816 -0.233675
C35   C     C_R   0.841724 0.428893 0.384847 -0.234135
C36   C     C_R   0.158277 0.571142 0.615153 -0.234034
C37   C     C_R   0.691992 0.024145 0.048450 0.350970
C38   C     C_R   0.307998 0.976247 0.951506 0.350855
C39   C     C_R   0.808376 0.443879 0.450779 0.354401
C40   C     C_R   0.191625 0.556143 0.549221 0.354407
C41   C     C_R   0.608566 0.968957 0.925180 -0.284499
C42   C     C_R   0.391429 0.030890 0.074818 -0.284569
C43   C     C_R   0.890983 0.507654 0.574593 -0.285081
C44   C     C_R   0.109018 0.492346 0.425409 -0.285080
C45   C     C_R   0.574734 0.995304 0.990863 0.129565
C46   C     C_R   0.425261 0.004814 0.009118 0.129607
C47   C     C_R   0.925175 0.491765 0.508792 0.129171
C48   C     C_R   0.074826 0.508253 0.491209 0.129157
C49   C     C_R   0.601251 0.037180 0.086379 0.103147
C50   C     C_R   0.398743 0.963179 0.913586 0.103130
C51   C     C_R   0.899256 0.450902 0.412878 0.103861
C52   C     C_R   0.100744 0.549128 0.587122 0.103868
C53   C     C_R   0.515685 0.984146 0.964767 0.072694
C54   C     C_R   0.484309 0.016024 0.035210 0.072689
C55   C     C_R   0.984072 0.511408 0.535239 0.072707
C56   C     C_R   0.015929 0.488615 0.464761 0.072722
C57   C     C_R   0.513038 0.057942 0.129282 -0.208466
C58   C     C_R   0.486957 0.942414 0.870682 -0.208465
C59   C     C_R   0.987813 0.447334 0.370271 -0.207783
C60   C     C_R   0.012188 0.552701 0.629729 -0.207771
C61   C     C_R   0.570164 0.067428 0.154017 -0.158660
C62   C     C_R   0.429830 0.933054 0.845939 -0.158669
C63   C     C_R   0.930798 0.429967 0.345173 -0.157616
C64   C     C_R   0.069203 0.570074 0.654827 -0.157589
H13   H     H_    0.590255 0.100155 0.227159 0.156653
H14   H     H_    0.409739 0.900531 0.772782 0.156631
H15   H     H_    0.911182 0.398026 0.271734 0.154896
H16   H     H_    0.088818 0.602025 0.728265 0.154842
H17   H     H_    0.408282 0.058733 0.149094 0.115942
H18   H     H_    0.591715 0.940739 0.850927 0.115935
H19   H     H_    0.092556 0.466536 0.350844 0.117897
H20   H     H_    0.907445 0.533444 0.649159 0.117898
H21   H     H_    0.678441 0.080821 0.187728 0.207650
H22   H     H_    0.321560 0.919931 0.812206 0.207623
H23   H     H_    0.822657 0.399630 0.310950 0.205112
H24   H     H_    0.177344 0.600419 0.689049 0.204985
H25   H     H_    0.492770 0.085256 0.186325 0.128115
H26   H     H_    0.507223 0.915287 0.813624 0.128109
H27   H     H_    0.008489 0.426401 0.313163 0.128396
H28   H     H_    0.991511 0.573646 0.686835 0.128394
N1    N     N_R   0.248847 0.960263 0.920161 0.229961
O21   O     O_R   0.216934 0.057271 0.961163 -0.437635
O22   O     O_R   0.226646 0.861845 0.844492 -0.384787
N2    N     N_R   0.751139 0.040362 0.079759 0.229924
O23   O     O_R   0.783058 0.942835 0.039003 -0.437501
O24   O     O_R   0.773332 0.139586 0.155177 -0.384885
N3    N     N_R   0.250570 0.580714 0.580675 0.232098
O25   O     O_R   0.283696 0.492285 0.538511 -0.440555
O26   O     O_R   0.271538 0.677368 0.657550 -0.386898
N4    N     N_R   0.749430 0.419311 0.419324 0.232109
O27   O     O_R   0.716303 0.507720 0.461492 -0.440550
O28   O     O_R   0.728465 0.322683 0.342446 -0.386976

loop_
_geom_bond_atom_site_label_1
_geom_bond_atom_site_label_2
_geom_bond_distance
_ccdc_geom_bond_type
O17   V3    1.763257 S    
C24   H3    1.084646 S    
C63   H15   1.084627 S    
C36   H24   1.083993 S    
O1    C5    1.330868 A    
N4    O27   1.300944 A    
O19   V1    1.738363 S    
O13   V1    2.018049 S    
O3    C7    1.320523 A    
C64   H16   1.084629 S    
C44   C48   1.414487 A    
O15   V3    2.020959 S    
C58   H26   1.075638 S    
O4    V2    2.016162 S    
N3    O25   1.300955 A    
C14   C25   1.400255 A    
C2    C31   1.464229 S    
O7    C3    1.340643 A    
C44   H19   1.076736 S    
O5    C1    1.335722 A    
C42   H17   1.076770 S    
C9    C18   1.409111 A    
O9    V1    2.033979 S    
C41   H18   1.076904 S    
C17   H6    1.083650 S    
C14   C18   1.396792 A    
N1    O22   1.301525 A    
O4    C8    1.320523 A    
C59   C63   1.385907 A    
N3    O26   1.301538 A    
C58   C62   1.386128 A    
C20   H7    1.083466 S    
C30   C38   1.410330 A    
O1    V3    1.990438 S    
C29   C37   1.410393 A    
C12   C23   1.405729 A    
O2    V4    1.990437 S    
C53   C58   1.413728 A    
O3    V1    2.016160 S    
C34   H22   1.083780 S    
C55   C60   1.413826 A    
C33   H21   1.083881 S    
C1    O15   1.336034 A    
C59   H27   1.075612 S    
C7    C9    1.482029 S    
C35   H23   1.083986 S    
O2    C6    1.330869 A    
C33   C37   1.400019 A    
O14   V2    2.018049 S    
C21   C25   1.408656 A    
C16   C20   1.397311 A    
O5    V1    2.017706 S    
C3    C30   1.464848 S    
C36   C40   1.399731 A    
C45   C53   1.433259 A    
O11   C7    1.334253 A    
C15   C28   1.400496 A    
O12   C8    1.334253 A    
C37   N2    1.441663 S    
C9    C22   1.404486 A    
C10   C17   1.409110 A    
O10   V2    2.033979 S    
C11   C24   1.405729 A    
C18   H5    1.083651 S    
C36   C52   1.402675 A    
N2    O24   1.301822 A    
C51   C63   1.391958 A    
C30   C42   1.400074 A    
C29   C41   1.400094 A    
O9    C5    1.322634 A    
C27   C28   1.416904 A    
O8    V4    2.025558 S    
O7    V3    2.025556 S    
C2    O16   1.336031 A    
C55   C56   1.432361 A    
O18   V4    1.763258 S    
C15   C19   1.397309 A    
C46   C50   1.416918 A    
C56   C59   1.413824 A    
C8    C10   1.482026 S    
C34   C38   1.400033 A    
C42   C46   1.414892 A    
C13   H9    1.084206 S    
C6    C12   1.485273 S    
C41   C45   1.414968 A    
O8    C4    1.340644 A    
C31   C43   1.399370 A    
C10   C21   1.404486 A    
C57   H25   1.075714 S    
C32   C40   1.410017 A    
C11   C20   1.409598 A    
C52   C64   1.391960 A    
C19   H8    1.083468 S    
C35   C51   1.402671 A    
O6    V2    2.017706 S    
C21   H2    1.084743 S    
C31   C39   1.410008 A    
C32   C44   1.399367 A    
C34   C50   1.402807 A    
C57   C61   1.386152 A    
C33   C49   1.402842 A    
N2    O23   1.300947 A    
C54   C57   1.413814 A    
O16   V4    2.020959 S    
C38   N1    1.441704 S    
C3    O13   1.336466 A    
N4    O28   1.301474 A    
C40   N3    1.441379 S    
C48   C52   1.417141 A    
C46   C54   1.433270 A    
C47   C51   1.417134 A    
O6    C2    1.335723 A    
C23   C27   1.409109 A    
O11   V3    1.987941 S    
C5    C11   1.485273 S    
O12   V4    1.987940 S    
C16   C27   1.400498 A    
C15   H11   1.084178 S    
C4    C29   1.464829 S    
C22   C26   1.408658 A    
C16   H12   1.084180 S    
C39   N4    1.441376 S    
O10   C6    1.322634 A    
O20   V2    1.738362 S    
C1    C32   1.464232 S    
C62   H14   1.084632 S    
N1    O21   1.300876 A    
C35   C39   1.399728 A    
C13   C26   1.400258 A    
C60   C64   1.385909 A    
C22   H1    1.084742 S    
C43   H20   1.076731 S    
C47   C55   1.432731 A    
C13   C17   1.396792 A    
C50   C62   1.392202 A    
C45   C49   1.417046 A    
C49   C61   1.392239 A    
C43   C47   1.414484 A    
C24   C28   1.409110 A    
C25   C26   1.417603 A    
C4    O14   1.336456 A    
C60   H28   1.075615 S    
C12   C19   1.409599 A    
C48   C56   1.432731 A    
C53   C54   1.432745 A    
C61   H13   1.084723 S    
C23   H4    1.084645 S    
C14   H10   1.084208 S    
