data_mof_unit_35172.cif
_audit_creation_date              2012-12-10T17:48:46-0500
_audit_creation_method            fapswitch 2.2
_symmetry_space_group_name_H-M    P1
_symmetry_Int_Tables_number       1
_space_group_crystal_system       triclinic
_cell_length_a                    15.749226
_cell_length_b                    10.728312
_cell_length_c                    9.891623
_cell_angle_alpha                 89.220015
_cell_angle_beta                  90.014195
_cell_angle_gamma                 91.724729
_cell_volume                      1670.40245962

loop_
_atom_site_label
_atom_site_type_symbol
_atom_type_description
_atom_site_fract_x
_atom_site_fract_y
_atom_site_fract_z
_atom_type_partial_charge
C1    C     C_R   0.504928 0.259795 0.502017 0.863688
C2    C     C_R   0.484339 0.043321 0.878080 -0.147510
C3    C     C_R   0.439833 0.930277 0.866536 -0.157493
C4    C     C_R   0.338393 0.499625 0.500069 0.885195
C5    C     C_R   0.431792 0.875058 0.740383 -0.157274
C6    C     C_R   0.468146 0.933525 0.623770 0.099177
C7    C     C_R   0.496813 0.057711 0.631481 0.097429
C8    C     C_R   0.507775 0.125729 0.507715 -0.121680
C9    C     C_R   0.507983 0.064365 0.383925 -0.224823
C10   C     C_R   0.497395 0.937466 0.380876 -0.221058
C11   C     C_R   0.480164 0.871205 0.500470 -0.130178
C12   C     C_3   0.948750 0.435136 0.630921 -0.448402
C13   C     C_R   0.388019 0.336824 0.142325 -0.160758
C14   C     C_R   0.332772 0.256885 0.072949 -0.219765
C15   C     C_R   0.332660 0.257288 0.933066 -0.180929
C16   C     C_R   0.491305 0.738837 0.499643 0.879876
C17   C     C_R   0.388050 0.337265 0.861783 -0.149073
C18   C     C_R   0.444881 0.419622 0.928690 0.145360
C19   C     C_R   0.444892 0.419556 0.073414 0.166380
C20   C     C_R   0.552409 0.577380 0.070433 -0.126948
C21   C     C_R   0.552385 0.577346 0.927181 -0.116722
C22   C     C_R   0.661641 0.500332 0.499983 0.915773
C23   C     C_3   0.917329 0.504710 0.502993 0.297690
C24   C     C_3   0.047248 0.440445 0.635421 -0.037466
C25   C     C_3   0.047679 0.433360 0.378368 -0.446575
C26   C     C_3   0.949716 0.435618 0.377209 -0.474900
C27   C     C_1   0.750512 0.501446 0.500286 -0.191831
C28   C     C_3   0.083003 0.504463 0.503116 0.291382
C29   C     C_3   0.953204 0.642000 0.498958 -0.033451
C30   C     C_3   0.052417 0.641980 0.490063 -0.132905
C31   C     C_1   0.825806 0.502817 0.501288 -0.066253
C32   C     C_1   0.174466 0.502322 0.501281 -0.074879
C33   C     C_1   0.249656 0.500756 0.500299 -0.188620
C34   C     C_R   0.512973 0.106811 0.762007 -0.169148
H1    H     H_    0.923914 0.336865 0.629971 0.171358
H2    H     H_    0.504401 0.891320 0.284900 0.169411
H3    H     H_    0.595161 0.640593 0.123440 0.145880
H4    H     H_    0.383979 0.330939 0.249525 0.208089
H5    H     H_    0.289824 0.194163 0.128259 0.149396
H6    H     H_    0.289871 0.194569 0.879253 0.155176
H7    H     H_    0.384997 0.330793 0.754686 0.209939
H8    H     H_    0.595095 0.640579 0.872284 0.155001
H9    H     H_    0.072748 0.477456 0.283331 0.168052
H10   H     H_    0.068738 0.335414 0.378295 0.187509
H11   H     H_    0.923262 0.338203 0.376151 0.186273
H12   H     H_    0.067075 0.496979 0.723795 0.134271
H13   H     H_    0.927978 0.482883 0.283022 0.172473
H14   H     H_    0.069569 0.676654 0.386436 0.138506
H15   H     H_    0.064462 0.284385 0.753890 0.178137
H16   H     H_    0.054026 0.252518 0.589004 0.191800
H17   H     H_    0.097289 0.690996 0.681924 0.180234
H18   H     H_    0.156473 0.748023 0.552731 0.188271
H19   H     H_    0.949525 0.685965 0.703377 0.194420
H20   H     H_    0.937350 0.808172 0.596625 0.201093
H21   H     H_    0.922868 0.476395 0.724234 0.159184
H22   H     H_    0.929338 0.686856 0.404481 0.124203
H23   H     H_    0.517646 0.114068 0.288772 0.171720
H24   H     H_    0.550221 0.191392 0.777732 0.170892
H25   H     H_    0.495270 0.083216 0.976773 0.143877
H26   H     H_    0.414142 0.883304 0.955738 0.138118
H27   H     H_    0.396939 0.786806 0.735043 0.157897
N1    N     N_R   0.499210 0.498800 0.142780 -0.120693
N2    N     N_R   0.499180 0.498720 0.857170 -0.126389
N3    N     N_3   0.081545 0.315770 0.656773 -0.461506
N4    N     N_3   0.094043 0.729234 0.584712 -0.475922
N5    N     N_3   0.921256 0.713852 0.612824 -0.456266
O1    O     O_R   0.500000 0.316780 0.614690 -0.654548
O2    O     O_R   0.499990 0.316750 0.385360 -0.639693
O3    O     O_R   0.377150 0.500020 0.614720 -0.637607
O4    O     O_R   0.377140 0.499990 0.385380 -0.632451
O5    O     O_R   0.500010 0.683250 0.614640 -0.622461
O6    O     O_R   0.500000 0.683220 0.385310 -0.620181
O7    O     O_R   0.622860 0.500010 0.614620 -0.610823
O8    O     O_R   0.622850 0.499980 0.385280 -0.611710
Zn1   Zn    Zn3+2 0.500010 0.500020 0.653130 0.924353
Zn2   Zn    Zn3+2 0.499990 0.499980 0.346870 0.931403

loop_
_geom_bond_atom_site_label_1
_geom_bond_atom_site_label_2
_ccdc_geom_bond_type
C1    C8    S    
H16   N3    S    
C16   O6    A    
O6    Zn2   S    
C25   H9    S    
C4    O4    A    
C7    C8    A    
C25   C28   S    
C12   C23   S    
O8    Zn2   S    
C23   C29   S    
C30   H14   S    
C5    C6    A    
C18   N2    A    
C19   N1    A    
C1    O2    A    
C18   C19   A    
H17   N4    S    
C23   C26   S    
C26   H11   S    
C14   H5    S    
C8    C9    A    
C9    C10   A    
C3    H26   S    
C2    C34   A    
C24   N3    S    
H15   N3    S    
C13   C14   A    
O7    Zn1   S    
N1    Zn2   S    
C16   O5    A    
C25   H10   S    
C4    O3    A    
C13   C19   A    
C27   C31   T    
C12   H21   S    
C28   C32   S    
C6    C11   A    
C2    H25   S    
C25   C26   S    
C21   H8    S    
C23   C31   S    
C29   C30   S    
C11   C16   S    
C17   C18   A    
C5    H27   S    
C12   H1    S    
H19   N5    S    
C13   H4    S    
C26   H13   S    
C22   C27   S    
O4    Zn2   S    
C7    C34   A    
O1    Zn1   S    
C22   O8    A    
C15   C17   A    
C4    C33   S    
C24   C28   S    
C3    C5    A    
C6    C7    A    
H20   N5    S    
C29   H22   S    
O2    Zn2   S    
C12   C24   S    
C24   H12   S    
C32   C33   T    
C28   C30   S    
C2    C3    A    
O5    Zn1   S    
C20   H3    S    
N2    Zn1   S    
C1    O1    A    
O3    Zn1   S    
C9    H23   S    
C20   N1    A    
C17   H7    S    
C15   H6    S    
C21   N2    A    
C30   N4    S    
C10   C11   A    
C29   N5    S    
C20   C21   A    
C34   H24   S    
C14   C15   A    
C10   H2    S    
C22   O7    A    
H18   N4    S    
