data_mof_unit_24563.cif
_audit_creation_date              2012-12-10T19:04:13-0500
_audit_creation_method            fapswitch 2.2
_symmetry_space_group_name_H-M    P1
_symmetry_Int_Tables_number       1
_space_group_crystal_system       triclinic
_cell_length_a                    10.629497
_cell_length_b                    10.825469
_cell_length_c                    9.558305
_cell_angle_alpha                 90.248968
_cell_angle_beta                  89.572217
_cell_angle_gamma                 90.057048
_cell_volume                      1099.82582316

loop_
_atom_site_label
_atom_site_type_symbol
_atom_type_description
_atom_site_fract_x
_atom_site_fract_y
_atom_site_fract_z
_atom_type_partial_charge
C1    C     C_R   0.497504 0.262409 0.499704 0.794511
C2    C     C_3   0.961048 0.494154 0.366580 -0.184284
C3    C     C_3   0.043476 0.395842 0.439162 -0.156820
C4    C     C_3   0.122669 0.500671 0.501885 -0.013975
C5    C     C_R   0.483359 0.064509 0.624889 0.126779
C6    C     C_R   0.484876 0.129382 0.499189 -0.099068
C7    C     C_R   0.468976 0.063879 0.373231 -0.224252
C8    C     C_R   0.469428 0.935045 0.373610 -0.225949
C9    C     C_R   0.485695 0.870925 0.499957 -0.101169
C10   C     C_R   0.483644 0.937370 0.625417 0.130454
C11   C     C_3   0.570729 0.932719 0.747220 -0.486485
C12   C     C_R   0.259397 0.500366 0.500568 0.793655
C13   C     C_3   0.570270 0.072831 0.746484 -0.459157
C14   C     C_R   0.608656 0.519988 0.072833 0.260475
C15   C     C_R   0.395426 0.468053 0.074863 -0.090734
C16   C     C_R   0.395351 0.468291 0.926365 -0.089727
C17   C     C_R   0.608947 0.518884 0.925612 0.253866
C18   C     C_3   0.691932 0.629678 0.918891 -0.486030
C19   C     C_3   0.689844 0.632289 0.077737 -0.513544
C20   C     C_R   0.497983 0.737708 0.500147 0.792268
C21   C     C_R   0.740558 0.499402 0.499483 0.789492
C22   C     C_3   0.039516 0.505046 0.634533 -0.151399
C23   C     C_3   0.957756 0.400521 0.570969 -0.209289
C24   C     C_3   0.877299 0.498687 0.498376 -0.035168
C25   C     C_3   0.958350 0.600899 0.559629 0.307219
C26   C     C_3   0.042766 0.599313 0.428833 -0.212773
Cu1   Cu    Cu3+1 0.499990 0.499980 0.640670 0.937728
Cu2   Cu    Cu3+1 0.500010 0.500020 0.359330 0.933214
H1    H     H_    0.920030 0.319178 0.627906 0.133763
H2    H     H_    0.663918 0.892352 0.719662 0.200083
H3    H     H_    0.523769 0.113892 0.840280 0.198538
H4    H     H_    0.663038 0.113793 0.718361 0.193392
H5    H     H_    0.310078 0.443234 0.129992 0.145368
H6    H     H_    0.309970 0.443900 0.872185 0.140034
H7    H     H_    0.786165 0.607485 0.874310 0.218526
H8    H     H_    0.644708 0.709974 0.871030 0.214182
H9    H     H_    0.783275 0.613418 0.124101 0.190390
H10   H     H_    0.640033 0.713974 0.122158 0.212622
H11   H     H_    0.073513 0.510678 0.743923 0.125221
H12   H     H_    0.079827 0.681353 0.372664 0.131796
H13   H     H_    0.927322 0.487816 0.257250 0.138511
H14   H     H_    0.082208 0.311032 0.389413 0.128380
H15   H     H_    0.462388 0.111454 0.274107 0.165420
H16   H     H_    0.463077 0.886415 0.274634 0.164353
H17   H     H_    0.524249 0.893562 0.841690 0.196415
N1    N     N_R   0.500800 0.500930 0.147930 -0.183944
N2    N     N_R   0.500800 0.500890 0.852020 -0.183668
O1    O     O_R   0.500000 0.319640 0.618810 -0.578707
O2    O     O_R   0.500010 0.319680 0.381230 -0.584351
O3    O     O_R   0.316850 0.499950 0.618770 -0.595387
O4    O     O_R   0.316860 0.499990 0.381190 -0.590449
O5    O     O_R   0.499990 0.680320 0.618770 -0.574255
O6    O     O_R   0.500000 0.680360 0.381190 -0.584424
O7    O     O_R   0.683140 0.500010 0.618810 -0.576492
O8    O     O_R   0.683150 0.500050 0.381230 -0.585477
N3    N     N_2   0.906281 0.711148 0.623556 -0.443428
H18   H     H_    0.842393 0.755436 0.560536 0.237257
C27   C     C_3   0.997701 0.793976 0.684238 -0.719340
H19   H     H_    0.948254 0.872267 0.736026 0.227364
H20   H     H_    0.061256 0.831022 0.601625 0.223342
H21   H     H_    0.053995 0.745230 0.764322 0.235128

loop_
_geom_bond_atom_site_label_1
_geom_bond_atom_site_label_2
_ccdc_geom_bond_type
Cu1   O1    S    
C12   O3    A    
C23   C24   S    
C25   N3    S    
C3    H14   S    
C6    C7    A    
C19   H10   S    
C7    H15   S    
C4    C12   S    
C4    C22   S    
C18   H7    S    
C1    C6    S    
C9    C20   S    
C4    C26   S    
Cu1   O3    S    
C14   N1    A    
Cu2   O6    S    
C26   H12   S    
C27   H21   S    
C17   C18   S    
C27   H19   S    
Cu1   O7    S    
C5    C10   A    
C2    C26   S    
N3    H18   S    
C11   C13   S    
C14   C17   A    
Cu2   N1    S    
C5    C6    A    
C18   H8    S    
C22   H11   S    
C23   H1    S    
C16   N2    A    
Cu2   O8    S    
N3    C27   S    
C2    C3    S    
C1    O1    A    
C2    C24   S    
C21   O7    A    
Cu2   O4    S    
C11   H17   S    
C10   C11   S    
C2    H13   S    
C27   H20   S    
C15   C16   A    
C5    C13   S    
C17   N2    A    
C7    C8    A    
C12   O4    A    
C24   C25   S    
Cu1   O5    S    
C20   O5    A    
C18   C19   S    
Cu2   O2    S    
C21   C24   S    
Cu1   N2    S    
Cu1   Cu2   S    
C21   O8    A    
C3    C23   S    
C22   C23   S    
C20   O6    A    
C19   H9    S    
C15   N1    A    
C16   H6    S    
C25   C26   S    
C13   H4    S    
C1    O2    A    
C14   C19   S    
C13   H3    S    
C3    C4    S    
C8    H16   S    
C11   H2    S    
C9    C10   A    
C8    C9    A    
C15   H5    S    
C22   C25   S    
