data_mof_unit_9652.cif
_audit_creation_date              2013-03-05T16:41:05-0500
_audit_creation_method            fapswitch 2.2
_symmetry_space_group_name_H-M    P1
_symmetry_Int_Tables_number       1
_space_group_crystal_system       triclinic
_cell_length_a                    8.586359
_cell_length_b                    10.689567
_cell_length_c                    9.88084
_cell_angle_alpha                 89.599121
_cell_angle_beta                  98.733584
_cell_angle_gamma                 90.272429
_cell_volume                      896.363823317

loop_
_atom_site_label
_atom_site_type_symbol
_atom_site_description
_atom_site_fract_x
_atom_site_fract_y
_atom_site_fract_z
_atom_type_partial_charge
O1    O     O_R   0.500020 0.316790 0.614690 -0.616921
O2    O     O_R   0.500000 0.316760 0.385350 -0.628859
C1    C     C_R   0.505407 0.259902 0.500975 0.891663
O3    O     O_R   0.271760 0.500010 0.587850 -0.622447
O4    O     O_R   0.271740 0.499970 0.358500 -0.584683
C2    C     C_R   0.201210 0.500940 0.464126 0.982222
Zn1   Zn    Zn3+2 0.500010 0.500020 0.653130 0.984286
Zn2   Zn    Zn3+2 0.499990 0.499980 0.346870 0.988749
O5    O     O_R   0.500000 0.683240 0.614650 -0.604708
O6    O     O_R   0.499980 0.683210 0.385310 -0.608881
O7    O     O_R   0.728260 0.500030 0.641500 -0.624201
O8    O     O_R   0.728240 0.499990 0.412150 -0.624502
C3    C     C_R   0.505384 0.739982 0.500275 0.872324
C4    C     C_R   0.798788 0.501226 0.535922 0.971816
C5    C     C_2   0.035944 0.502491 0.445070 -0.343201
H1    H     H_    0.973689 0.501366 0.340809 0.211675
C6    C     C_2   0.964017 0.504005 0.555175 -0.386416
H2    H     H_    0.025917 0.506998 0.659526 0.186379
C7    C     C_R   0.541652 0.062641 0.627351 0.105920
C8    C     C_R   0.532239 0.128524 0.504349 -0.106309
C9    C     C_R   0.554183 0.065628 0.384373 -0.191109
H3    H     H_    0.559610 0.115147 0.289131 0.184730
C10   C     C_R   0.553983 0.936224 0.383844 -0.165594
H4    H     H_    0.559207 0.888291 0.288377 0.209254
C11   C     C_R   0.532042 0.871244 0.503336 -0.165067
C12   C     C_R   0.541878 0.934716 0.626871 0.098828
C13   C     C_3   0.438924 0.926672 0.736295 0.157930
C14   C     C_3   0.440026 0.068590 0.737318 -0.553697
H5    H     H_    0.320682 0.884833 0.701508 0.114303
H6    H     H_    0.322215 0.109448 0.700298 0.184357
H7    H     H_    0.504222 0.109811 0.832964 0.235284
C15   C     C_R   0.364698 0.474522 0.053568 0.224553
N1    N     N_R   0.498950 0.499140 0.142680 -0.143593
C16   C     C_R   0.629583 0.536125 0.088617 -0.053674
H8    H     H_    0.735026 0.563897 0.155966 0.166495
C17   C     C_R   0.629664 0.535945 0.944895 -0.002860
H9    H     H_    0.735140 0.563432 0.904721 0.171973
N2    N     N_R   0.498950 0.499180 0.857030 -0.119189
C18   C     C_R   0.365141 0.474331 0.911080 0.202972
C19   C     C_3   0.272861 0.355971 0.893328 -0.548435
C20   C     C_3   0.271288 0.355834 0.046656 0.065801
H10   H     H_    0.155445 0.369224 0.830534 0.234374
H11   H     H_    0.342357 0.278500 0.859840 0.192770
H12   H     H_    0.337020 0.276625 0.101790 0.152287
Br1   Br    Br    0.060728 0.380311 0.090353 -0.543875
N3    N     N_R   0.519960 0.871975 0.863948 0.238438
O9    O     O_R   0.667105 0.898201 0.908416 -0.384673
O10   O     O_R   0.442483 0.799440 0.936694 -0.406491

loop_
_geom_bond_atom_site_label_1
_geom_bond_atom_site_label_2
_geom_bond_distance
_ccdc_geom_bond_type
O4    Zn2   1.980544 S    
C15   C20   1.494162 S    
C14   H7    1.111962 S    
C5    C6    1.330276 D    
C13   H5    1.113912 S    
C7    C8    1.392249 A    
Zn2   O8    1.968023 S    
C15   N1    1.365821 A    
C14   H6    1.112391 S    
O2    C1    1.285006 A    
C11   C12   1.391807 A    
C1    C8    1.423565 S    
C9    H3    1.083556 S    
Zn1   O7    1.980544 S    
C7    C14   1.495169 S    
C4    C6    1.402695 S    
C3    C11   1.420405 S    
C12   C13   1.498694 S    
N2    C18   1.362817 A    
O3    Zn1   1.968024 S    
C13   N3    1.464225 S    
C17   N2    1.368414 A    
C19   C20   1.517118 S    
O7    C4    1.283257 A    
Zn1   N2    2.016061 S    
O8    C4    1.279818 A    
C6    H2    1.086512 S    
C16   C17   1.420206 A    
Zn2   N1    2.016315 S    
C10   C11   1.402435 A    
C9    C10   1.383305 A    
O4    C2    1.283850 A    
Zn2   O6    1.997747 S    
C20   H12   1.112186 S    
N3    O10   1.301122 A    
C10   H4    1.083596 S    
C5    H1    1.086299 S    
C18   C19   1.486847 S    
N1    C16   1.369150 A    
C8    C9    1.404653 A    
O3    C2    1.279276 A    
C16   H8    1.080702 S    
C15   C18   1.408502 A    
C13   C14   1.517122 S    
Zn1   O5    1.992492 S    
C7    C12   1.367517 A    
O5    C3    1.285772 A    
N3    O9    1.302964 A    
C17   H9    1.081261 S    
C20   Br1   1.940789 S    
C2    C5    1.403002 S    
O1    Zn1   1.997748 S    
C19   H11   1.104470 S    
O2    Zn2   1.992491 S    
C19   H10   1.109781 S    
O1    C1    1.288419 A    
O6    C3    1.286155 A    
