data_mof_unit_32577.cif
_audit_creation_date              2013-03-05T16:06:56-0500
_audit_creation_method            fapswitch 2.2
_symmetry_space_group_name_H-M    P1
_symmetry_Int_Tables_number       1
_space_group_crystal_system       triclinic
_cell_length_a                    10.895215
_cell_length_b                    9.684587
_cell_length_c                    11.053377
_cell_angle_alpha                 90.739441
_cell_angle_beta                  97.876913
_cell_angle_gamma                 91.170639
_cell_volume                      1154.91361222

loop_
_atom_site_label
_atom_site_type_symbol
_atom_site_description
_atom_site_fract_x
_atom_site_fract_y
_atom_site_fract_z
_atom_type_partial_charge
O1    O     O_R   0.319640 0.618740 0.499990 -0.527976
O2    O     O_R   0.680360 0.618740 0.500010 -0.523980
O3    O     O_R   0.319620 0.381170 0.499990 -0.518873
O4    O     O_R   0.680380 0.381170 0.500010 -0.533128
C1    C     C_R   0.263117 0.498148 0.506846 0.920531
C2    C     C_R   0.735593 0.500723 0.488962 0.896883
O5    O     O_R   0.499990 0.618810 0.319660 -0.546130
O6    O     O_R   0.500010 0.618810 0.680340 -0.531525
O7    O     O_R   0.499960 0.381240 0.319650 -0.525182
O8    O     O_R   0.500040 0.381240 0.680350 -0.541991
C3    C     C_R   0.500621 0.498434 0.262567 0.876468
C4    C     C_R   0.500654 0.500202 0.737157 0.875613
Cu1   Cu    Cu3+1 0.500000 0.640660 0.500000 1.170616
Cu2   Cu    Cu3+1 0.500000 0.359340 0.500000 1.172278
C5    C     C_R   0.538183 0.608777 0.067398 -0.133851
C6    C     C_R   0.555596 0.606974 0.946356 -0.076648
C7    C     C_R   0.507028 0.492441 0.129831 -0.175135
C8    C     C_R   0.506045 0.496578 0.870686 -0.181014
C9    C     C_R   0.487742 0.368906 0.058390 0.370880
C10   C     C_R   0.470656 0.375087 0.929719 0.362996
C11   C     C_3   0.552640 0.763084 0.942015 0.384824
C12   C     C_3   0.518951 0.760400 0.073406 0.386338
C13   C     C_R   0.057021 0.369949 0.484365 0.345374
C14   C     C_R   0.928129 0.375351 0.459700 0.345063
C15   C     C_R   0.868328 0.500915 0.475767 -0.354661
C16   C     C_R   0.128343 0.493505 0.511203 -0.354949
C17   C     C_R   0.939886 0.623520 0.494529 0.346056
C18   C     C_R   0.066984 0.617323 0.527654 0.336752
C19   C     C_R   0.412449 0.069268 0.422949 0.331076
C20   C     C_R   0.586963 0.079165 0.575531 0.348982
C21   C     C_R   0.405013 0.922692 0.435613 0.330263
C22   C     C_R   0.593679 0.931310 0.569121 0.326010
N1    N     N_R   0.500000 0.852070 0.500000 -0.290513
N2    N     N_R   0.500000 0.147940 0.500000 -0.300822
Cl1   Cl    Cl    0.491913 0.203847 0.122455 -0.324709
Cl2   Cl    Cl    0.386823 0.236299 0.848274 -0.326560
N3    N     N_R   0.675151 0.827885 0.936788 0.176832
O9    O     O_R   0.690512 0.960404 0.955246 -0.162527
O10   O     O_R   0.772908 0.752517 0.937320 -0.211568
N4    N     N_R   0.389352 0.797098 0.077180 0.173324
O11   O     O_R   0.356312 0.921860 0.048320 -0.137487
O12   O     O_R   0.303265 0.700840 0.070647 -0.247427
N5    N     N_R   0.455364 0.815462 0.849253 0.154340
O13   O     O_R   0.348421 0.751314 0.825750 -0.251917
O14   O     O_R   0.470691 0.932822 0.797181 -0.243544
N6    N     N_R   0.607273 0.830401 0.168180 0.161200
O15   O     O_R   0.720597 0.788276 0.192109 -0.234264
O16   O     O_R   0.570971 0.927671 0.236191 -0.275101
Cl3   Cl    Cl    0.121811 0.203665 0.496398 -0.304037
Cl4   Cl    Cl    0.845819 0.227156 0.391957 -0.320941
Cl5   Cl    Cl    0.879217 0.785515 0.451011 -0.283027
Cl6   Cl    Cl    0.141536 0.759296 0.611393 -0.292638
N7    N     N_R   0.331346 0.127366 0.321022 0.203568
O17   O     O_R   0.301481 0.255447 0.314285 -0.267537
O18   O     O_R   0.285100 0.049472 0.228858 -0.167561
N8    N     N_R   0.666739 0.155796 0.667871 0.177985
O19   O     O_R   0.776184 0.198253 0.648323 -0.239295
O20   O     O_R   0.640635 0.158436 0.779061 -0.227767
N9    N     N_R   0.293373 0.851168 0.382979 0.181659
O21   O     O_R   0.186379 0.903249 0.394638 -0.187551
O22   O     O_R   0.297141 0.754073 0.302014 -0.256945
N10   N     N_R   0.699996 0.868691 0.637970 0.182271
O23   O     O_R   0.806751 0.933548 0.655926 -0.167675
O24   O     O_R   0.689820 0.755269 0.696186 -0.291730

loop_
_geom_bond_atom_site_label_1
_geom_bond_atom_site_label_2
_geom_bond_distance
_ccdc_geom_bond_type
Cu2   N2    2.047322 S    
C20   C22   1.436605 A    
O7    Cu2   2.007390 S    
C21   N1    1.372926 A    
Cu1   N1    2.047419 S    
C6    C11   1.514098 S    
C15   C17   1.404357 A    
N5    O14   1.298639 A    
C16   C18   1.406536 A    
C9    C10   1.411070 A    
O6    C4    1.315918 A    
C13   C14   1.395555 A    
C12   N4    1.469040 S    
C22   N1    1.397678 A    
N4    O12   1.303049 A    
C22   N10   1.444879 S    
N9    O21   1.301334 A    
C19   C21   1.429941 A    
C9    Cl1   1.755621 S    
Cu1   Cu2   2.724468 S    
C14   C15   1.411842 A    
O5    C3    1.319052 A    
C18   Cl6   1.767044 S    
C14   Cl4   1.777740 S    
O7    C3    1.306037 A    
N10   O23   1.300161 A    
O3    Cu2   1.980892 S    
O8    C4    1.304417 A    
O1    C1    1.317049 A    
O4    C2    1.308687 A    
N4    O11   1.299045 A    
C7    C9    1.420887 A    
N3    O9    1.300698 A    
N8    O20   1.298978 A    
C8    C10   1.424442 A    
N7    O18   1.297961 A    
N5    O13   1.301672 A    
O4    Cu2   1.972302 S    
N3    O10   1.302837 A    
N6    O16   1.298999 A    
C13   Cl3   1.770761 S    
C2    C15   1.473235 S    
N9    O22   1.294877 A    
C5    C6    1.376749 A    
C20   N2    1.364436 A    
C21   N9    1.434919 S    
C1    C16   1.475555 S    
C10   Cl2   1.773287 S    
O6    Cu1   2.007266 S    
O3    C1    1.306606 A    
O5    Cu1   2.001834 S    
O1    Cu1   1.972163 S    
N8    O19   1.300197 A    
C11   N3    1.471961 S    
C6    C8    1.401311 A    
O8    Cu2   2.001942 S    
C13   C16   1.418914 A    
C4    C8    1.469957 S    
C17   C18   1.385718 A    
C5    C7    1.389047 A    
O2    Cu1   1.980786 S    
N6    O15   1.301812 A    
C3    C7    1.478815 S    
N10   O24   1.290649 A    
C12   N6    1.470277 S    
C11   C12   1.546391 S    
C20   N8    1.434897 S    
C19   N2    1.395221 A    
C5    C12   1.489429 S    
C11   N5    1.472898 S    
O2    C2    1.314539 A    
N7    O17   1.289294 A    
C17   Cl5   1.761906 S    
C19   N7    1.459626 S    
