data_mof_unit_36844.cif
_audit_creation_date              2012-12-11T17:07:59-0500
_audit_creation_method            fapswitch 2.2
_symmetry_space_group_name_H-M    P1
_symmetry_Int_Tables_number       1
_space_group_crystal_system       triclinic
_cell_length_a                    17.338768
_cell_length_b                    17.336347
_cell_length_c                    17.447773
_cell_angle_alpha                 89.558256
_cell_angle_beta                  90.262381
_cell_angle_gamma                 90.211698
_cell_volume                      5244.39577773

loop_
_atom_site_label
_atom_site_type_symbol
_atom_type_description
_atom_site_fract_x
_atom_site_fract_y
_atom_site_fract_z
_atom_type_partial_charge
C1    C     C_R   0.416577 0.325423 0.861169 -0.121930
C2    C     C_R   0.683252 0.409917 0.869994 -0.126196
C3    C     C_R   0.577433 0.671810 0.857955 -0.137480
C4    C     C_R   0.303148 0.604476 0.896754 -0.140074
C5    C     C_R   0.411304 0.681743 0.131625 -0.116029
C6    C     C_R   0.679439 0.586594 0.134927 -0.124812
C7    C     C_R   0.587017 0.319761 0.134206 -0.124097
C8    C     C_R   0.321439 0.413934 0.135317 -0.124011
C9    C     C_R   0.896185 0.803247 0.398338 -0.135686
C10   C     C_R   0.195948 0.897590 0.395531 -0.138114
C11   C     C_R   0.103804 0.197114 0.398455 -0.136971
C12   C     C_R   0.802933 0.103437 0.398831 -0.136575
C13   C     C_R   0.897706 0.196205 0.603645 -0.133629
C14   C     C_R   0.197196 0.105287 0.600656 -0.141614
C15   C     C_R   0.075498 0.830835 0.643595 -0.133975
C16   C     C_R   0.803052 0.895956 0.602719 -0.133785
C17   C     C_3   0.880094 0.278779 0.757453 -0.482036
C18   C     C_3   0.689755 0.870121 0.734483 -0.492238
C19   C     C_3   0.148559 0.682275 0.702501 -0.477380
C20   C     C_3   0.292867 0.130615 0.745446 -0.476577
C21   C     C_3   0.875981 0.707063 0.255695 -0.487806
C22   C     C_3   0.707143 0.122949 0.255412 -0.488211
C23   C     C_3   0.124137 0.295715 0.256277 -0.488610
C24   C     C_3   0.280383 0.878560 0.242138 -0.481103
C25   C     C_3   0.323421 0.832611 0.183020 -0.488820
C26   C     C_3   0.170519 0.338828 0.196898 -0.510969
C27   C     C_3   0.664278 0.169103 0.195503 -0.510819
C28   C     C_3   0.829851 0.663404 0.196745 -0.511400
C29   C     C_3   0.338147 0.177344 0.802573 -0.499323
C30   C     C_3   0.199153 0.634405 0.754600 -0.469652
C31   C     C_3   0.641317 0.822418 0.788704 -0.500845
C32   C     C_3   0.834527 0.320675 0.817703 -0.507013
C33   C     C_R   0.392741 0.696665 0.895982 -0.139387
C34   C     C_R   0.326456 0.417793 0.858171 -0.133684
C35   C     C_R   0.593261 0.317169 0.869039 -0.137574
C36   C     C_R   0.673965 0.586505 0.859238 -0.126284
C37   C     C_R   0.409854 0.320441 0.135992 -0.131781
C38   C     C_R   0.318148 0.592087 0.132345 -0.133474
C39   C     C_R   0.589882 0.679109 0.135563 -0.132056
C40   C     C_R   0.680138 0.409166 0.135091 -0.133683
C41   C     C_R   0.892718 0.196174 0.395901 -0.133442
C42   C     C_R   0.803917 0.893040 0.395351 -0.133187
C43   C     C_R   0.105636 0.804852 0.393435 -0.133454
C44   C     C_R   0.196047 0.107398 0.395939 -0.131956
C45   C     C_R   0.892015 0.803523 0.603721 -0.144418
C46   C     C_R   0.804720 0.106239 0.605959 -0.133657
C47   C     C_R   0.107011 0.196649 0.603251 -0.130706
C48   C     C_R   0.169500 0.919918 0.644805 -0.125057
C49   C     C_R   0.356980 0.355784 0.818317 0.091913
C50   C     C_R   0.657335 0.345992 0.832030 0.095145
C51   C     C_R   0.638723 0.644618 0.816366 0.093964
C52   C     C_R   0.315983 0.680970 0.879754 0.094514
C53   C     C_R   0.347640 0.655405 0.169945 0.091647
C54   C     C_R   0.652102 0.648575 0.174860 0.093983
C55   C     C_R   0.649529 0.346736 0.174136 0.093676
C56   C     C_R   0.348435 0.351413 0.175457 0.093629
C57   C     C_R   0.820364 0.816286 0.381158 0.094596
C58   C     C_R   0.181793 0.822372 0.377154 0.092359
C59   C     C_R   0.179614 0.184390 0.381934 0.094025
C60   C     C_R   0.815741 0.179331 0.382115 0.094476
C61   C     C_R   0.822475 0.182483 0.621764 0.093998
C62   C     C_R   0.184170 0.181421 0.616911 0.092777
C63   C     C_R   0.134708 0.860669 0.687288 0.087774
C64   C     C_R   0.815218 0.819435 0.619284 0.095619
C65   C     C_R   0.772277 0.328725 0.758611 0.156014
C66   C     C_R   0.648502 0.757583 0.732869 0.147333
C67   C     C_R   0.195919 0.699219 0.810345 0.122693
C68   C     C_R   0.340699 0.239882 0.742931 0.157524
C69   C     C_R   0.765593 0.661897 0.253772 0.162764
C70   C     C_R   0.662279 0.232981 0.252662 0.162108
C71   C     C_R   0.235111 0.339306 0.254127 0.162129
C72   C     C_R   0.330180 0.770561 0.242730 0.147186
C73   C     C_R   0.291749 0.811527 0.295944 0.137777
C74   C     C_R   0.193579 0.300747 0.307848 0.150112
C75   C     C_R   0.700547 0.191760 0.306843 0.148455
C76   C     C_R   0.806894 0.700964 0.307056 0.148027
C77   C     C_R   0.300245 0.197425 0.691217 0.138528
C78   C     C_R   0.150492 0.743068 0.763153 0.131593
C79   C     C_R   0.692389 0.800786 0.683798 0.151191
C80   C     C_R   0.812853 0.291395 0.704326 0.145252
C81   C     C_R   0.693373 0.317196 0.764644 -0.044639
C82   C     C_R   0.664833 0.679754 0.744998 -0.048997
C83   C     C_R   0.255328 0.732592 0.852706 -0.047367
C84   C     C_R   0.328586 0.318953 0.749229 -0.042216
C85   C     C_R   0.687331 0.676154 0.244190 -0.044782
C86   C     C_R   0.676796 0.311333 0.243596 -0.044791
C87   C     C_R   0.313160 0.323999 0.244969 -0.045099
C88   C     C_R   0.318516 0.691622 0.237041 -0.041717
C89   C     C_R   0.239721 0.774603 0.344520 -0.048467
C90   C     C_R   0.228902 0.244571 0.353263 -0.048413
C91   C     C_R   0.755717 0.227806 0.352666 -0.047548
C92   C     C_R   0.771211 0.756548 0.351746 -0.049287
C93   C     C_R   0.244072 0.231990 0.645553 -0.045998
C94   C     C_R   0.162130 0.822546 0.757076 -0.044333
C95   C     C_R   0.753965 0.767755 0.644857 -0.047952
C96   C     C_R   0.775474 0.240573 0.655028 -0.047514
C97   C     C_R   0.241659 0.693631 0.352722 -0.029610
C98   C     C_R   0.310050 0.243627 0.359520 -0.028429
C99   C     C_R   0.755830 0.308841 0.358710 -0.029182
C100  C     C_R   0.690057 0.756842 0.357415 -0.025887
C101  C     C_R   0.244588 0.313131 0.636998 -0.027061
C102  C     C_R   0.206271 0.859111 0.814697 -0.031735
C103  C     C_R   0.756484 0.686343 0.639374 -0.027333
C104  C     C_R   0.694656 0.243353 0.647127 -0.028608
C105  C     C_R   0.652512 0.283255 0.703004 -0.029652
C106  C     C_R   0.711392 0.641522 0.690770 -0.033221
C107  C     C_R   0.254676 0.813596 0.862739 -0.021634
C108  C     C_R   0.289033 0.357392 0.689132 -0.034643
C109  C     C_R   0.646997 0.715441 0.302438 -0.030205
C110  C     C_R   0.714861 0.351738 0.303026 -0.031253
C111  C     C_R   0.353276 0.284616 0.304157 -0.031356
C112  C     C_R   0.282622 0.651084 0.297926 -0.029002
H1    H     H_    0.448469 0.274261 0.849053 0.102138
H2    H     H_    0.736888 0.440038 0.861604 0.096182
H3    H     H_    0.537763 0.716921 0.841874 0.109063
H4    H     H_    0.247678 0.576084 0.901335 0.096538
H5    H     H_    0.442084 0.734719 0.140989 0.097378
H6    H     H_    0.731493 0.555268 0.145919 0.099757
H7    H     H_    0.555595 0.267422 0.144544 0.099142
H8    H     H_    0.270280 0.446232 0.146579 0.100510
H9    H     H_    0.924986 0.748151 0.403335 0.106096
H10   H     H_    0.251155 0.926820 0.398194 0.102274
H11   H     H_    0.075076 0.252161 0.403352 0.105955
H12   H     H_    0.747924 0.074169 0.403914 0.105054
H13   H     H_    0.927197 0.251280 0.600651 0.104147
H14   H     H_    0.252646 0.077376 0.595630 0.104438
H15   H     H_    0.036382 0.784871 0.659168 0.107629
H16   H     H_    0.748049 0.924772 0.597373 0.103861
H17   H     H_    0.889726 0.216898 0.771759 0.202483
H18   H     H_    0.747051 0.885790 0.758852 0.201757
H19   H     H_    0.090019 0.657059 0.694733 0.186556
H20   H     H_    0.232045 0.121289 0.762681 0.211230
H21   H     H_    0.889256 0.767328 0.237631 0.202664
H22   H     H_    0.767560 0.110088 0.238691 0.202948
H23   H     H_    0.109908 0.235696 0.238905 0.203200
H24   H     H_    0.218836 0.888256 0.226694 0.202996
H25   H     H_    0.380188 0.858485 0.168031 0.190255
H26   H     H_    0.147588 0.397530 0.184988 0.189304
H27   H     H_    0.606026 0.145174 0.183038 0.190078
H28   H     H_    0.853535 0.605053 0.185697 0.189466
H29   H     H_    0.395960 0.152469 0.814795 0.189325
H30   H     H_    0.258229 0.626853 0.731829 0.212647
H31   H     H_    0.581105 0.843696 0.793171 0.189533
H32   H     H_    0.860535 0.377119 0.833424 0.188916
N1    N     N_R   0.425360 0.368540 0.922560 -0.045031
N2    N     N_R   0.631460 0.425360 0.922560 -0.042406
N3    N     N_R   0.574640 0.631460 0.922560 -0.044790
N4    N     N_R   0.368540 0.574640 0.922560 -0.039290
N5    N     N_R   0.425360 0.631460 0.077440 -0.041525
N6    N     N_R   0.631460 0.574640 0.077440 -0.043913
N7    N     N_R   0.574640 0.368540 0.077440 -0.043228
N8    N     N_R   0.368540 0.425360 0.077440 -0.044141
N9    N     N_R   0.925360 0.868540 0.422560 -0.042333
N10   N     N_R   0.131460 0.925360 0.422560 -0.043067
N11   N     N_R   0.074640 0.131460 0.422560 -0.042611
N12   N     N_R   0.868540 0.074640 0.422560 -0.042796
N13   N     N_R   0.925360 0.131460 0.577440 -0.042129
N14   N     N_R   0.131460 0.074640 0.577440 -0.040906
N15   N     N_R   0.074640 0.868540 0.577440 -0.042492
N16   N     N_R   0.868540 0.925360 0.577440 -0.040932
N17   N     N_R   0.425340 0.631500 0.922560 -0.041234
N18   N     N_R   0.368500 0.425340 0.922560 -0.044660
N19   N     N_R   0.574660 0.368500 0.922560 -0.041320
N20   N     N_R   0.631500 0.574660 0.922560 -0.044486
N21   N     N_R   0.425340 0.368500 0.077440 -0.042803
N22   N     N_R   0.368500 0.574660 0.077440 -0.040889
N23   N     N_R   0.574660 0.631500 0.077440 -0.043031
N24   N     N_R   0.631500 0.425340 0.077440 -0.042278
N25   N     N_R   0.925340 0.131500 0.422560 -0.042785
N26   N     N_R   0.868500 0.925340 0.422560 -0.042893
N27   N     N_R   0.074660 0.868500 0.422560 -0.043458
N28   N     N_R   0.131500 0.074660 0.422560 -0.042448
N29   N     N_R   0.925340 0.868500 0.577440 -0.041406
N30   N     N_R   0.868500 0.074660 0.577440 -0.042167
N31   N     N_R   0.074660 0.131500 0.577440 -0.041184
N32   N     N_R   0.131500 0.925340 0.577440 -0.043659
Ni1   Ni    Ni4+2 0.500000 0.369720 0.000000 0.212823
Ni2   Ni    Ni4+2 0.630280 0.500000 0.000000 0.211736
Ni3   Ni    Ni4+2 0.500000 0.630280 0.000000 0.214536
Ni4   Ni    Ni4+2 0.369720 0.500000 0.000000 0.211589
Ni5   Ni    Ni4+2 0.000000 0.869720 0.500000 0.209984
Ni6   Ni    Ni4+2 0.130280 0.000000 0.500000 0.208149
Ni7   Ni    Ni4+2 1.000000 0.130280 0.500000 0.207912
Ni8   Ni    Ni4+2 0.869720 0.000000 0.500000 0.207438
H33   H     H_    0.932345 0.311001 0.738660 0.189060
H34   H     H_    0.657299 0.918671 0.707851 0.189178
H35   H     H_    0.177939 0.700266 0.648660 0.207403
H36   H     H_    0.323991 0.078641 0.725344 0.188470
H37   H     H_    0.926008 0.673836 0.278270 0.189588
H38   H     H_    0.673611 0.072595 0.277098 0.189613
H39   H     H_    0.074703 0.329580 0.278237 0.189683
H40   H     H_    0.312322 0.930831 0.261071 0.188360
H41   H     H_    0.286983 0.815289 0.133362 0.204093
H42   H     H_    0.183493 0.303869 0.145372 0.200840
H43   H     H_    0.699763 0.183361 0.144327 0.199900
H44   H     H_    0.816090 0.698272 0.144704 0.200043
H45   H     H_    0.304081 0.193359 0.853894 0.202120
H46   H     H_    0.170361 0.581215 0.776303 0.184161
H47   H     H_    0.670656 0.810546 0.844366 0.200637
H48   H     H_    0.817346 0.283243 0.866852 0.199535
H49   H     H_    0.420080 0.752720 0.897254 0.102471
H50   H     H_    0.277680 0.453055 0.842028 0.102587
H51   H     H_    0.567339 0.261355 0.860320 0.092997
H52   H     H_    0.727986 0.559525 0.846264 0.095970
H53   H     H_    0.435977 0.265313 0.147148 0.094220
H54   H     H_    0.262528 0.565997 0.141718 0.092365
H55   H     H_    0.562564 0.733443 0.146615 0.095796
H56   H     H_    0.735324 0.435581 0.145786 0.093165
H57   H     H_    0.920422 0.252120 0.394957 0.102195
H58   H     H_    0.748207 0.920771 0.394152 0.102539
H59   H     H_    0.077503 0.749149 0.391548 0.103558
H60   H     H_    0.251790 0.079744 0.395259 0.101611
H61   H     H_    0.918983 0.747527 0.602621 0.103431
H62   H     H_    0.748811 0.078495 0.607777 0.101677
H63   H     H_    0.078917 0.252191 0.603481 0.100856
H64   H     H_    0.218277 0.955020 0.661574 0.103468
C113  C     C_1   0.200829 0.654961 0.414342 0.061999
N33   N     N_1   0.168349 0.624027 0.463640 -0.089353
C114  C     C_1   0.348018 0.199944 0.419786 0.064522
N34   N     N_1   0.378341 0.165222 0.468093 -0.094176
C115  C     C_1   0.798849 0.347014 0.418922 0.066233
N35   N     N_1   0.833059 0.377486 0.467173 -0.091489
C116  C     C_1   0.651859 0.800327 0.416658 0.059915
N36   N     N_1   0.621368 0.834908 0.464153 -0.099113
C117  C     C_1   0.199912 0.350160 0.576961 0.065865
N37   N     N_1   0.164349 0.379729 0.528813 -0.092377
C118  C     C_1   0.198880 0.940889 0.827089 0.067046
N38   N     N_1   0.191919 0.006030 0.838598 -0.097894
C119  C     C_1   0.804916 0.649209 0.583360 0.062770
N39   N     N_1   0.843344 0.619401 0.538403 -0.093484
C120  C     C_1   0.655913 0.204553 0.584490 0.066682
N40   N     N_1   0.625025 0.173706 0.534323 -0.092035
C121  C     C_1   0.569554 0.288901 0.696810 0.078413
N41   N     N_1   0.503298 0.293681 0.690976 -0.089492
C122  C     C_1   0.714624 0.558172 0.688942 0.074148
N42   N     N_1   0.717126 0.491550 0.687006 -0.088761
C123  C     C_1   0.302695 0.849627 0.920422 0.048820
N43   N     N_1   0.340909 0.878530 0.966657 -0.101306
C124  C     C_1   0.296450 0.439737 0.679091 0.083654
N44   N     N_1   0.303410 0.505454 0.669833 -0.092633
C125  C     C_1   0.563588 0.715022 0.305088 0.074955
N45   N     N_1   0.496936 0.714588 0.307699 -0.091311
C126  C     C_1   0.712852 0.434961 0.306721 0.078582
N46   N     N_1   0.710982 0.501473 0.310451 -0.089395
C127  C     C_1   0.436567 0.285225 0.307851 0.078478
N47   N     N_1   0.503153 0.285948 0.311534 -0.089192
C128  C     C_1   0.286858 0.567937 0.303949 0.078178
N48   N     N_1   0.290493 0.501535 0.309420 -0.088501

loop_
_geom_bond_atom_site_label_1
_geom_bond_atom_site_label_2
_ccdc_geom_bond_type
C103  C119  S    
C31   C66   S    
N23   Ni3   S    
C99   C115  S    
C3    N3    A    
C57   C92   S    
C16   N16   A    
N21   Ni1   S    
N16   N29   A    
C1    N1    A    
C124  N44   T    
C28   H28   S    
C7    C55   A    
C10   N10   A    
C47   C62   A    
C48   H64   S    
N8    N21   A    
N12   Ni8   S    
C61   C96   S    
C25   H41   S    
C22   H38   S    
C33   C52   A    
C67   C83   A    
C66   C79   A    
C107  C123  S    
C21   C76   S    
C8    H8    S    
C119  N39   T    
C26   H26   S    
C20   C77   S    
C22   H22   S    
N4    N17   A    
C49   C84   S    
C5    C53   A    
C10   C58   A    
C20   H20   S    
C85   C109  A    
N3    N20   A    
C33   H49   S    
N11   Ni7   S    
C24   C73   S    
N7    Ni1   S    
C39   C54   A    
C66   C82   A    
N1    N18   A    
C44   C59   A    
N7    N24   A    
C4    N4    A    
N12   N25   A    
N5    Ni3   S    
C5    N5    A    
N2    Ni2   S    
C69   C76   A    
C101  C117  S    
C125  N45   T    
C6    H6    S    
C23   C26   S    
C21   H21   S    
C9    C57   A    
C30   H30   S    
N25   Ni7   S    
C42   N26   A    
C43   C58   A    
C19   H35   S    
C37   C56   A    
C21   H37   S    
N11   N28   A    
C28   C69   S    
C17   H33   S    
C18   C79   S    
C46   H62   S    
C47   H63   S    
N9    N26   A    
N19   Ni1   S    
C9    H9    S    
C122  N42   T    
C46   N30   A    
N27   Ni5   S    
C84   C108  A    
N17   Ni3   S    
C43   H59   S    
C121  N41   T    
N18   Ni4   S    
C30   C67   S    
C42   H58   S    
C75   C91   A    
N13   N30   A    
N6    Ni2   S    
C13   H13   S    
C24   H24   S    
C101  C108  A    
C127  N47   T    
C27   H43   S    
N29   Ni5   S    
C100  C109  A    
N4    Ni4   S    
C65   C80   A    
C15   H15   S    
C123  N43   T    
C39   N23   A    
C26   C71   S    
C8    C56   A    
C67   C78   A    
C1    H1    S    
C22   C75   S    
C6    C54   A    
C11   C59   A    
C110  C126  S    
C42   C57   A    
C31   H47   S    
C104  C105  A    
C72   C88   A    
C95   C103  A    
C20   C29   S    
C13   N13   A    
C19   H19   S    
C104  C120  S    
C81   C105  A    
C32   H32   S    
C106  C122  S    
C46   C61   A    
C17   H17   S    
C68   C84   A    
C7    H7    S    
C23   H39   S    
C112  C128  S    
C37   H53   S    
C40   H56   S    
C41   C60   A    
C116  N36   T    
N30   Ni8   S    
C114  N34   T    
C97   C112  A    
C43   N27   A    
C56   C87   S    
C37   N21   A    
C100  C116  S    
C34   N18   A    
C113  N33   T    
C99   C110  A    
C41   N25   A    
C18   H34   S    
C17   C80   S    
C35   N19   A    
C48   C63   A    
C39   H55   S    
C44   H60   S    
C59   C90   S    
C12   C60   A    
N8    Ni4   S    
C19   C78   S    
C25   H25   S    
C52   C83   S    
C44   N28   A    
C79   C95   A    
C115  N35   T    
C69   C85   A    
C45   N29   A    
C20   H36   S    
C29   C68   S    
N14   Ni6   S    
C45   H61   S    
C118  N38   T    
C63   C94   S    
C108  C124  S    
C109  C125  S    
C111  C127  S    
C40   C55   A    
C29   H29   S    
N15   Ni5   S    
C35   C50   A    
C117  N37   T    
C13   C61   A    
C102  C107  A    
C24   H40   S    
C25   C72   S    
C90   C98   A    
C24   C25   S    
C16   H16   S    
C51   C82   S    
C36   C51   A    
C76   C92   A    
C71   C87   A    
C88   C112  A    
C30   H46   S    
C21   C28   S    
C4    C52   A    
C53   C88   S    
C29   H45   S    
C22   C27   S    
C96   C104  A    
C2    C50   A    
C7    N7    A    
C11   N11   A    
C18   H18   S    
C80   C96   A    
C12   N12   A    
C23   C74   S    
C93   C101  A    
C70   C86   A    
C120  N40   T    
N20   Ni2   S    
C92   C100  A    
N31   Ni7   S    
C60   C91   S    
C68   C77   A    
C38   N22   A    
N28   Ni6   S    
C54   C85   S    
C34   C49   A    
C3    C51   A    
C98   C111  A    
C38   H54   S    
C86   C110  A    
C105  C121  S    
C4    H4    S    
C11   H11   S    
N5    N22   A    
C64   C95   S    
N9    Ni5   S    
C72   C73   A    
C10   H10   S    
C5    H5    S    
C15   N15   A    
C71   C74   A    
C128  N48   T    
C26   H42   S    
N1    Ni1   S    
C27   C70   S    
C2    N2    A    
C36   H52   S    
N2    N19   A    
C45   C64   A    
C14   H14   S    
C23   H23   S    
N15   N32   A    
C74   C90   A    
C55   C86   S    
N26   Ni8   S    
N22   Ni4   S    
C73   C89   A    
C41   H57   S    
C32   H48   S    
C3    H3    S    
C87   C111  A    
C2    H2    S    
C35   H51   S    
C38   C53   A    
C8    N8    A    
C78   C94   A    
N24   Ni2   S    
N6    N23   A    
N10   Ni6   S    
C77   C93   A    
C102  C118  S    
C28   H44   S    
C83   C107  A    
N10   N27   A    
C103  C106  A    
C97   C113  S    
C82   C106  A    
C31   H31   S    
C58   C89   S    
C27   H27   S    
C14   N14   A    
C40   N24   A    
N32   Ni6   S    
C9    N9    A    
C6    N6    A    
N3    Ni3   S    
N14   N31   A    
C34   H50   S    
C33   N17   A    
C94   C102  A    
C62   C93   S    
C89   C97   A    
C70   C75   A    
C36   N20   A    
C17   C32   S    
C15   C63   A    
C65   C81   A    
C18   C31   S    
C16   C64   A    
C91   C99   A    
C98   C114  S    
C19   C30   S    
C1    C49   A    
C12   H12   S    
N16   Ni8   S    
C47   N31   A    
C126  N46   T    
C50   C81   S    
N13   Ni7   S    
C32   C65   S    
C48   N32   A    
C14   C62   A    
