data_mof_unit_43320.cif
_audit_creation_date              2012-12-10T17:12:02-0500
_audit_creation_method            fapswitch 2.2
_symmetry_space_group_name_H-M    P1
_symmetry_Int_Tables_number       1
_space_group_crystal_system       triclinic
_cell_length_a                    11.749558
_cell_length_b                    12.989353
_cell_length_c                    15.85157
_cell_angle_alpha                 95.979568
_cell_angle_beta                  75.228206
_cell_angle_gamma                 99.254242
_cell_volume                      2303.78395454

loop_
_atom_site_label
_atom_site_type_symbol
_atom_type_description
_atom_site_fract_x
_atom_site_fract_y
_atom_site_fract_z
_atom_type_partial_charge
C1    C     C_R   0.522028 0.700822 0.497737 0.836137
C2    C     C_R   0.474979 0.300382 0.507723 0.854329
C3    C     C_R   0.354665 0.514281 0.085884 0.420577
C4    C     C_R   0.644834 0.531225 0.918309 0.452804
C5    C     C_R   0.271430 0.482976 0.034219 0.357167
C6    C     C_R   0.722591 0.574636 0.970774 0.377052
C7    C     C_R   0.454104 0.187689 0.520556 -0.373523
C8    C     C_R   0.534052 0.815147 0.496241 -0.395025
C9    C     C_R   0.642336 0.986459 0.521018 0.606969
C10   C     C_R   0.339806 0.017077 0.503939 0.610580
C11   C     C_R   0.641204 0.879145 0.502508 0.232055
C12   C     C_R   0.346132 0.125528 0.513446 0.226211
C13   C     C_R   0.436017 0.861800 0.491667 0.593662
C14   C     C_R   0.542808 0.140078 0.538832 0.576546
C15   C     C_R   0.438848 0.969957 0.505219 -0.322846
C16   C     C_R   0.541285 0.032282 0.523323 -0.298839
C17   C     C_R   0.932582 0.581024 0.595966 0.426928
C18   C     C_R   0.069671 0.420269 0.402365 0.390288
C19   C     C_R   0.817821 0.580894 0.583063 0.469758
C20   C     C_R   0.182401 0.417328 0.417812 0.507130
C21   C     C_R   0.862304 0.461775 0.457840 0.578471
C22   C     C_R   0.140322 0.544876 0.537418 0.580504
C23   C     C_R   0.428282 0.494073 0.667502 0.871954
C24   C     C_R   0.571714 0.507058 0.332475 0.894403
C25   C     C_R   0.982805 0.469215 0.464622 -0.328923
C26   C     C_R   0.018210 0.530316 0.534351 -0.288393
C27   C     C_R   0.386649 0.483721 0.762032 -0.363113
C28   C     C_R   0.613004 0.526139 0.239038 -0.367777
C29   C     C_R   0.234180 0.426804 0.889494 0.402963
C30   C     C_R   0.760576 0.606643 0.118240 0.366418
C31   C     C_R   0.272662 0.433840 0.798855 0.357132
C32   C     C_R   0.725388 0.581940 0.205767 0.399187
C33   C     C_R   0.463710 0.521533 0.815618 0.589832
C34   C     C_R   0.534713 0.497347 0.184623 0.592162
C35   C     C_R   0.434331 0.499220 0.903995 -0.165118
C36   C     C_R   0.563994 0.529722 0.098927 -0.152702
C37   C     C_R   0.313048 0.466631 0.943288 -0.239302
C38   C     C_R   0.683048 0.572892 0.062338 -0.296636
C39   C     C_R   0.519640 0.516406 0.955446 -0.124944
C40   C     C_R   0.478799 0.517062 0.047615 -0.086219
Cu1   Cu    Cu3+1 0.386820 0.492450 0.493500 1.047087
Cu2   Cu    Cu3+1 0.613180 0.507550 0.506500 1.055566
N1    N     N_R   0.216750 0.481110 0.483710 -0.297310
N2    N     N_R   0.783250 0.518890 0.516290 -0.299685
O1    O     O_R   0.419950 0.645670 0.495380 -0.526002
O2    O     O_R   0.580050 0.354330 0.504620 -0.562865
O3    O     O_R   0.611110 0.658410 0.506370 -0.531673
O4    O     O_R   0.388890 0.341590 0.493630 -0.525850
O5    O     O_R   0.350820 0.490050 0.621260 -0.592858
O6    O     O_R   0.649180 0.509950 0.378740 -0.503600
O7    O     O_R   0.541970 0.502800 0.632250 -0.503575
O8    O     O_R   0.458030 0.497200 0.367750 -0.505034
O9    O     O_3   0.151604 0.492493 0.066389 -0.574468
C41   C     C_3   0.099138 0.437746 0.142059 0.240937
H1    H     H_    0.099476 0.493212 0.200170 0.245682
H2    H     H_    0.144261 0.369793 0.146350 0.146311
C42   C     C_3   0.969959 0.397865 0.142728 -0.706942
H3    H     H_    0.964585 0.332523 0.092454 0.211209
H4    H     H_    0.922318 0.369585 0.207612 0.263430
H5    H     H_    0.925879 0.461594 0.129239 0.278922
O10   O     O_3   0.834217 0.624529 0.932241 -0.544386
C43   C     C_3   0.915434 0.551734 0.903359 0.205429
H6    H     H_    0.907992 0.515320 0.838145 0.196039
H7    H     H_    0.902127 0.489264 0.949650 0.142609
C44   C     C_3   0.040565 0.610275 0.893483 -0.660861
H8    H     H_    0.063733 0.623319 0.957768 0.274559
H9    H     H_    0.105178 0.564933 0.848020 0.215091
H10   H     H_    0.047069 0.686886 0.866342 0.231300
O11   O     O_3   0.267048 0.364992 0.359152 -0.473259
C45   C     C_3   0.221341 0.260647 0.337799 0.180913
H11   H     H_    0.174732 0.257450 0.284716 0.179074
H12   H     H_    0.159584 0.222917 0.395346 0.148427
C46   C     C_3   0.324126 0.197578 0.302760 -0.704158
H13   H     H_    0.382887 0.206785 0.348508 0.252536
H14   H     H_    0.289168 0.113520 0.294054 0.193442
H15   H     H_    0.377604 0.224837 0.238585 0.253079
O12   O     O_3   0.734100 0.633492 0.642487 -0.468929
C47   C     C_3   0.779977 0.738787 0.661185 0.225608
H16   H     H_    0.839350 0.775008 0.602033 0.149804
H17   H     H_    0.829698 0.744358 0.712670 0.198167
C48   C     C_3   0.677633 0.802232 0.697442 -0.674734
H18   H     H_    0.634938 0.785284 0.766452 0.254678
H19   H     H_    0.711579 0.887041 0.695253 0.202569
H20   H     H_    0.609567 0.782822 0.658925 0.250413
F1    F     F_    0.954119 0.618871 0.673781 -0.701585
F2    F     F_    0.049627 0.383455 0.323802 -0.717472
F3    F     F_    0.435649 0.428034 0.212205 -0.609199
F4    F     F_    0.558102 0.593535 0.784562 -0.602835
F5    F     F_    0.802705 0.611671 0.257416 -0.650691
F6    F     F_    0.195501 0.397441 0.748144 -0.686076
O13   O     O_3   0.116801 0.387991 0.925370 -0.527129
C49   C     C_3   0.098427 0.277913 0.910697 0.131890
H21   H     H_    0.107652 0.241806 0.968728 0.123054
H22   H     H_    0.161538 0.246692 0.851980 0.137681
C50   C     C_3   0.973162 0.243973 0.898479 -0.811161
H23   H     H_    0.962900 0.278875 0.840234 0.261906
H24   H     H_    0.956336 0.157482 0.888801 0.199221
H25   H     H_    0.906617 0.270052 0.956807 0.228684
O14   O     O_3   0.873572 0.658786 0.087371 -0.517496
C51   C     C_3   0.870824 0.767058 0.107225 0.163076
H26   H     H_    0.839399 0.785334 0.178920 0.134673
H27   H     H_    0.811880 0.796002 0.072639 0.137502
C52   C     C_3   0.995655 0.825402 0.077422 -0.798583
H28   H     H_    0.027715 0.814100 0.005360 0.248621
H29   H     H_    0.995113 0.910249 0.095651 0.186939
H30   H     H_    0.057145 0.796126 0.109207 0.252072
O15   O     O_3   0.314100 0.546575 0.172914 -0.530259
C53   C     C_3   0.320474 0.656392 0.181023 -0.012625
H31   H     H_    0.262774 0.682433 0.143792 0.156875
H32   H     H_    0.413620 0.694822 0.157438 0.135643
C54   C     C_3   0.277017 0.690985 0.277096 -0.618864
H33   H     H_    0.333525 0.666422 0.315762 0.278880
H34   H     H_    0.281649 0.777398 0.284929 0.211326
H35   H     H_    0.183510 0.655127 0.302432 0.244084
O16   O     O_3   0.693958 0.503889 0.831390 -0.488480
C55   C     C_3   0.689129 0.393971 0.820151 0.022470
H36   H     H_    0.595539 0.354576 0.833172 0.143408
H37   H     H_    0.735497 0.364975 0.864284 0.094711
C56   C     C_3   0.750576 0.363568 0.726208 -0.655788
H38   H     H_    0.844935 0.400355 0.711095 0.231397
H39   H     H_    0.747664 0.277354 0.716847 0.226243
H40   H     H_    0.704894 0.389432 0.680507 0.279447
F7    F     F_    0.625869 0.197582 0.576538 -0.656293
F8    F     F_    0.338370 0.802298 0.472790 -0.579602
O17   O     O_3   0.246858 0.169970 0.513505 -0.546811
C57   C     C_3   0.176220 0.176164 0.600071 0.135755
H41   H     H_    0.227891 0.220940 0.645320 0.167683
H42   H     H_    0.141255 0.096558 0.623425 0.158599
C58   C     C_3   0.070897 0.232110 0.602907 -0.701491
H43   H     H_    0.018553 0.190825 0.557117 0.247607
H44   H     H_    0.012566 0.233905 0.670104 0.210394
H45   H     H_    0.102623 0.313631 0.584333 0.234122
O18   O     O_3   0.744604 0.837243 0.494388 -0.543949
C59   C     C_3   0.806517 0.833919 0.405429 0.105637
H46   H     H_    0.835399 0.914424 0.382626 0.145606
H47   H     H_    0.750402 0.788085 0.363600 0.153446
C60   C     C_3   0.916644 0.781328 0.394468 -0.648914
H48   H     H_    0.890445 0.699934 0.414823 0.252128
H49   H     H_    0.966852 0.779399 0.324843 0.213434
H50   H     H_    0.975018 0.825240 0.435111 0.255160
F9    F     F_    0.744571 0.045697 0.532082 -0.628062
F10   F     F_    0.237124 0.959296 0.492210 -0.604476
O19   O     O_3   0.187495 0.644650 0.563695 -0.491459
C61   C     C_3   0.199570 0.654230 0.650693 0.247009
H51   H     H_    0.293239 0.652953 0.650303 0.136835
H52   H     H_    0.142626 0.592452 0.692298 0.173137
C62   C     C_3   0.175628 0.762900 0.691255 -0.740654
H53   H     H_    0.082501 0.774493 0.697215 0.286178
H54   H     H_    0.194274 0.774389 0.757032 0.160349
H55   H     H_    0.235163 0.823576 0.650113 0.265365
O20   O     O_3   0.824879 0.401316 0.389819 -0.506132
C63   C     C_3   0.811946 0.293768 0.404506 0.171480
H56   H     H_    0.769019 0.279247 0.473241 0.213925
H57   H     H_    0.898128 0.263551 0.390400 0.167274
C64   C     C_3   0.739032 0.229645 0.345374 -0.775069
H58   H     H_    0.790415 0.230708 0.276222 0.224645
H59   H     H_    0.717580 0.147264 0.363625 0.202129
H60   H     H_    0.655112 0.261560 0.351189 0.238903

loop_
_geom_bond_atom_site_label_1
_geom_bond_atom_site_label_2
_ccdc_geom_bond_type
C24   O8    A    
C57   H41   S    
C5    C37   A    
C64   H59   S    
C1    C8    S    
C46   H14   S    
Cu1   Cu2   S    
C4    O16   S    
C54   H33   S    
C48   H20   S    
C59   C60   S    
C48   H18   S    
C42   H3    S    
C50   H25   S    
C27   C33   A    
O12   C47   S    
C55   H36   S    
C60   H49   S    
C8    C13   A    
C17   F1    S    
C17   C26   A    
C6    O10   S    
C5    O9    S    
C62   H54   S    
C33   F4    S    
C10   C15   A    
C11   O18   S    
C10   F10   S    
C47   H17   S    
C23   O5    A    
O16   C55   S    
C53   H31   S    
C30   C38   A    
C46   H13   S    
C19   O12   S    
C51   H26   S    
C43   H7    S    
C52   H28   S    
C62   H53   S    
C17   C19   A    
C52   H29   S    
C7    C14   A    
C2    C7    S    
C53   H32   S    
C44   H9    S    
C22   O19   S    
O20   C63   S    
C6    C38   A    
C45   H11   S    
C23   C27   S    
C54   H35   S    
Cu1   O8    S    
C18   C20   A    
Cu2   O7    S    
Cu2   O3    S    
C58   H45   S    
C44   H10   S    
C21   O20   S    
C28   C34   A    
C64   H60   S    
Cu1   N1    S    
O10   C43   S    
C18   C25   A    
Cu2   N2    S    
C61   C62   S    
Cu1   O5    S    
C48   H19   S    
C56   H39   S    
C24   O6    A    
C7    C12   A    
C60   H50   S    
C41   H2    S    
C15   C16   A    
C27   C31   A    
C55   C56   S    
C36   C40   A    
C62   H55   S    
C61   H52   S    
O13   C49   S    
C13   F8    S    
C9    F9    S    
C47   H16   S    
C1    O3    A    
C42   H5    S    
C59   H47   S    
C12   O17   S    
C57   C58   S    
C2    O4    A    
C25   C26   A    
O9    C41   S    
C30   O14   S    
C49   C50   S    
C2    O2    A    
C35   C39   A    
C43   H6    S    
C21   N2    A    
C23   O7    A    
C32   F5    S    
C63   C64   S    
C28   C32   A    
O15   C53   S    
C31   F6    S    
C45   C46   S    
C51   H27   S    
C54   H34   S    
C18   F2    S    
C9    C11   A    
C10   C12   A    
Cu2   O6    S    
C4    C6    A    
C63   H57   S    
C3    C40   A    
C13   C15   A    
Cu2   O2    S    
O17   C57   S    
C46   H15   S    
C14   C16   A    
C20   O11   S    
C29   O13   S    
C20   N1    A    
C19   N2    A    
C58   H43   S    
C56   H40   S    
C21   C25   A    
C41   H1    S    
C57   H42   S    
C14   F7    S    
C43   C44   S    
C35   C37   A    
C9    C16   A    
C24   C28   S    
C61   H51   S    
C3    C5    A    
C56   H38   S    
C50   H24   S    
C59   H46   S    
C60   H48   S    
C4    C39   A    
C53   C54   S    
C3    O15   S    
C36   C38   A    
C50   H23   S    
C29   C31   A    
O14   C51   S    
C30   C32   A    
C47   C48   S    
C1    O1    A    
C49   H22   S    
O18   C59   S    
C8    C11   A    
C49   H21   S    
C33   C35   A    
Cu1   O4    S    
C55   H37   S    
C52   H30   S    
C34   C36   A    
C34   F3    S    
C51   C52   S    
O11   C45   S    
C42   H4    S    
C39   C40   A    
C63   H56   S    
C44   H8    S    
C22   C26   A    
C29   C37   A    
C64   H58   S    
Cu1   O1    S    
C45   H12   S    
C22   N1    A    
O19   C61   S    
C58   H44   S    
C41   C42   S    
