data_mof_unit_6866.cif
_audit_creation_date              2012-12-10T19:45:04-0500
_audit_creation_method            fapswitch 2.2
_symmetry_space_group_name_H-M    P1
_symmetry_Int_Tables_number       1
_space_group_crystal_system       triclinic
_cell_length_a                    15.075849
_cell_length_b                    10.806839
_cell_length_c                    13.819111
_cell_angle_alpha                 88.35577
_cell_angle_beta                  90.22523
_cell_angle_gamma                 88.524803
_cell_volume                      2249.74350307

loop_
_atom_site_label
_atom_site_type_symbol
_atom_type_description
_atom_site_fract_x
_atom_site_fract_y
_atom_site_fract_z
_atom_type_partial_charge
C1    C     C_R   0.498253 0.262500 0.500818 0.824236
C2    C     C_R   0.501746 0.737500 0.499181 0.824211
C3    C     C_R   0.047216 0.414087 0.665335 -0.114422
C4    C     C_R   0.952786 0.585940 0.334676 -0.114415
C5    C     C_R   0.261747 0.258851 0.312044 -0.183547
C6    C     C_R   0.738274 0.741189 0.687948 -0.183566
C7    C     C_R   0.312638 0.193589 0.382358 0.621390
C8    C     C_R   0.687374 0.806438 0.617636 0.621391
C9    C     C_R   0.392268 0.133039 0.356240 -0.014821
C10   C     C_R   0.607734 0.866961 0.643755 -0.014824
C11   C     C_R   0.419871 0.138171 0.259287 -0.164028
C12   C     C_R   0.580128 0.861810 0.740707 -0.164031
C13   C     C_R   0.369295 0.204874 0.189600 -0.144841
C14   C     C_R   0.630712 0.795117 0.810392 -0.144843
C15   C     C_R   0.290375 0.265335 0.215993 -0.196707
C16   C     C_R   0.709644 0.734687 0.783998 -0.196698
C17   C     C_R   0.452712 0.938229 0.429721 -0.227754
C18   C     C_R   0.547284 0.061771 0.570279 -0.227743
C19   C     C_R   0.503927 0.871415 0.498584 -0.017171
C20   C     C_R   0.496070 0.128585 0.501416 -0.017165
C21   C     C_R   0.551738 0.933397 0.569851 0.089929
C22   C     C_R   0.448260 0.066603 0.430148 0.089931
C23   C     C_R   0.328749 0.499107 0.500040 0.884953
C24   C     C_R   0.671251 0.500895 0.499961 0.884925
C25   C     C_R   0.549587 0.412205 0.797560 0.233007
C26   C     C_R   0.450412 0.587794 0.202439 0.232995
C27   C     C_R   0.449606 0.586205 0.791009 0.793682
C28   C     C_R   0.550395 0.413796 0.208991 0.793709
C29   C     C_R   0.448576 0.588670 0.893806 -0.232310
C30   C     C_R   0.551426 0.411331 0.106194 -0.232308
C31   C     C_R   0.500289 0.500696 0.948373 -0.077123
C32   C     C_R   0.499713 0.499304 0.051626 -0.077125
C33   C     C_R   0.551777 0.412891 0.899918 -0.031342
C34   C     C_R   0.448224 0.587109 0.100081 -0.031337
C35   C     C_R   0.397081 0.676245 0.943696 0.648699
C36   C     C_R   0.602920 0.323756 0.056304 0.648710
C37   C     C_R   0.397133 0.675363 0.045042 -0.242466
C38   C     C_R   0.602868 0.324636 0.954957 -0.242471
C39   C     C_R   0.813643 0.544933 0.416938 0.635221
C40   C     C_R   0.186358 0.455057 0.583061 0.635239
C41   C     C_R   0.768073 0.502094 0.499522 -0.158151
C42   C     C_R   0.231927 0.497919 0.500482 -0.158160
C43   C     C_R   0.815216 0.459488 0.581960 -0.360880
C44   C     C_R   0.184783 0.540562 0.418057 -0.360888
C45   C     C_R   0.907584 0.458451 0.582728 0.116525
C46   C     C_R   0.092416 0.541594 0.417289 0.116540
C47   C     C_R   0.953438 0.500634 0.499829 0.020983
C48   C     C_R   0.046562 0.499396 0.500183 0.020983
C49   C     C_R   0.906312 0.544125 0.416623 -0.020932
C50   C     C_R   0.093688 0.455890 0.583385 -0.020944
C51   C     C_R   0.954788 0.415515 0.664993 -0.190814
C52   C     C_R   0.045212 0.584539 0.335027 -0.190815
Cu1   Cu    Cu3+1 0.500010 0.499980 0.597420 1.037931
Cu2   Cu    Cu3+1 0.499990 0.500020 0.402580 1.037932
H1    H     H_    0.413069 0.890531 0.377899 0.139576
H2    H     H_    0.586926 0.109469 0.622103 0.139577
H3    H     H_    0.356425 0.744749 0.080027 0.197360
H4    H     H_    0.643575 0.255250 0.919972 0.197361
H5    H     H_    0.780014 0.426426 0.645496 0.178817
H6    H     H_    0.219987 0.573651 0.354529 0.178793
H7    H     H_    0.920204 0.382937 0.729051 0.154213
H8    H     H_    0.079799 0.617137 0.270976 0.154214
H9    H     H_    0.082100 0.380384 0.729912 0.205919
H10   H     H_    0.917903 0.619640 0.270098 0.205923
H11   H     H_    0.251253 0.316886 0.161969 0.169239
H12   H     H_    0.748775 0.683147 0.838021 0.169239
H13   H     H_    0.200081 0.304545 0.331945 0.167520
H14   H     H_    0.799951 0.695522 0.668048 0.167527
H15   H     H_    0.481284 0.092451 0.238161 0.197094
H16   H     H_    0.518706 0.907508 0.761832 0.197110
H17   H     H_    0.391449 0.210039 0.115210 0.162398
H18   H     H_    0.608557 0.789937 0.884780 0.162394
N1    N     N_R   0.499960 0.499900 0.743810 -0.257367
N2    N     N_R   0.500040 0.500100 0.256190 -0.257371
O1    O     O_R   0.500000 0.319630 0.582270 -0.603694
O2    O     O_R   0.500000 0.680370 0.417730 -0.603700
O3    O     O_R   0.499990 0.319660 0.417730 -0.543766
O4    O     O_R   0.500010 0.680340 0.582270 -0.543762
O5    O     O_R   0.370260 0.499960 0.582280 -0.474789
O6    O     O_R   0.629740 0.500040 0.417720 -0.474778
O7    O     O_R   0.370250 0.499990 0.417740 -0.636873
O8    O     O_R   0.629750 0.500010 0.582260 -0.636878
F1    F     F_    0.768112 0.589412 0.337617 -0.627730
F2    F     F_    0.231893 0.410523 0.662363 -0.627719
N3    N     N_3   0.593739 0.310144 0.753064 -0.607578
H19   H     H_    0.630842 0.337863 0.693648 0.256129
H20   H     H_    0.546382 0.245472 0.736211 0.246881
N4    N     N_3   0.406256 0.689851 0.246935 -0.607584
H21   H     H_    0.369136 0.662122 0.306335 0.256108
H22   H     H_    0.453613 0.754513 0.263809 0.246897
F3    F     F_    0.398654 0.668485 0.738081 -0.585543
F4    F     F_    0.601347 0.331517 0.261918 -0.585526
F5    F     F_    0.346533 0.763548 0.895185 -0.603235
F6    F     F_    0.653468 0.236452 0.104814 -0.603228
F7    F     F_    0.284394 0.189139 0.475501 -0.663823
F8    F     F_    0.715618 0.810902 0.524494 -0.663829

loop_
_geom_bond_atom_site_label_1
_geom_bond_atom_site_label_2
_ccdc_geom_bond_type
C27   C29   A    
C18   C21   A    
C1    O3    A    
C40   F2    S    
C8    F8    S    
C5    H13   S    
C28   N2    A    
C39   C41   A    
Cu1   Cu2   S    
C23   C42   S    
C4    C52   A    
Cu1   O5    S    
C9    C22   S    
C45   C51   A    
C34   C37   A    
C46   C52   A    
C45   C47   A    
C24   O8    A    
C12   H16   S    
C24   O6    A    
Cu2   N2    S    
C26   C34   A    
C47   C48   A    
C51   H7    S    
C31   C33   A    
C27   F3    S    
C17   H1    S    
C18   C20   A    
C43   H5    S    
Cu2   O3    S    
C6    H14   S    
C38   H4    S    
C24   C41   S    
C41   C43   A    
Cu1   O1    S    
C42   C44   A    
C3    C50   A    
C44   C46   A    
Cu2   O6    S    
C35   F5    S    
C10   C21   S    
C46   C48   A    
N3    H20   S    
C1    O1    A    
C47   C49   A    
C5    C7    A    
C3    C51   A    
C17   C19   A    
C6    C8    A    
C13   H17   S    
N3    H19   S    
Cu1   O8    S    
C32   C34   A    
C2    O4    A    
C43   C45   A    
C31   C32   A    
C25   N3    S    
C28   F4    S    
C18   H2    S    
C9    C11   A    
C10   C12   A    
Cu2   O2    S    
C8    C10   A    
C39   C49   A    
N4    H22   S    
C13   C15   A    
C14   C16   A    
C16   H12   S    
C2    O2    A    
C7    C9    A    
C4    H10   S    
C1    C20   S    
C23   O7    A    
C35   C37   A    
C2    C19   S    
C14   H18   S    
Cu1   N1    S    
C33   C38   A    
C20   C22   A    
C40   C42   A    
C11   H15   S    
C3    H9    S    
C7    F7    S    
C29   C35   A    
C17   C22   A    
C30   C36   A    
C4    C49   A    
C36   C38   A    
Cu1   O4    S    
C12   C14   A    
C39   F1    S    
C28   C30   A    
C29   C31   A    
C52   H8    S    
C30   C32   A    
C11   C13   A    
C44   H6    S    
C40   C50   A    
C48   C50   A    
C26   N2    A    
C25   N1    A    
C5    C15   A    
C6    C16   A    
C36   F6    S    
N4    H21   S    
C26   N4    S    
C23   O5    A    
C27   N1    A    
Cu2   O7    S    
C37   H3    S    
C25   C33   A    
C19   C21   A    
C15   H11   S    
