data_mof_unit_28387.cif
_audit_creation_date              2012-12-10T17:32:13-0500
_audit_creation_method            fapswitch 2.2
_symmetry_space_group_name_H-M    P1
_symmetry_Int_Tables_number       1
_space_group_crystal_system       triclinic
_cell_length_a                    12.300906
_cell_length_b                    13.209584
_cell_length_c                    15.030959
_cell_angle_alpha                 76.654313
_cell_angle_beta                  101.52191
_cell_angle_gamma                 116.501883
_cell_volume                      2113.5406896

loop_
_atom_site_label
_atom_site_type_symbol
_atom_type_description
_atom_site_fract_x
_atom_site_fract_y
_atom_site_fract_z
_atom_type_partial_charge
C1    C     C_R   0.854901 0.286605 0.507029 0.780132
C2    C     C_R   0.091901 0.596095 0.090110 -0.044494
C3    C     C_R   0.811562 0.332414 0.049310 -0.208037
C4    C     C_R   0.810009 0.335134 0.956335 -0.204542
C5    C     C_R   0.908219 0.417472 0.908375 0.048278
C6    C     C_R   0.002482 0.506872 0.952299 -0.083305
C7    C     C_R   0.098063 0.595937 0.903267 -0.074317
C8    C     C_R   0.189727 0.686052 0.948579 0.466626
C9    C     C_R   0.183582 0.685350 0.040865 -0.288233
C10   C     C_R   0.913400 0.412265 0.817167 0.332896
C11   C     C_R   0.004266 0.502942 0.767553 -0.275702
C12   C     C_R   0.001682 0.502009 0.670765 0.926130
C13   C     C_R   0.099640 0.591865 0.810389 0.372634
C14   C     C_R   0.270134 0.030160 0.401028 -0.143828
C15   C     C_R   0.227837 0.835581 0.474350 -0.030647
C16   C     C_R   0.818530 0.082892 0.555311 -0.210344
C17   C     C_R   0.741071 0.967158 0.569400 -0.162778
C18   C     C_R   0.616464 0.930596 0.541902 -0.167211
C19   C     C_R   0.566950 0.009752 0.495512 0.087448
C20   C     C_R   0.648768 0.125593 0.471103 0.015379
C21   C     C_R   0.439323 0.977984 0.472141 0.000457
C22   C     C_R   0.396450 0.059934 0.419364 0.063366
C23   C     C_R   0.145097 0.713616 0.488220 0.817552
C24   C     C_R   0.479770 0.168420 0.382386 0.404451
C25   C     C_R   0.604685 0.199410 0.407830 -0.278173
C26   C     C_R   0.352592 0.867163 0.500633 -0.216093
C27   C     C_R   0.186273 0.918429 0.427697 -0.224340
C28   C     C_R   0.773276 0.163735 0.509015 -0.086860
C29   C     C_R   0.347574 0.328482 0.648735 -0.299713
C30   C     C_R   0.756203 0.642371 0.372388 -0.046850
C31   C     C_R   0.655342 0.668618 0.341342 0.401080
C32   C     C_R   0.551222 0.610251 0.387764 -0.293094
C33   C     C_R   0.548728 0.529827 0.467914 -0.056282
C34   C     C_R   0.000604 0.500840 0.329158 0.903204
C35   C     C_R   0.652925 0.504145 0.495710 0.253243
C36   C     C_R   0.445622 0.472160 0.520095 0.004003
C37   C     C_R   0.446958 0.386833 0.596702 0.161357
C38   C     C_R   0.547548 0.360409 0.621164 -0.256233
C39   C     C_R   0.648305 0.418062 0.572125 -0.126821
C40   C     C_R   0.341183 0.496370 0.500707 0.011990
C41   C     C_R   0.247483 0.355501 0.625508 0.058213
C42   C     C_R   0.088058 0.596440 0.182839 0.337790
C43   C     C_R   0.001493 0.501676 0.232827 -0.255956
C44   C     C_R   0.915085 0.408480 0.190666 0.316145
C45   C     C_R   0.908128 0.415668 0.095409 0.045129
C46   C     C_R   0.000721 0.506540 0.045818 -0.016124
Cu1   Cu    Cu3+1 0.098270 0.475420 0.521130 0.924163
Cu2   Cu    Cu3+1 0.901730 0.524580 0.478870 0.936872
H1    H     H_    0.235777 0.091760 0.362292 0.180239
H2    H     H_    0.379559 0.802528 0.542453 0.134593
H3    H     H_    0.913915 0.109181 0.582261 0.165380
H4    H     H_    0.562381 0.839575 0.556491 0.119857
H5    H     H_    0.777267 0.905497 0.604628 0.146751
H6    H     H_    0.666631 0.281251 0.375454 0.203948
H7    H     H_    0.548942 0.294782 0.679476 0.168458
H8    H     H_    0.347549 0.262747 0.707244 0.143645
H9    H     H_    0.333619 0.561804 0.445202 0.136953
H10   H     H_    0.835361 0.684752 0.334666 0.140363
H11   H     H_    0.472306 0.626584 0.357951 0.157714
H12   H     H_    0.720282 0.391316 0.596450 0.228923
H13   H     H_    0.736776 0.264832 0.084992 0.172817
H14   H     H_    0.732596 0.270484 0.922721 0.167135
H15   H     H_    0.251285 0.755786 0.074044 0.178439
H16   H     H_    0.089677 0.895788 0.407681 0.153331
N1    N     N_R   0.246280 0.438190 0.553160 -0.188286
N2    N     N_R   0.754320 0.561190 0.447410 -0.238743
O1    O     O_R   0.972510 0.318130 0.526570 -0.602204
O2    O     O_R   0.806530 0.359650 0.490890 -0.597741
O3    O     O_R   0.082980 0.479210 0.647590 -0.619435
O4    O     O_R   0.917000 0.520730 0.611900 -0.578214
O5    O     O_R   0.193470 0.640350 0.509110 -0.603853
O6    O     O_R   0.027490 0.681870 0.473430 -0.591116
O7    O     O_R   0.083000 0.479270 0.388100 -0.580941
O8    O     O_R   0.917020 0.520790 0.352410 -0.595125
O9    O     O_3   0.171541 0.687725 0.225847 -0.617533
C47   C     C_3   0.128616 0.774488 0.206979 0.039853
H17   H     H_    0.069346 0.759084 0.260186 0.146234
H18   H     H_    0.074949 0.778314 0.137812 0.146341
C48   C     C_3   0.238070 0.890334 0.210338 -0.329731
H19   H     H_    0.285002 0.892826 0.281436 0.233781
H20   H     H_    0.303974 0.901498 0.164100 0.214819
C49   C     C_3   0.198929 0.988676 0.180313 -0.931579
H21   H     H_    0.159848 0.991937 0.106941 0.255987
H22   H     H_    0.279541 0.070882 0.188330 0.256114
H23   H     H_    0.129533 0.977565 0.223181 0.256161
O10   O     O_3   0.437374 0.246870 0.328075 -0.616149
C50   C     C_3   0.485489 0.289539 0.242042 0.013340
H24   H     H_    0.407198 0.273953 0.187216 0.158376
H25   H     H_    0.539308 0.246438 0.228414 0.149231
C51   C     C_3   0.562609 0.419027 0.233751 -0.292478
H26   H     H_    0.505055 0.461317 0.240844 0.235867
H27   H     H_    0.639306 0.437682 0.289692 0.231372
C52   C     C_3   0.614755 0.469244 0.141456 -0.889298
H28   H     H_    0.673851 0.429137 0.133399 0.269366
H29   H     H_    0.670694 0.562941 0.138202 0.266151
H30   H     H_    0.539691 0.454752 0.084052 0.247513
H31   H     H_    0.170599 0.310868 0.665399 0.129041
O11   O     O_3   0.837195 0.310053 0.241986 -0.636457
C53   C     C_3   0.901434 0.242883 0.288225 0.052293
H32   H     H_    0.847601 0.180352 0.343442 0.163574
H33   H     H_    0.992261 0.293990 0.323115 0.157899
C54   C     C_3   0.916760 0.176298 0.223950 -0.360773
H34   H     H_    0.826268 0.124064 0.189840 0.218150
H35   H     H_    0.974891 0.236714 0.169866 0.222526
C55   C     C_3   0.977713 0.098508 0.277039 -0.950141
H36   H     H_    0.072631 0.151151 0.304400 0.267215
H37   H     H_    0.980256 0.045883 0.230345 0.251875
H38   H     H_    0.926341 0.040456 0.335237 0.250258
O12   O     O_3   0.653677 0.741955 0.259497 -0.622072
C56   C     C_3   0.677958 0.851212 0.277279 0.036772
H39   H     H_    0.731517 0.915331 0.222281 0.181027
H40   H     H_    0.735438 0.871803 0.343899 0.126578
C57   C     C_3   0.558951 0.864242 0.273360 -0.342142
H41   H     H_    0.493777 0.827256 0.214294 0.239458
H42   H     H_    0.516108 0.817930 0.337771 0.211343
C58   C     C_3   0.583061 0.989851 0.263501 -0.911533
H43   H     H_    0.655049 0.030610 0.317696 0.270704
H44   H     H_    0.498939 0.996629 0.271090 0.248450
H45   H     H_    0.611754 0.036407 0.194718 0.253690
O13   O     O_3   0.827507 0.321634 0.773674 -0.629274
C59   C     C_3   0.847017 0.220746 0.808535 0.022041
H46   H     H_    0.762394 0.147157 0.787609 0.176279
H47   H     H_    0.861887 0.203454 0.884912 0.142351
C60   C     C_3   0.954070 0.223492 0.769177 -0.362586
H48   H     H_    0.940464 0.242645 0.693368 0.240774
H49   H     H_    0.040985 0.291668 0.794339 0.201938
C61   C     C_3   0.963864 0.108987 0.797405 -0.929129
H50   H     H_    0.979556 0.088777 0.873514 0.259209
H51   H     H_    0.041841 0.113712 0.767440 0.252327
H52   H     H_    0.878870 0.039225 0.771750 0.261843
O14   O     O_3   0.188179 0.680651 0.759288 -0.572793
C62   C     C_3   0.287356 0.656396 0.750534 0.109640
H53   H     H_    0.370845 0.738188 0.750647 0.158321
H54   H     H_    0.275757 0.634380 0.681616 0.177079
C63   C     C_3   0.313256 0.564485 0.824789 -0.430436
H55   H     H_    0.324611 0.585127 0.894477 0.215991
H56   H     H_    0.236101 0.478875 0.820699 0.210494
C64   C     C_3   0.429443 0.557985 0.810970 -0.899772
H57   H     H_    0.421408 0.537990 0.741471 0.265355
H58   H     H_    0.444194 0.489414 0.863320 0.258875
H59   H     H_    0.509750 0.640775 0.818697 0.249781
O15   O     O_3   0.275924 0.780680 0.899323 -0.564803
C65   C     C_3   0.397180 0.808974 0.942826 0.049956
H60   H     H_    0.451944 0.806560 0.893591 0.163675
H61   H     H_    0.406079 0.747936 0.005917 0.122246
C66   C     C_3   0.452828 0.931050 0.964618 -0.329927
H62   H     H_    0.443677 0.990830 0.901106 0.232346
H63   H     H_    0.402966 0.935165 0.016676 0.203868
C67   C     C_3   0.587945 0.970062 0.001151 -0.951638
H64   H     H_    0.599882 0.910861 0.064027 0.275220
H65   H     H_    0.624602 0.057458 0.018589 0.244133
H66   H     H_    0.640821 0.972498 0.948183 0.253704

loop_
_geom_bond_atom_site_label_1
_geom_bond_atom_site_label_2
_ccdc_geom_bond_type
C16   C28   A    
C65   C66   S    
C50   H24   S    
C52   H28   S    
C63   C64   S    
C19   C20   A    
C16   H3    S    
C21   C26   A    
C33   C36   A    
C18   H4    S    
C63   H55   S    
C45   C46   A    
C2    C46   A    
C55   H37   S    
C42   O9    S    
C36   C37   A    
C19   C21   A    
C47   H18   S    
C57   H41   S    
C26   H2    S    
C30   C31   A    
C14   H1    S    
C20   C25   A    
C65   H60   S    
C4    H14   S    
C1    O2    A    
C58   H43   S    
C54   C55   S    
C63   H56   S    
C18   C19   A    
C56   H39   S    
Cu1   O3    S    
C59   C60   S    
C1    O1    A    
C51   H27   S    
C38   H7    S    
Cu1   Cu2   S    
C16   C17   A    
C1    C28   S    
C47   C48   S    
C14   C27   A    
C57   C58   S    
C15   C23   S    
C52   H29   S    
C21   C22   A    
C44   O11   S    
Cu2   O6    S    
Cu1   O1    S    
C66   H63   S    
C3    H13   S    
C13   O14   S    
C38   C39   A    
C55   H38   S    
Cu2   O8    S    
C36   C40   A    
C10   O13   S    
C24   C25   A    
Cu1   O7    S    
C27   H16   S    
C67   H66   S    
C48   H20   S    
O10   C50   S    
C8    C9    A    
C15   C26   A    
C41   N1    A    
C20   C28   A    
C35   N2    A    
C3    C45   A    
Cu2   O2    S    
C3    C4    A    
C35   C39   A    
O9    C47   S    
C61   H51   S    
C37   C38   A    
C23   O5    A    
C66   C67   S    
C15   C27   A    
C53   H32   S    
C17   C18   A    
C31   O12   S    
C47   H17   S    
C54   H35   S    
C56   C57   S    
Cu1   O5    S    
C59   H46   S    
C30   N2    A    
C64   H58   S    
C25   H6    S    
C34   O8    A    
C60   C61   S    
C53   H33   S    
C12   O3    A    
O11   C53   S    
C52   H30   S    
C49   H22   S    
C40   N1    A    
C50   H25   S    
C43   C44   A    
C41   H31   S    
C42   C43   A    
C61   H50   S    
C17   H5    S    
C44   C45   A    
C51   C52   S    
C60   H49   S    
C66   H62   S    
C65   H61   S    
C12   O4    A    
C40   H9    S    
C6    C46   A    
C29   C41   A    
C9    H15   S    
C23   O6    A    
C31   C32   A    
C34   C43   S    
Cu2   O4    S    
C4    C5    A    
C64   H59   S    
C48   C49   S    
C11   C12   S    
C6    C7    A    
C29   H8    S    
C49   H23   S    
C55   H36   S    
C58   H45   S    
C10   C11   A    
C32   C33   A    
C14   C22   A    
C67   H65   S    
C61   H52   S    
C5    C10   A    
O12   C56   S    
C11   C13   A    
C51   H26   S    
C5    C6    A    
C2    C42   A    
C62   C63   S    
C39   H12   S    
C30   H10   S    
C33   C35   A    
C58   H44   S    
C62   H53   S    
C22   C24   A    
C54   H34   S    
C56   H40   S    
C59   H47   S    
C7    C8    A    
C64   H57   S    
C34   O7    A    
C48   H19   S    
C7    C13   A    
C53   C54   S    
C62   H54   S    
C49   H21   S    
C50   C51   S    
C29   C37   A    
O15   C65   S    
O13   C59   S    
C8    O15   S    
C32   H11   S    
Cu2   N2    S    
C67   H64   S    
C2    C9    A    
C24   O10   S    
Cu1   N1    S    
O14   C62   S    
C60   H48   S    
C57   H42   S    
