data_mof_unit_47543.cif
_audit_creation_date              2012-12-10T21:01:49-0500
_audit_creation_method            fapswitch 2.2
_symmetry_space_group_name_H-M    P1
_symmetry_Int_Tables_number       1
_space_group_crystal_system       triclinic
_cell_length_a                    22.16064
_cell_length_b                    22.38175
_cell_length_c                    22.123512
_cell_angle_alpha                 108.111593
_cell_angle_beta                  109.537196
_cell_angle_gamma                 110.480973
_cell_volume                      8473.8308687

loop_
_atom_site_label
_atom_site_type_symbol
_atom_type_description
_atom_site_fract_x
_atom_site_fract_y
_atom_site_fract_z
_atom_type_partial_charge
C1    C     C_R   0.699318 0.849686 0.349729 0.802524
C2    C     C_R   0.300782 0.150205 0.650114 0.813267
C3    C     C_3   0.542229 0.500366 0.473264 -0.223758
C4    C     C_3   0.456350 0.507197 0.534679 -0.267007
C5    C     C_3   0.496728 0.539053 0.465385 -0.081943
C6    C     C_3   0.502969 0.468824 0.542537 -0.115030
C7    C     C_1   0.496798 0.578657 0.423995 0.098178
C8    C     C_1   0.504144 0.427430 0.582131 0.035342
C9    C     C_3   0.976108 0.434420 0.014640 0.261121
C10   C     C_3   0.022504 0.543052 0.983211 0.322795
C11   C     C_3   0.028007 0.446668 0.980825 0.309539
C12   C     C_3   0.973117 0.532548 0.018503 0.315053
C13   C     C_1   0.221385 0.608631 0.111005 -0.137966
C14   C     C_1   0.778265 0.385751 0.887693 -0.174718
C15   C     C_3   0.023466 0.516777 0.070813 0.323068
C16   C     C_3   0.976595 0.461338 0.927585 0.322753
C17   C     C_3   0.074052 0.529056 0.036566 -0.216610
C18   C     C_3   0.925193 0.450469 0.961713 -0.267640
C19   C     C_1   0.154845 0.572918 0.077419 0.112927
C20   C     C_1   0.844601 0.414915 0.920531 0.043749
C21   C     C_R   0.294513 0.554914 0.913570 -0.190138
C22   C     C_R   0.730809 0.464641 0.091744 -0.177083
C23   C     C_R   0.300486 0.650208 0.150455 0.825230
C24   C     C_R   0.699416 0.349828 0.849442 0.802418
C25   C     C_R   0.340388 0.524121 0.924146 0.466673
C26   C     C_R   0.683414 0.488042 0.059678 0.437344
C27   C     C_R   0.416857 0.567308 0.950824 0.067385
C28   C     C_R   0.610821 0.458315 0.049461 0.083501
C29   C     C_R   0.445399 0.637852 0.959490 -0.334054
C30   C     C_R   0.584532 0.402172 0.065798 -0.281937
C31   C     C_R   0.399429 0.667209 0.944491 0.524624
C32   C     C_R   0.630336 0.376684 0.094744 0.473834
C33   C     C_R   0.324314 0.626885 0.924562 -0.147017
C34   C     C_R   0.703567 0.407838 0.107735 -0.137158
C35   C     C_R   0.475300 0.493477 0.925591 0.433356
C36   C     C_R   0.561972 0.541067 0.074964 0.403542
C37   C     C_R   0.513027 0.457694 0.946902 -0.274890
C38   C     C_R   0.510048 0.563661 0.053003 -0.263709
C39   C     C_R   0.561384 0.486055 0.022436 -0.068639
C40   C     C_R   0.468592 0.541658 0.977420 -0.053291
C41   C     C_3   0.023195 0.000593 0.572740 0.332543
C42   C     C_3   0.977371 0.988846 0.438379 0.287511
C43   C     C_3   0.973012 0.028321 0.539456 0.355775
C44   C     C_3   0.027458 0.960231 0.471426 0.272899
C45   C     C_R   0.498419 0.889750 0.389336 0.824613
C46   C     C_R   0.502435 0.110385 0.611444 0.828963
C47   C     C_1   0.778412 0.888757 0.390151 -0.155933
C48   C     C_1   0.221868 0.110371 0.612629 -0.164625
C49   C     C_3   0.975868 0.927925 0.499962 0.314929
C50   C     C_3   0.023930 0.060910 0.511111 0.299588
C51   C     C_3   0.925695 0.956223 0.466542 -0.227363
C52   C     C_3   0.074728 0.033259 0.544515 -0.259876
C53   C     C_1   0.844937 0.919905 0.424448 0.102453
C54   C     C_1   0.155455 0.075594 0.581816 0.053551
C55   C     C_3   0.458917 0.032899 0.009954 -0.039768
C56   C     C_3   0.539308 0.969993 0.992432 -0.051941
C57   C     C_3   0.429259 0.950034 0.974804 -0.055538
C58   C     C_3   0.568945 0.052878 0.027667 -0.047256
C59   C     C_1   0.499559 0.889015 0.110458 -0.061622
C60   C     C_1   0.499361 0.111824 0.890189 -0.111070
C61   C     C_3   0.528853 0.046448 0.072565 -0.047721
C62   C     C_3   0.469323 0.956442 0.929899 -0.055733
C63   C     C_3   0.499215 0.963570 0.037339 0.020099
C64   C     C_3   0.498997 0.039250 0.965143 0.036062
C65   C     C_1   0.499334 0.922449 0.077259 -0.008815
C66   C     C_1   0.499112 0.079424 0.924359 -0.013419
C67   C     C_R   0.502122 0.611769 0.109490 0.863237
C68   C     C_R   0.502772 0.392767 0.890350 0.821002
C69   C     C_R   0.324280 0.740710 0.429054 -0.177503
C70   C     C_R   0.688937 0.250310 0.560381 -0.181386
C71   C     C_R   0.361103 0.814072 0.445710 0.413924
C72   C     C_R   0.649458 0.181584 0.554065 0.397182
C73   C     C_R   0.439417 0.854615 0.483437 -0.009528
C74   C     C_R   0.571411 0.146859 0.522652 0.012163
C75   C     C_R   0.480478 0.822607 0.507156 -0.084642
C76   C     C_R   0.533446 0.180531 0.497154 -0.067364
C77   C     C_R   0.443278 0.750061 0.491418 -0.251797
C78   C     C_R   0.573309 0.248986 0.504413 -0.268291
C79   C     C_R   0.365563 0.709123 0.453436 0.470065
C80   C     C_R   0.650799 0.284668 0.536938 0.473857
C81   C     C_R   0.484694 0.986499 0.553425 -0.062824
C82   C     C_R   0.519466 0.014379 0.450152 -0.073126
C83   C     C_R   0.506994 0.055883 0.558333 -0.122318
C84   C     C_R   0.496745 0.944919 0.444821 -0.116196
C85   C     C_R   0.530128 0.071201 0.509781 0.035840
C86   C     C_R   0.476677 0.930251 0.495235 0.036619
C87   C     C_R   0.499960 0.849615 0.150258 0.828125
C88   C     C_R   0.499908 0.150512 0.849799 0.829214
C89   C     C_R   0.499616 0.650415 0.349962 0.823258
C90   C     C_R   0.500571 0.350104 0.650545 0.814724
C91   C     C_3   0.474547 0.434521 0.459186 0.417118
C92   C     C_3   0.524015 0.573392 0.548738 0.375437
C93   C     C_3   0.428779 0.472891 0.450947 0.356275
C94   C     C_3   0.570120 0.535373 0.556266 0.350135
C95   C     C_1   0.498269 0.611312 0.390038 -0.131845
C96   C     C_1   0.502837 0.392068 0.613356 -0.185139
H1    H     H_    0.504385 0.671477 0.981083 0.152339
H2    H     H_    0.528008 0.377874 0.055614 0.160204
H3    H     H_    0.474624 0.724742 0.508239 0.189766
H4    H     H_    0.544323 0.275089 0.484907 0.176611
O1    O     O_3   0.500050 0.750060 0.250070 -0.493416
O2    O     O_3   0.499950 0.249940 0.749930 -0.479089
O3    O     O_R   0.456830 0.822700 0.365800 -0.633794
O4    O     O_R   0.543170 0.177300 0.634200 -0.635659
O5    O     O_R   0.543260 0.634320 0.177440 -0.605277
O6    O     O_R   0.456740 0.365680 0.822560 -0.615699
O7    O     O_R   0.664430 0.884240 0.341140 -0.635261
O8    O     O_R   0.335570 0.115760 0.658860 -0.639580
O9    O     O_R   0.335680 0.659000 0.115900 -0.625930
O10   O     O_R   0.664320 0.341000 0.884100 -0.653026
O11   O     O_R   0.664480 0.780430 0.323540 -0.656423
O12   O     O_R   0.335520 0.219570 0.676460 -0.636453
O13   O     O_R   0.335610 0.676590 0.219700 -0.639391
O14   O     O_R   0.664390 0.323410 0.780300 -0.638616
O15   O     O_R   0.543050 0.908950 0.365840 -0.640870
O16   O     O_R   0.456950 0.091050 0.634160 -0.639503
O17   O     O_R   0.457060 0.634290 0.091200 -0.646464
O18   O     O_R   0.542940 0.365710 0.908800 -0.661101
O19   O     O_R   0.543140 0.884190 0.219790 -0.637943
O20   O     O_R   0.456860 0.115810 0.780210 -0.632260
O21   O     O_R   0.543170 0.659080 0.323490 -0.633663
O22   O     O_R   0.456830 0.340920 0.676510 -0.648094
O23   O     O_R   0.456990 0.780350 0.115960 -0.614531
O24   O     O_R   0.543010 0.219650 0.884040 -0.627357
O25   O     O_R   0.456900 0.676640 0.341050 -0.626446
O26   O     O_R   0.543100 0.323360 0.658950 -0.646999
Zn1   Zn    Zn3+2 0.438420 0.731820 0.293400 0.999302
Zn2   Zn    Zn3+2 0.561580 0.268180 0.706600 0.965772
Zn3   Zn    Zn3+2 0.561600 0.855040 0.293450 0.976602
Zn4   Zn    Zn3+2 0.438400 0.144960 0.706550 0.974477
Zn5   Zn    Zn3+2 0.438510 0.706680 0.145100 0.994902
Zn6   Zn    Zn3+2 0.561490 0.293320 0.854900 0.955226
Zn7   Zn    Zn3+2 0.561670 0.706730 0.268320 0.974133
Zn8   Zn    Zn3+2 0.438330 0.293270 0.731680 0.959904
O27   O     O_3   0.358780 0.441992 0.389012 -0.633452
C97   C     C_3   0.302500 0.427130 0.407772 0.092845
H5    H     H_    0.309275 0.479127 0.443999 0.172633
H6    H     H_    0.303472 0.393108 0.435286 0.125864
C98   C     C_3   0.227161 0.385138 0.338033 -0.323818
H7    H     H_    0.225132 0.418248 0.309764 0.243789
H8    H     H_    0.219759 0.333333 0.300605 0.218172
C99   C     C_3   0.163965 0.367746 0.355322 -0.970465
H9    H     H_    0.164233 0.333511 0.382445 0.269514
H10   H     H_    0.109991 0.337362 0.303656 0.273228
H11   H     H_    0.169698 0.418879 0.391893 0.263597
O28   O     O_3   0.642860 0.567670 0.614312 -0.654033
C100  C     C_3   0.693423 0.623025 0.609389 0.091208
H12   H     H_    0.669897 0.654725 0.590721 0.168944
H13   H     H_    0.709798 0.598188 0.570474 0.152458
C101  C     C_3   0.762933 0.675913 0.684760 -0.340680
H14   H     H_    0.746914 0.697205 0.725620 0.229466
H15   H     H_    0.790915 0.646756 0.701824 0.225498
C102  C     C_3   0.817272 0.739814 0.683714 -0.959423
H16   H     H_    0.834232 0.719810 0.643312 0.269340
H17   H     H_    0.867574 0.776579 0.738868 0.270971
H18   H     H_    0.791343 0.771368 0.669165 0.265582
O29   O     O_3   0.431764 0.739393 0.960236 -0.637310
C103  C     C_3   0.414901 0.743788 0.894708 0.084109
H19   H     H_    0.430879 0.801280 0.909341 0.187071
H20   H     H_    0.354338 0.710259 0.854232 0.126136
C104  C     C_3   0.458630 0.722661 0.859722 -0.404350
H21   H     H_    0.517163 0.747584 0.902606 0.248269
H22   H     H_    0.432812 0.662521 0.832521 0.205390
C105  C     C_3   0.457584 0.746933 0.802385 -0.903692
H23   H     H_    0.399853 0.729082 0.763222 0.271372
H24   H     H_    0.480817 0.722483 0.771537 0.252127
H25   H     H_    0.492051 0.807128 0.829368 0.282130
O30   O     O_3   0.602568 0.318563 0.106996 -0.628071
C106  C     C_3   0.596717 0.342855 0.170704 0.069515
H26   H     H_    0.552300 0.357187 0.160904 0.150293
H27   H     H_    0.650479 0.391250 0.218002 0.141829
C107  C     C_3   0.576673 0.281535 0.190142 -0.321303
H28   H     H_    0.523449 0.232655 0.143410 0.239001
H29   H     H_    0.620755 0.266880 0.200157 0.241808
C108  C     C_3   0.568793 0.304147 0.258403 -0.872139
H30   H     H_    0.621953 0.352026 0.306256 0.274126
H31   H     H_    0.554052 0.258363 0.270818 0.276799
H32   H     H_    0.524245 0.318091 0.249250 0.268349
O31   O     O_3   0.440654 0.478888 0.853357 -0.643567
C109  C     C_3   0.494091 0.505484 0.832333 0.126258
H33   H     H_    0.477331 0.460958 0.779255 0.202423
H34   H     H_    0.551872 0.522502 0.871593 0.094485
C110  C     C_3   0.494454 0.569215 0.820691 -0.380152
H35   H     H_    0.436914 0.552769 0.782323 0.239206
H36   H     H_    0.515278 0.615899 0.874050 0.210488
C111  C     C_3   0.544252 0.593040 0.789077 -0.962307
H37   H     H_    0.602469 0.611048 0.827132 0.266327
H38   H     H_    0.542884 0.639248 0.781343 0.266334
H39   H     H_    0.524345 0.547574 0.735091 0.274856
O32   O     O_3   0.609285 0.567235 0.148392 -0.617439
C112  C     C_3   0.675123 0.631985 0.174169 0.111348
H40   H     H_    0.665794 0.678982 0.185722 0.149114
H41   H     H_    0.695141 0.628451 0.134028 0.168860
C113  C     C_3   0.735739 0.646474 0.244822 -0.288436
H42   H     H_    0.717042 0.650781 0.285990 0.235954
H43   H     H_    0.746175 0.600143 0.233211 0.219514
C114  C     C_3   0.807756 0.716715 0.276417 -1.015543
H44   H     H_    0.826171 0.714620 0.235274 0.272963
H45   H     H_    0.851534 0.723427 0.325405 0.263914
H46   H     H_    0.799810 0.764374 0.292818 0.269818
O33   O     O_3   0.939989 0.060927 0.572246 -0.631109
C115  C     C_3   0.994418 0.128355 0.636574 0.169243
H47   H     H_    0.986120 0.171920 0.628175 0.160424
H48   H     H_    0.052774 0.143636 0.650696 0.134766
C116  C     C_3   0.984035 0.126461 0.701007 -0.369748
H49   H     H_    0.928554 0.119016 0.690487 0.230289
H50   H     H_    0.986146 0.079372 0.706233 0.252491
C117  C     C_3   0.044195 0.196445 0.772858 -0.998711
H51   H     H_    0.099718 0.202646 0.785982 0.267514
H52   H     H_    0.033826 0.194050 0.818021 0.267602
H53   H     H_    0.043915 0.244650 0.768982 0.275872
O34   O     O_3   0.062789 0.930626 0.439099 -0.645473
C118  C     C_3   0.018396 0.854031 0.396955 0.113257
H54   H     H_    0.959053 0.836264 0.362938 0.145337
H55   H     H_    0.023671 0.829863 0.434015 0.203968
C119  C     C_3   0.046189 0.825975 0.346003 -0.391499
H56   H     H_    0.040504 0.848375 0.307426 0.222397
H57   H     H_    0.105825 0.844790 0.378884 0.240116
C120  C     C_3   0.003046 0.742774 0.302404 -0.925852
H58   H     H_    0.004823 0.719129 0.339862 0.267745
H59   H     H_    0.028229 0.723996 0.270441 0.274475
H60   H     H_    0.944414 0.722553 0.263680 0.270169
O35   O     O_3   0.035992 0.998945 0.639216 -0.629790
C121  C     C_3   0.108528 0.052355 0.697599 0.087924
H61   H     H_    0.105130 0.070811 0.748499 0.160158
H62   H     H_    0.132834 0.102149 0.692929 0.122177
C122  C     C_3   0.158522 0.019023 0.706510 -0.307463
H63   H     H_    0.135089 0.973284 0.717240 0.231536
H64   H     H_    0.160283 0.996553 0.655181 0.240196
C123  C     C_3   0.237367 0.075383 0.769915 -0.945258
H65   H     H_    0.262151 0.121753 0.760566 0.251911
H66   H     H_    0.272367 0.049820 0.774367 0.275502
H67   H     H_    0.237022 0.096238 0.822313 0.264504
O36   O     O_3   0.946901 0.984286 0.368681 -0.624428
C124  C     C_3   0.988717 0.974279 0.334595 0.105393
H68   H     H_    0.973696 0.916237 0.310624 0.163805
H69   H     H_    0.049578 0.009771 0.373534 0.151241
C125  C     C_3   0.969461 0.992776 0.272370 -0.349149
H70   H     H_    0.909472 0.955433 0.231073 0.235589
H71   H     H_    0.980333 0.049598 0.294357 0.223942
C126  C     C_3   0.015345 0.985497 0.235200 -0.962044
H72   H     H_    0.075487 0.023952 0.275132 0.268406
H73   H     H_    0.999527 0.998453 0.189795 0.272104
H74   H     H_    0.004976 0.928933 0.212261 0.262040
O37   O     O_3   0.047984 0.132942 0.522807 -0.632139
C127  C     C_3   0.086102 0.147935 0.484706 0.132395
H75   H     H_    0.045122 0.129004 0.427556 0.172681
H76   H     H_    0.120206 0.121463 0.483747 0.129968
C128  C     C_3   0.138142 0.230219 0.522114 -0.332644
H77   H     H_    0.105233 0.258010 0.521864 0.231118
H78   H     H_    0.178145 0.250031 0.580034 0.231907
C129  C     C_3   0.181274 0.249764 0.483290 -0.975960
H79   H     H_    0.216377 0.224328 0.484915 0.266675
H80   H     H_    0.217872 0.309858 0.511208 0.273975
H81   H     H_    0.142395 0.230674 0.425274 0.261737
O38   O     O_3   0.961079 0.861480 0.501198 -0.638516
C130  C     C_3   0.887135 0.818974 0.483411 0.079734
H82   H     H_    0.878206 0.764204 0.474439 0.165389
H83   H     H_    0.846586 0.809151 0.430480 0.141101
C131  C     C_3   0.872665 0.850373 0.545947 -0.298857
H84   H     H_    0.913182 0.856668 0.596979 0.250097
H85   H     H_    0.879730 0.904801 0.556185 0.245819
C132  C     C_3   0.794019 0.800523 0.527508 -0.978812
H86   H     H_    0.752586 0.793973 0.476893 0.276394
H87   H     H_    0.784923 0.824793 0.573296 0.270613
H88   H     H_    0.785731 0.746117 0.519391 0.265854
C133  C     C_1   0.352833 0.893286 0.945890 0.179152
N1    N     N_1   0.292610 0.848566 0.923074 -0.182960
C134  C     C_1   0.645192 0.109930 0.056332 0.195891
N2    N     N_1   0.705201 0.154941 0.078861 -0.188705
C135  C     C_1   0.415057 0.067676 0.019201 0.176912
N3    N     N_1   0.380489 0.095081 0.026452 -0.205009
C136  C     C_1   0.583731 0.935829 0.983510 0.174917
N4    N     N_1   0.618853 0.909013 0.976620 -0.208830
C137  C     C_1   0.435673 0.908512 0.851044 0.158576
N5    N     N_1   0.408929 0.871077 0.788806 -0.205350
C138  C     C_1   0.561372 0.095181 0.151000 0.178049
N6    N     N_1   0.586954 0.133425 0.212821 -0.191774
O39   O     O_3   0.331061 0.636220 0.434808 -0.628782
C139  C     C_3   0.301471 0.626371 0.480869 0.061279
H89   H     H_    0.256761 0.568377 0.451705 0.168653
H90   H     H_    0.274991 0.659571 0.491734 0.129524
C140  C     C_3   0.361024 0.642291 0.553450 -0.363055
H91   H     H_    0.388806 0.610952 0.542053 0.253128
H92   H     H_    0.403696 0.701238 0.585900 0.220109
C141  C     C_3   0.326916 0.621761 0.598561 -0.934025
H93   H     H_    0.302672 0.655843 0.613927 0.264560
H94   H     H_    0.370529 0.630900 0.649253 0.277589
H95   H     H_    0.282896 0.563307 0.566961 0.268859
O40   O     O_3   0.688154 0.351091 0.540592 -0.622988
C142  C     C_3   0.726093 0.408279 0.613649 0.063980
H96   H     H_    0.775279 0.453313 0.621304 0.175331
H97   H     H_    0.747640 0.392692 0.655917 0.133404
C143  C     C_3   0.675831 0.436703 0.626710 -0.317111
H98   H     H_    0.660514 0.458413 0.588875 0.269174
H99   H     H_    0.624523 0.390889 0.614350 0.235861
C144  C     C_3   0.713315 0.495677 0.705983 -0.904894
H100  H     H_    0.675189 0.514967 0.713518 0.289211
H101  H     H_    0.764951 0.542613 0.719938 0.258157
H102  H     H_    0.727082 0.473491 0.743820 0.258591
O41   O     O_3   0.453385 0.362110 0.413773 -0.622837
C145  C     C_3   0.381626 0.313449 0.396804 0.092713
H103  H     H_    0.339474 0.315301 0.353900 0.184091
H104  H     H_    0.374570 0.326332 0.446011 0.127492
C146  C     C_3   0.368347 0.236059 0.366300 -0.319236
H105  H     H_    0.373670 0.221540 0.316255 0.235512
H106  H     H_    0.411024 0.233531 0.407831 0.230830
C147  C     C_3   0.291294 0.181119 0.347202 -0.945545
H107  H     H_    0.285813 0.193152 0.397121 0.263933
H108  H     H_    0.282756 0.125268 0.323992 0.281517
H109  H     H_    0.247691 0.183019 0.305848 0.259468
O42   O     O_3   0.549221 0.648082 0.589538 -0.654134
C148  C     C_3   0.569749 0.667978 0.663484 0.079867
H110  H     H_    0.595853 0.638697 0.683857 0.180766
H111  H     H_    0.519748 0.656242 0.669650 0.155116
C149  C     C_3   0.625478 0.749837 0.710351 -0.337464
H112  H     H_    0.673013 0.762808 0.699976 0.232596
H113  H     H_    0.598409 0.780187 0.694533 0.233082
C150  C     C_3   0.654917 0.775001 0.792007 -0.960202
H114  H     H_    0.609104 0.765883 0.804602 0.270509
H115  H     H_    0.696619 0.834186 0.824079 0.276215
H116  H     H_    0.681940 0.745070 0.808936 0.263733
C151  C     C_1   0.244301 0.698051 0.386337 0.203781
N7    N     N_1   0.180131 0.664694 0.352882 -0.230116
C152  C     C_1   0.768250 0.285687 0.589459 0.200746
N8    N     N_1   0.831720 0.314441 0.612177 -0.222165
O43   O     O_3   0.321447 0.845157 0.419745 -0.623050
C153  C     C_3   0.290710 0.864782 0.464024 0.065210
H117  H     H_    0.325428 0.880397 0.522285 0.136997
H118  H     H_    0.234738 0.818299 0.441858 0.155267
C154  C     C_3   0.282462 0.929256 0.462083 -0.342219
H119  H     H_    0.336650 0.974082 0.477508 0.242217
H120  H     H_    0.241482 0.912034 0.405488 0.223848
C155  C     C_3   0.256858 0.957740 0.514942 -0.859222
H121  H     H_    0.204035 0.913596 0.502694 0.257981
H122  H     H_    0.247953 0.002102 0.509646 0.274435
H123  H     H_    0.299729 0.979556 0.572242 0.288538
O44   O     O_3   0.686399 0.150637 0.584681 -0.641823
C156  C     C_3   0.712926 0.120419 0.540693 0.060958
H124  H     H_    0.768559 0.162877 0.556470 0.165502
H125  H     H_    0.675538 0.097209 0.481019 0.147643
C157  C     C_3   0.720483 0.059734 0.554053 -0.345980
H126  H     H_    0.754360 0.080850 0.613855 0.237428
H127  H     H_    0.664520 0.014262 0.533702 0.235043
C158  C     C_3   0.757619 0.031099 0.515215 -0.857630
H128  H     H_    0.725801 0.011494 0.455601 0.285013
H129  H     H_    0.759706 0.985199 0.523387 0.266684
H130  H     H_    0.815220 0.074984 0.537927 0.282958
C159  C     C_1   0.560638 0.862716 0.545774 0.170477
N9    N     N_1   0.624902 0.894871 0.576665 -0.229506
C160  C     C_1   0.453653 0.145371 0.463904 0.169502
N10   N     N_1   0.389696 0.116798 0.437538 -0.231363
C161  C     C_1   0.474589 0.973494 0.610694 0.175543
N11   N     N_1   0.466671 0.963039 0.656299 -0.195051
C162  C     C_1   0.527381 0.027144 0.391904 0.179299
N12   N     N_1   0.533622 0.037473 0.345633 -0.181968
C163  C     C_1   0.414235 0.508117 0.573704 0.131106
N13   N     N_1   0.381238 0.507954 0.604646 -0.224875
C164  C     C_1   0.586250 0.494204 0.437150 0.246059
N14   N     N_1   0.620882 0.489292 0.408638 -0.217196
O45   O     O_3   0.065251 0.410787 0.961060 -0.614433
C165  C     C_3   0.032063 0.338290 0.947975 0.125472
H131  H     H_    0.035734 0.305145 0.901660 0.154420
H132  H     H_    0.972050 0.313047 0.930206 0.117786
C166  C     C_3   0.075285 0.333972 0.015237 -0.320096
H133  H     H_    0.134123 0.355529 0.028434 0.226144
H134  H     H_    0.074418 0.367929 0.063263 0.242583
C167  C     C_3   0.042417 0.255624 0.001599 -0.953947
H135  H     H_    0.983877 0.233274 0.989357 0.263080
H136  H     H_    0.074917 0.254317 0.051280 0.268864
H137  H     H_    0.044534 0.220872 0.954865 0.259931
O46   O     O_3   0.940305 0.574517 0.035509 -0.625713
C168  C     C_3   0.995764 0.646904 0.090019 0.129257
H138  H     H_    0.039883 0.669673 0.076757 0.161922
H139  H     H_    0.021491 0.649394 0.143996 0.193899
C169  C     C_3   0.959935 0.694087 0.095753 -0.360273
H140  H     H_    0.926708 0.685660 0.040331 0.228396
H141  H     H_    0.922027 0.677456 0.117445 0.238524
C170  C     C_3   0.018239 0.774859 0.145918 -0.972778
H142  H     H_    0.055420 0.784623 0.200540 0.272723
H143  H     H_    0.990200 0.806881 0.152976 0.263401
H144  H     H_    0.052198 0.793877 0.121407 0.273319
O47   O     O_3   0.960332 0.383504 0.040461 -0.649478
C171  C     C_3   0.887581 0.322918 0.993797 0.087074
H145  H     H_    0.890217 0.274212 0.993569 0.155979
H146  H     H_    0.864136 0.310627 0.935596 0.112087
C172  C     C_3   0.836916 0.332563 0.024215 -0.315757
H147  H     H_    0.859531 0.338808 0.080237 0.232587
H148  H     H_    0.835562 0.382734 0.028456 0.241284
C173  C     C_3   0.757987 0.267124 0.975674 -0.893330
H149  H     H_    0.757730 0.217107 0.974667 0.260646
H150  H     H_    0.734718 0.258647 0.918838 0.252733
H151  H     H_    0.721955 0.276739 0.997554 0.283560
O48   O     O_3   0.049192 0.599877 0.967040 -0.625758
C174  C     C_3   0.989434 0.599875 0.916715 0.150226
H152  H     H_    0.990100 0.650981 0.944783 0.136231
H153  H     H_    0.933287 0.553701 0.895789 0.157491
C175  C     C_3   0.000196 0.598330 0.851609 -0.276187
H154  H     H_    0.051455 0.649103 0.870832 0.226717
H155  H     H_    0.006926 0.551167 0.827430 0.265246
C176  C     C_3   0.933983 0.591709 0.792493 -1.002503
H156  H     H_    0.882998 0.539374 0.770198 0.268753
H157  H     H_    0.944341 0.592691 0.746963 0.275864
H158  H     H_    0.925330 0.637763 0.815363 0.264527
O49   O     O_3   0.954807 0.436468 0.852729 -0.625783
C177  C     C_3   0.908619 0.359862 0.811395 0.138591
H159  H     H_    0.853623 0.347120 0.770995 0.160193
H160  H     H_    0.898306 0.332377 0.844034 0.098230
C178  C     C_3   0.942674 0.328282 0.770163 -0.307334
H161  H     H_    0.947641 0.351346 0.733162 0.242554
H162  H     H_    0.999456 0.344077 0.809562 0.244753
C179  C     C_3   0.895427 0.245358 0.725441 -0.996830
H163  H     H_    0.899070 0.221158 0.762487 0.261396
H164  H     H_    0.915590 0.224688 0.688625 0.270674
H165  H     H_    0.836541 0.228162 0.691422 0.299466
O50   O     O_3   0.046480 0.547179 0.146255 -0.631612
C180  C     C_3   0.093713 0.525123 0.181495 0.164754
H166  H     H_    0.149677 0.574125 0.220924 0.162158
H167  H     H_    0.101287 0.485360 0.144164 0.130564
C181  C     C_3   0.063170 0.491690 0.222809 -0.281825
H168  H     H_    0.056859 0.531269 0.261550 0.236736
H169  H     H_    0.007399 0.442331 0.183269 0.251327
C182  C     C_3   0.114239 0.470550 0.265259 -0.977110
H170  H     H_    0.118470 0.428473 0.226897 0.267608
H171  H     H_    0.091181 0.447868 0.295662 0.271184
H172  H     H_    0.170544 0.518993 0.305258 0.288568
C183  C     C_1   0.279350 0.660894 0.919142 0.237970
N15   N     N_1   0.243329 0.688020 0.914866 -0.185135
C184  C     C_1   0.750803 0.382361 0.139642 0.234614
N16   N     N_1   0.788489 0.361967 0.165316 -0.203458
C185  C     C_1   0.218264 0.513907 0.895735 0.240379
N17   N     N_1   0.157347 0.481221 0.881608 -0.158599
C186  C     C_1   0.807963 0.501022 0.110727 0.207178
N18   N     N_1   0.869696 0.530129 0.126088 -0.153019
O51   O     O_3   0.312942 0.454579 0.916168 -0.639326
C187  C     C_3   0.274315 0.402782 0.840855 0.085171
H173  H     H_    0.299745 0.422091 0.809850 0.171285
H174  H     H_    0.215795 0.390239 0.815578 0.140302
C188  C     C_3   0.274690 0.332737 0.833450 -0.295648
H175  H     H_    0.333014 0.345188 0.861154 0.237384
H176  H     H_    0.246040 0.310341 0.860623 0.217920
C189  C     C_3   0.235925 0.275514 0.753144 -0.950802
H177  H     H_    0.177047 0.261083 0.724482 0.253548
H178  H     H_    0.237588 0.225695 0.749878 0.252397
H179  H     H_    0.264544 0.296348 0.725259 0.290653
O52   O     O_3   0.709909 0.544986 0.045370 -0.682662
C190  C     C_3   0.709593 0.518470 0.978328 0.106197
H180  H     H_    0.653174 0.473914 0.932837 0.137396
H181  H     H_    0.749156 0.498118 0.982083 0.173287
C191  C     C_3   0.733024 0.580337 0.960166 -0.343455
H182  H     H_    0.693634 0.600918 0.955656 0.214304
H183  H     H_    0.789326 0.625850 0.005072 0.231958
C192  C     C_3   0.734007 0.554741 0.888180 -0.990964
H184  H     H_    0.774287 0.535365 0.892041 0.278814
H185  H     H_    0.750894 0.600719 0.876290 0.270550
H186  H     H_    0.677830 0.509834 0.842313 0.253741

loop_
_geom_bond_atom_site_label_1
_geom_bond_atom_site_label_2
_ccdc_geom_bond_type
C113  H43   S    
C183  N15   T    
C63   C65   S    
C163  N13   T    
C106  H27   S    
C142  H96   S    
C119  C120  S    
O7    Zn3   S    
C172  C173  S    
C108  H31   S    
C89   O25   A    
O41   C145  S    
O29   C103  S    
C181  H168  S    
O2    Zn6   S    
C98   C99   S    
C113  C114  S    
C21   C33   A    
C135  N3    T    
C33   C183  S    
C37   C68   S    
O46   C168  S    
C114  H45   S    
C62   C64   S    
C81   C83   A    
O35   C121  S    
C169  H141  S    
C49   C51   S    
C43   O33   S    
C50   C52   S    
C25   O51   S    
C81   C86   A    
C169  C170  S    
C47   C53   T    
C58   C61   S    
C34   C184  S    
O37   C127  S    
C35   O31   S    
C41   C43   S    
C42   C44   S    
C41   C49   S    
C167  H135  S    
C104  H22   S    
C109  H34   S    
C161  N11   T    
C70   C152  S    
C118  H55   S    
C125  H71   S    
C115  H47   S    
C151  N7    T    
C170  H142  S    
C100  C101  S    
C24   O10   A    
C168  C169  S    
C71   C73   A    
C157  H126  S    
C67   O5    A    
C173  H150  S    
C149  H112  S    
C12   O46   S    
C64   C66   S    
C192  H186  S    
C110  H35   S    
C190  H181  S    
C23   O13   A    
O14   Zn2   S    
C82   C162  S    
C162  N12   T    
O4    Zn2   S    
C131  C132  S    
C92   C94   S    
C90   O26   A    
C158  H130  S    
C123  H66   S    
C31   O29   S    
C131  H85   S    
O30   C106  S    
C82   C84   A    
C32   O30   S    
C76   C160  S    
C103  H19   S    
C56   C62   S    
C166  C167  S    
C55   C135  S    
C172  H147  S    
C187  H173  S    
O5    Zn7   S    
O28   C100  S    
C132  H87   S    
C89   O21   A    
C141  H95   S    
C181  C182  S    
O2    Zn4   S    
O12   Zn8   S    
C157  C158  S    
C171  H146  S    
C98   H7    S    
O1    Zn7   S    
C82   C85   A    
O50   C180  S    
C35   C40   A    
C9    C15   S    
C112  C113  S    
C10   C16   S    
O49   C177  S    
C141  H94   S    
C155  H123  S    
C80   O40   S    
C2    O8    A    
C59   C87   S    
O48   C174  S    
O16   Zn4   S    
C38   C67   S    
C164  N14   T    
O25   Zn1   S    
C130  H83   S    
C178  H161  S    
C166  H133  S    
C167  H137  S    
C97   H5    S    
C129  H79   S    
C191  H183  S    
C150  H115  S    
C24   O14   A    
C159  N9    T    
C27   C29   A    
C100  H12   S    
C88   O24   A    
C4    C163  S    
C176  H156  S    
C60   C88   S    
C184  N16   T    
C128  H77   S    
C74   C76   A    
C149  C150  S    
C36   O32   S    
C149  H113  S    
C179  H163  S    
C142  H97   S    
C76   C78   A    
O2    Zn2   S    
C188  H176  S    
C107  H28   S    
C78   C80   A    
C148  H111  S    
C191  C192  S    
C165  H131  S    
O42   C148  S    
O24   Zn6   S    
C61   C63   S    
C126  H72   S    
C14   C24   S    
O22   Zn8   S    
C68   O18   A    
C146  H106  S    
O3    Zn1   S    
O8    Zn4   S    
C187  C188  S    
C44   C52   S    
C138  N6    T    
O38   C130  S    
C140  C141  S    
C144  H101  S    
C123  H65   S    
C180  H167  S    
C147  H108  S    
C57   C63   S    
C116  H50   S    
C58   C64   S    
C22   C34   A    
C145  H104  S    
C139  H89   S    
C110  C111  S    
C155  H121  S    
C170  H144  S    
C6    C94   S    
C101  C102  S    
O31   C109  S    
C51   C53   S    
C87   O19   A    
C9    C11   S    
C185  N17   T    
C27   C40   S    
O39   C139  S    
C9    O47   S    
O34   C118  S    
C178  C179  S    
C75   C77   A    
C42   C50   S    
C129  H81   S    
C122  H64   S    
C1    O7    A    
C124  C125  S    
C175  H155  S    
C150  H114  S    
C69   C79   A    
C102  H17   S    
C176  H158  S    
C21   C25   A    
C127  H75   S    
C128  C129  S    
O26   Zn2   S    
C177  H159  S    
C61   C138  S    
C36   C39   A    
C153  H117  S    
C172  H148  S    
C11   O45   S    
C133  N1    T    
C107  C108  S    
C43   C50   S    
C90   C96   S    
C16   O49   S    
C30   H2    S    
O33   C115  S    
C130  C131  S    
C181  H169  S    
C111  H37   S    
C131  H84   S    
C120  H60   S    
C87   O23   A    
C98   H8    S    
C55   C61   S    
C102  H18   S    
O19   Zn3   S    
C56   C58   S    
C77   H3    S    
C74   C85   S    
C114  H44   S    
O17   Zn5   S    
C154  C155  S    
O18   Zn6   S    
C4    C93   S    
C9    C18   S    
O6    Zn8   S    
C156  C157  S    
C91   O41   S    
C140  H91   S    
C101  H14   S    
C189  H177  S    
C99   H10   S    
C127  C128  S    
O1    Zn3   S    
C94   O28   S    
C71   O43   S    
C73   C75   A    
C137  N5    T    
C139  C140  S    
C121  H61   S    
C167  H136  S    
C104  H21   S    
O27   C97   S    
C182  H171  S    
C118  H54   S    
C169  H140  S    
C125  C126  S    
C2    O12   A    
O32   C112  S    
C115  H48   S    
C105  H23   S    
C100  H13   S    
C168  H139  S    
C92   O42   S    
C143  H98   S    
C174  C175  S    
C157  H127  S    
C75   C159  S    
C3    C91   S    
O40   C142  S    
C106  H26   S    
C3    C164  S    
C192  H185  S    
C103  C104  S    
C160  N10   T    
C117  H51   S    
C115  C116  S    
O9    Zn5   S    
C124  H68   S    
O10   Zn6   S    
C88   O20   A    
C77   C79   A    
C113  H42   S    
C60   C66   T    
C134  N2    T    
C103  H20   S    
C99   H11   S    
C81   C161  S    
C97   C98   S    
C187  H174  S    
C108  H32   S    
C179  H165  S    
C23   O9    A    
C13   C19   T    
C70   C80   A    
C190  H180  S    
C14   C20   T    
C143  C144  S    
C72   C74   A    
C120  H58   S    
C5    C7    S    
C49   O38   S    
C1    C47   S    
C6    C8    S    
C10   O48   S    
C28   C39   S    
C93   O27   S    
C46   O4    A    
C72   O44   S    
C112  H40   S    
C89   C95   S    
C114  H46   S    
C188  H175  S    
C112  H41   S    
C182  H172  S    
C91   C93   S    
C11   C16   S    
C156  H124  S    
C145  C146  S    
C12   C15   S    
C67   O17   A    
O1    Zn5   S    
C4    C6    S    
C83   C85   A    
C78   H4    S    
O36   C124  S    
C111  H38   S    
C121  C122  S    
C104  C105  S    
C109  H33   S    
C129  H80   S    
C118  C119  S    
C15   C17   S    
C125  H70   S    
C11   C17   S    
O23   Zn5   S    
C105  H25   S    
C119  H57   S    
C3    C5    S    
C153  C154  S    
C174  H152  S    
C173  H149  S    
C46   O16   A    
C2    C48   S    
C126  H74   S    
C111  H39   S    
C36   C38   A    
C190  C191  S    
O43   C153  S    
C37   C39   A    
C1    O11   A    
C38   C40   A    
C43   C51   S    
C148  H110  S    
C165  H132  S    
C117  H53   S    
C28   C30   A    
C62   C137  S    
C152  N8    T    
C46   C83   S    
C147  H109  S    
C79   O39   S    
C146  H105  S    
C22   C26   A    
C56   C136  S    
C99   H9    S    
C84   C86   A    
C59   C65   T    
C32   C34   A    
C4    C92   S    
C165  C166  S    
C44   C49   S    
C132  H88   S    
C143  H99   S    
O52   C190  S    
C140  H92   S    
C174  H153  S    
C144  H100  S    
C179  H164  S    
C8    C96   T    
C154  H119  S    
C171  H145  S    
C173  H151  S    
C180  H166  S    
C44   O34   S    
C57   C62   S    
C116  H49   S    
C48   C54   T    
C58   C134  S    
C13   C23   S    
O20   Zn4   S    
C35   C37   A    
C139  H90   S    
C130  H82   S    
C166  H134  S    
C141  H93   S    
C155  H122  S    
C170  H143  S    
C10   C17   S    
C6    C91   S    
C123  H67   S    
C69   C71   A    
C122  H63   S    
C45   O3    A    
O1    Zn1   S    
C108  H30   S    
C177  C178  S    
C107  H29   S    
C90   O22   A    
C31   C33   A    
C178  H162  S    
C50   O37   S    
C41   C52   S    
C18   C20   S    
C109  C110  S    
C42   C51   S    
C191  H182  S    
C150  H116  S    
C15   O50   S    
C124  H69   S    
C175  C176  S    
C68   O6    A    
C176  H157  S    
C52   C54   S    
C26   O52   S    
C127  H76   S    
C128  H78   S    
C142  C143  S    
C119  H56   S    
C153  H118  S    
C188  C189  S    
C182  H170  S    
O11   Zn7   S    
C148  C149  S    
C144  H102  S    
C126  H73   S    
O2    Zn8   S    
C120  H59   S    
C110  H36   S    
C45   O15   A    
C69   C151  S    
C146  C147  S    
C55   C64   S    
C136  N4    T    
C56   C63   S    
C55   C57   S    
C154  H120  S    
C41   O35   S    
C10   C12   S    
C16   C18   S    
C156  H125  S    
O44   C156  S    
C106  C107  S    
C101  H15   S    
C45   C84   S    
C189  H178  S    
C171  C172  S    
C180  C181  S    
C147  H107  S    
C97   H6    S    
O15   Zn3   S    
C116  C117  S    
C145  H103  S    
C21   C185  S    
C121  H62   S    
C5    C93   S    
O13   Zn1   S    
C25   C27   A    
C7    C95   T    
O45   C165  S    
C26   C28   A    
C29   H1    S    
C189  H179  S    
C105  H24   S    
C158  H128  S    
C29   C31   A    
C168  H138  S    
C30   C32   A    
C42   O36   S    
C158  H129  S    
C22   C186  S    
C132  H86   S    
C17   C19   S    
C3    C94   S    
C177  H160  S    
C192  H184  S    
C73   C86   S    
C5    C92   S    
O51   C187  S    
C122  C123  S    
C57   C133  S    
C117  H52   S    
C186  N18   T    
C12   C18   S    
C175  H154  S    
C70   C72   A    
O21   Zn7   S    
C102  H16   S    
O47   C171  S    
