data_mof_unit_45354.cif
_audit_creation_date              2012-12-11T14:07:39-0500
_audit_creation_method            fapswitch 2.2
_symmetry_space_group_name_H-M    P1
_symmetry_Int_Tables_number       1
_space_group_crystal_system       triclinic
_cell_length_a                    19.769418
_cell_length_b                    17.132776
_cell_length_c                    15.368096
_cell_angle_alpha                 90.000022
_cell_angle_beta                  53.538351
_cell_angle_gamma                 89.999984
_cell_volume                      4186.34832759

loop_
_atom_site_label
_atom_site_type_symbol
_atom_type_description
_atom_site_fract_x
_atom_site_fract_y
_atom_site_fract_z
_atom_type_partial_charge
C1    C     C_R   0.376371 0.197167 0.994375 -0.178091
C2    C     C_R   0.704409 0.847193 0.992017 0.218531
C3    C     C_R   0.204408 0.652808 0.992019 0.218533
C4    C     C_R   0.204409 0.347193 0.992017 0.218531
C5    C     C_R   0.612596 0.818321 0.694555 0.001612
C6    C     C_R   0.612596 0.181679 0.694555 0.001611
C7    C     C_R   0.112596 0.318321 0.694555 0.001612
C8    C     C_R   0.112596 0.681678 0.694554 0.001613
C9    C     C_3   0.199818 0.134584 0.518579 -0.394036
C10   C     C_3   0.199808 0.865412 0.518572 -0.394039
C11   C     C_3   0.699817 0.634584 0.518579 -0.394039
C12   C     C_R   0.376371 0.802833 0.994374 -0.178091
C13   C     C_3   0.699817 0.365416 0.518578 -0.394036
C14   C     C_3   0.143995 0.182100 0.623279 -0.397308
C15   C     C_3   0.143973 0.817897 0.623271 -0.397286
C16   C     C_3   0.643994 0.682100 0.623278 -0.397309
C17   C     C_3   0.643994 0.317900 0.623278 -0.397309
C18   C     C_3   0.310872 0.241066 0.442531 -0.401149
C19   C     C_3   0.310874 0.758942 0.442540 -0.401157
C20   C     C_3   0.810872 0.741066 0.442531 -0.401150
C21   C     C_3   0.810873 0.258934 0.442531 -0.401150
C22   C     C_3   0.698944 0.744205 0.410884 -0.409326
C23   C     C_R   0.876371 0.697167 0.994375 -0.178090
C24   C     C_3   0.698945 0.255794 0.410883 -0.409327
C25   C     C_3   0.198944 0.244205 0.410884 -0.409327
C26   C     C_3   0.198958 0.755780 0.410873 -0.409315
C27   C     C_3   0.257051 0.190583 0.421383 0.387955
C28   C     C_3   0.257053 0.809414 0.421381 0.387952
C29   C     C_3   0.757051 0.690583 0.421383 0.387956
C30   C     C_3   0.757052 0.309416 0.421383 0.387955
C31   C     C_3   0.660888 0.770522 0.597094 0.367390
C32   C     C_3   0.660889 0.229478 0.597094 0.367391
C33   C     C_3   0.160888 0.270522 0.597094 0.367391
C34   C     C_R   0.876371 0.302833 0.994375 -0.178091
C35   C     C_3   0.160889 0.729476 0.597092 0.367387
C36   C     C_3   0.754361 0.788672 0.545072 -0.372473
C37   C     C_3   0.754362 0.211327 0.545072 -0.372473
C38   C     C_3   0.254361 0.288673 0.545071 -0.372475
C39   C     C_3   0.254364 0.711346 0.545092 -0.372458
C40   C     C_R   0.354306 0.823972 0.218749 -0.136483
C41   C     C_R   0.354304 0.176027 0.218751 -0.136487
C42   C     C_R   0.854304 0.323973 0.218751 -0.136488
C43   C     C_R   0.854304 0.676027 0.218751 -0.136487
C44   C     C_3   0.641057 0.790866 0.515686 -0.388749
C45   C     C_R   0.664221 0.911240 0.060206 -0.158365
C46   C     C_3   0.641057 0.209134 0.515685 -0.388747
C47   C     C_3   0.141056 0.290865 0.515686 -0.388747
C48   C     C_3   0.141080 0.709110 0.515668 -0.388767
C49   C     C_2   0.272757 0.694342 0.979007 -0.352681
C50   C     C_2   0.272759 0.305660 0.979004 -0.352676
C51   C     C_2   0.772757 0.194342 0.979007 -0.352682
C52   C     C_2   0.772760 0.805660 0.979004 -0.352677
C53   C     C_2   0.815246 0.250626 0.904562 0.450108
C54   C     C_2   0.815247 0.749375 0.904560 0.450106
C55   C     C_2   0.315246 0.750626 0.904561 0.450108
C56   C     C_R   0.664220 0.088761 0.060208 -0.158366
C57   C     C_2   0.315247 0.249374 0.904560 0.450106
C58   C     C_R   0.367018 0.888384 0.894936 -0.089032
C59   C     C_R   0.367018 0.111616 0.894936 -0.089031
C60   C     C_R   0.867017 0.388384 0.894936 -0.089032
C61   C     C_R   0.867018 0.611616 0.894936 -0.089031
C62   C     C_R   0.365785 0.087580 0.316492 -0.135784
C63   C     C_R   0.365784 0.912420 0.316492 -0.135785
C64   C     C_R   0.865785 0.587580 0.316492 -0.135783
C65   C     C_R   0.865786 0.412420 0.316492 -0.135783
C66   C     C_R   0.349484 0.187586 0.931285 0.030109
C67   C     C_R   0.164221 0.411240 0.060206 -0.158367
C68   C     C_R   0.349484 0.812414 0.931285 0.030110
C69   C     C_R   0.849484 0.687586 0.931285 0.030110
C70   C     C_R   0.849484 0.312414 0.931286 0.030110
C71   C     C_R   0.316339 0.852765 0.322147 -0.002646
C72   C     C_R   0.316337 0.147232 0.322148 -0.002646
C73   C     C_R   0.816338 0.352768 0.322148 -0.002646
C74   C     C_R   0.816337 0.647232 0.322148 -0.002646
C75   C     C_R   0.655884 0.182004 0.962167 -0.080775
C76   C     C_R   0.655884 0.817996 0.962165 -0.080777
C77   C     C_R   0.155884 0.682004 0.962167 -0.080775
C78   C     C_R   0.164221 0.588761 0.060208 -0.158367
C79   C     C_R   0.155884 0.317996 0.962165 -0.080776
C80   C     C_R   0.603124 0.802399 0.789437 -0.103022
C81   C     C_R   0.603124 0.197601 0.789437 -0.103021
C82   C     C_R   0.103124 0.302399 0.789437 -0.103022
C83   C     C_R   0.103125 0.697600 0.789435 -0.103026
C84   C     C_R   0.594916 0.104040 0.694730 -0.130617
C85   C     C_R   0.594916 0.895959 0.694730 -0.130617
C86   C     C_R   0.094914 0.604040 0.694731 -0.130620
C87   C     C_R   0.094916 0.395959 0.694730 -0.130617
C88   C     C_R   0.704408 0.152808 0.992019 0.218532
Cl1   Cl    Cl    0.827348 0.255204 0.780915 -0.737886
Cl2   Cl    Cl    0.827348 0.744794 0.780914 -0.737887
Cl3   Cl    Cl    0.327348 0.755204 0.780915 -0.737890
Cl4   Cl    Cl    0.327348 0.244794 0.780914 -0.737888
H1    H     H_    0.386768 0.252026 0.019490 0.094769
H2    H     H_    0.576531 0.331278 0.662576 0.176523
H3    H     H_    0.076531 0.168721 0.662577 0.176523
H4    H     H_    0.076511 0.831261 0.662538 0.176543
H5    H     H_    0.158775 0.163980 0.679691 0.160003
H6    H     H_    0.158723 0.836032 0.679709 0.159977
H7    H     H_    0.658773 0.663980 0.679692 0.160002
H8    H     H_    0.658774 0.336020 0.679692 0.160003
H9    H     H_    0.352436 0.203545 0.451427 0.169184
H10   H     H_    0.352439 0.796469 0.451427 0.169176
H11   H     H_    0.852436 0.703545 0.451426 0.169184
H12   H     H_    0.386768 0.747974 0.019489 0.094769
H13   H     H_    0.852436 0.296455 0.451428 0.169184
H14   H     H_    0.769709 0.774806 0.602388 0.200890
H15   H     H_    0.769709 0.225193 0.602388 0.200890
H16   H     H_    0.269709 0.274808 0.602387 0.200890
H17   H     H_    0.269698 0.725239 0.602415 0.200895
H18   H     H_    0.736310 0.786505 0.343488 0.147167
H19   H     H_    0.736311 0.213494 0.343488 0.147167
H20   H     H_    0.236310 0.286505 0.343489 0.147168
H21   H     H_    0.236331 0.713486 0.343473 0.147160
H22   H     H_    0.660745 0.708767 0.394026 0.165441
H23   H     H_    0.886768 0.752026 0.019490 0.094769
H24   H     H_    0.660747 0.291232 0.394025 0.165440
H25   H     H_    0.160746 0.208767 0.394025 0.165440
H26   H     H_    0.160752 0.791211 0.394020 0.165444
H27   H     H_    0.574043 0.777702 0.551990 0.188242
H28   H     H_    0.574044 0.222299 0.551989 0.188241
H29   H     H_    0.074043 0.277700 0.551990 0.188242
H30   H     H_    0.074063 0.722248 0.551960 0.188224
H31   H     H_    0.651899 0.853710 0.493802 0.144366
H32   H     H_    0.651899 0.146289 0.493802 0.144365
H33   H     H_    0.151896 0.353710 0.493803 0.144365
H34   H     H_    0.886767 0.247974 0.019490 0.094769
H35   H     H_    0.151951 0.646266 0.493777 0.144370
H36   H     H_    0.352198 0.281165 0.373128 0.157728
H37   H     H_    0.352199 0.718836 0.373146 0.157735
H38   H     H_    0.852197 0.781165 0.373129 0.157728
H39   H     H_    0.852199 0.218835 0.373129 0.157728
H40   H     H_    0.337533 0.773106 0.194231 0.090966
H41   H     H_    0.337530 0.226893 0.194236 0.090967
H42   H     H_    0.837530 0.273107 0.194235 0.090967
H43   H     H_    0.837530 0.726893 0.194235 0.090967
H44   H     H_    0.767459 0.851926 0.525025 0.159703
H45   H     H_    0.159863 0.099357 0.504467 0.163091
H46   H     H_    0.767460 0.148074 0.525024 0.159702
H47   H     H_    0.267459 0.351927 0.525023 0.159702
H48   H     H_    0.267475 0.648091 0.525063 0.159711
H49   H     H_    0.274924 0.688978 0.047701 0.108321
H50   H     H_    0.274927 0.311025 0.047697 0.108320
H51   H     H_    0.774924 0.188978 0.047702 0.108321
H52   H     H_    0.774928 0.811025 0.047697 0.108320
H53   H     H_    0.363649 0.913898 0.833215 0.132822
H54   H     H_    0.363650 0.086102 0.833214 0.132823
H55   H     H_    0.863649 0.413897 0.833215 0.132822
H56   H     H_    0.159863 0.900640 0.504446 0.163085
H57   H     H_    0.863650 0.586102 0.833214 0.132822
H58   H     H_    0.363056 0.061753 0.382303 0.086782
H59   H     H_    0.363052 0.938247 0.382305 0.086781
H60   H     H_    0.863056 0.561753 0.382303 0.086782
H61   H     H_    0.863056 0.438247 0.382303 0.086781
H62   H     H_    0.662713 0.235795 0.921133 0.144465
H63   H     H_    0.662714 0.764206 0.921131 0.144467
H64   H     H_    0.162713 0.735795 0.921133 0.144465
H65   H     H_    0.162714 0.264206 0.921131 0.144467
H66   H     H_    0.607406 0.746537 0.818391 0.093072
H67   H     H_    0.659864 0.599356 0.504467 0.163091
H68   H     H_    0.607406 0.253463 0.818391 0.093071
H69   H     H_    0.107406 0.246537 0.818391 0.093072
H70   H     H_    0.107411 0.753463 0.818387 0.093072
H71   H     H_    0.590735 0.072525 0.637280 0.088063
H72   H     H_    0.590735 0.927474 0.637280 0.088063
H73   H     H_    0.090729 0.572526 0.637284 0.088066
H74   H     H_    0.090735 0.427475 0.637280 0.088063
H75   H     H_    0.680688 0.937882 0.108781 0.094399
H76   H     H_    0.680686 0.062119 0.108783 0.094399
H77   H     H_    0.180688 0.437882 0.108781 0.094400
H78   H     H_    0.659863 0.400643 0.504467 0.163090
H79   H     H_    0.180686 0.562119 0.108783 0.094400
H80   H     H_    0.237279 0.093003 0.529529 0.150099
H81   H     H_    0.237264 0.906993 0.529533 0.150106
H82   H     H_    0.737279 0.593004 0.529529 0.150101
H83   H     H_    0.737279 0.406997 0.529529 0.150100
H84   H     H_    0.576531 0.668722 0.662575 0.176525
N1    N     N_R   0.408680 0.130160 0.995800 -0.033092
N2    N     N_R   0.403730 0.078230 0.935950 -0.048798
N3    N     N_R   0.903730 0.421770 0.935950 -0.048798
N4    N     N_R   0.903730 0.578230 0.935950 -0.048798
N5    N     N_R   0.426630 0.075970 0.212960 -0.034982
N6    N     N_R   0.426630 0.924030 0.212960 -0.034982
N7    N     N_R   0.926630 0.575970 0.212960 -0.034982
N8    N     N_R   0.926630 0.424030 0.212960 -0.034982
N9    N     N_R   0.591320 0.134600 0.004200 -0.062724
N10   N     N_R   0.591320 0.865400 0.004200 -0.062724
N11   N     N_R   0.091320 0.634600 0.004200 -0.062724
N12   N     N_R   0.408680 0.869840 0.995800 -0.033093
N13   N     N_R   0.091320 0.365400 0.004200 -0.062724
N14   N     N_R   0.578320 0.867660 0.846880 -0.034157
N15   N     N_R   0.578320 0.132340 0.846880 -0.034157
N16   N     N_R   0.078320 0.367660 0.846880 -0.034157
N17   N     N_R   0.078320 0.632340 0.846880 -0.034155
N18   N     N_R   0.573370 0.074390 0.787040 -0.035156
N19   N     N_R   0.573370 0.925610 0.787040 -0.035156
N20   N     N_R   0.073370 0.574390 0.787040 -0.035156
N21   N     N_R   0.073370 0.425610 0.787040 -0.035156
N22   N     N_R   0.596270 0.927870 0.064040 -0.044135
N23   N     N_R   0.908680 0.630160 0.995800 -0.033092
N24   N     N_R   0.596270 0.072130 0.064040 -0.044135
N25   N     N_R   0.096270 0.427870 0.064040 -0.044135
N26   N     N_R   0.096270 0.572130 0.064040 -0.044135
N27   N     N_R   0.908680 0.369840 0.995800 -0.033092
N28   N     N_R   0.421680 0.867580 0.153120 -0.037895
N29   N     N_R   0.421680 0.132420 0.153120 -0.037895
N30   N     N_R   0.921680 0.367580 0.153120 -0.037894
N31   N     N_R   0.921680 0.632420 0.153120 -0.037895
N32   N     N_R   0.403730 0.921770 0.935950 -0.048798
Ni1   Ni    Ni4+2 0.500000 0.131190 0.000000 0.211698
Ni2   Ni    Ni4+2 0.500000 0.868810 0.000000 0.211698
Ni3   Ni    Ni4+2 0.000000 0.631190 0.000000 0.211699
Ni4   Ni    Ni4+2 0.000000 0.368810 0.000000 0.211698
Ni5   Ni    Ni4+2 0.488650 0.000000 0.862740 0.217828
Ni6   Ni    Ni4+2 0.988650 0.500000 0.862740 0.217828
Ni7   Ni    Ni4+2 0.511350 0.000000 0.137260 0.213909
Ni8   Ni    Ni4+2 0.011350 0.500000 0.137260 0.213909

loop_
_geom_bond_atom_site_label_1
_geom_bond_atom_site_label_2
_ccdc_geom_bond_type
C19   H37   S    
C6    C32   S    
C38   H16   S    
N32   Ni5   S    
C85   H72   S    
C40   C71   A    
C8    C83   A    
N7    N31   A    
C23   C69   A    
N5    N29   A    
C57   C66   S    
C14   C33   S    
C41   H41   S    
C55   C68   S    
C3    C49   S    
C58   H53   S    
C11   H67   S    
C20   H11   S    
C67   H77   S    
C16   C31   S    
C12   C68   A    
N11   N26   A    
C52   H52   S    
C64   H60   S    
N6    N28   A    
C19   C39   S    
C22   C29   S    
C37   H15   S    
C10   C15   S    
C59   C66   A    
C48   H30   S    
C19   H10   S    
N17   Ni3   S    
C87   H74   S    
C81   H68   S    
C53   C70   S    
C61   C69   A    
C12   N12   A    
C23   N23   A    
N24   Ni7   S    
C65   C73   A    
C21   C37   S    
N1    Ni1   S    
N16   Ni4   S    
C86   H73   S    
C81   N15   A    
C65   H61   S    
C25   H20   S    
C18   H36   S    
C64   N7    A    
C9    H45   S    
C7    C87   A    
C40   N28   A    
C84   N18   A    
C22   H18   S    
C49   H49   S    
C55   Cl3   S    
C38   H47   S    
C60   H55   S    
C60   C70   A    
C34   C70   A    
C8    C86   A    
C24   H24   S    
C26   C48   S    
C86   N20   A    
C16   H84   S    
C43   C74   A    
C40   H40   S    
C63   N6    A    
N31   Ni3   S    
C7    C33   S    
C46   H32   S    
C75   N9    A    
C24   H19   S    
N12   Ni2   S    
N18   Ni5   S    
C14   H3    S    
N22   Ni7   S    
C36   H44   S    
C15   C35   S    
C52   C54   D    
C47   H33   S    
C39   H17   S    
C20   C29   S    
C2    C45   A    
C22   C44   S    
C6    C84   A    
C31   C44   S    
N8    N30   A    
C36   H14   S    
C58   N32   A    
C26   H26   S    
C13   C30   S    
C4    C79   A    
C15   H4    S    
C30   C73   S    
C85   N19   A    
C76   N10   A    
C29   C74   S    
C1    N1    A    
C44   H27   S    
N13   N25   A    
C45   N22   A    
N16   N21   A    
C43   N31   A    
C4    C50   S    
C51   C53   D    
C18   H9    S    
C83   N17   A    
C35   C39   S    
C9    C14   S    
N25   Ni8   S    
C67   N25   A    
N20   Ni6   S    
C11   C16   S    
C80   H66   S    
C18   C38   S    
N29   Ni1   S    
C34   N27   A    
C34   H34   S    
N17   N20   A    
C56   H76   S    
C1    C66   A    
C46   H28   S    
N5    Ni7   S    
C12   H12   S    
C32   C37   S    
C5    C80   A    
C43   H43   S    
C19   C28   S    
C45   H75   S    
C63   H59   S    
C35   C48   S    
C84   H71   S    
C2    C52   S    
N14   N19   A    
N15   Ni1   S    
C41   C72   A    
C58   C68   A    
C13   H78   S    
C83   H70   S    
C63   C71   A    
N3    N27   A    
C37   H46   S    
N10   Ni2   S    
C53   Cl1   S    
N6    Ni7   S    
C77   N11   A    
N9    Ni1   S    
N27   Ni4   S    
C28   C71   S    
C87   N21   A    
C15   H6    S    
C3    C77   A    
C60   N3    A    
C2    C76   A    
C9    C27   S    
C14   H5    S    
C80   N14   A    
N11   Ni3   S    
C10   C28   S    
N7    Ni8   S    
C13   H83   S    
C25   C47   S    
C39   H48   S    
N12   N32   A    
C11   H82   S    
C62   H58   S    
N2    Ni5   S    
C82   N16   A    
C50   C57   D    
C32   C46   S    
C59   N2    A    
C18   C27   S    
C78   N26   A    
C20   H38   S    
N13   Ni4   S    
C25   H25   S    
C51   C88   S    
C79   H65   S    
C4    C67   A    
C16   H7    S    
C54   Cl2   S    
C82   H69   S    
C51   H51   S    
C25   C27   S    
C21   C30   S    
C44   H31   S    
C76   H63   S    
C26   C28   S    
C33   C38   S    
C13   C17   S    
C62   C72   A    
C24   C46   S    
N4    Ni6   S    
N14   Ni2   S    
N15   N18   A    
C5    C85   A    
C77   H64   S    
N4    N23   A    
C49   C55   D    
C48   H35   S    
C75   H62   S    
C54   C69   S    
C5    C31   S    
C10   H81   S    
C21   H39   S    
N3    Ni6   S    
C78   H79   S    
C42   C73   A    
C42   H42   S    
C42   N30   A    
C57   Cl4   S    
N23   Ni3   S    
N9    N24   A    
C41   N29   A    
C17   H8    S    
C24   C30   S    
C26   H21   S    
N8    Ni8   S    
N21   Ni6   S    
C47   H29   S    
C23   H23   S    
C20   C36   S    
C59   H54   S    
N30   Ni4   S    
C75   C88   A    
C22   H22   S    
C7    C82   A    
C56   C88   A    
C11   C29   S    
C61   N4    A    
C1    H1    S    
N1    N2    A    
C79   N13   A    
N28   Ni2   S    
C6    C81   A    
C17   C32   S    
C64   C74   A    
C31   C36   S    
N10   N22   A    
C9    H80   S    
C17   H2    S    
N26   Ni8   S    
C33   C47   S    
C3    C78   A    
C61   H57   S    
C8    C35   S    
C21   H13   S    
C27   C72   S    
C50   H50   S    
N19   Ni5   S    
C10   H56   S    
C56   N24   A    
C65   N8    A    
C62   N5    A    
