data_mof_unit_26976.cif
_audit_creation_date              2012-12-10T18:14:28-0500
_audit_creation_method            fapswitch 2.2
_symmetry_space_group_name_H-M    P1
_symmetry_Int_Tables_number       1
_space_group_crystal_system       triclinic
_cell_length_a                    12.571847
_cell_length_b                    13.100385
_cell_length_c                    19.109394
_cell_angle_alpha                 91.140077
_cell_angle_beta                  102.859895
_cell_angle_gamma                 82.146795
_cell_volume                      3039.34336654

loop_
_atom_site_label
_atom_site_type_symbol
_atom_type_description
_atom_site_fract_x
_atom_site_fract_y
_atom_site_fract_z
_atom_type_partial_charge
C1    C     C_R   0.438192 0.691594 0.489832 0.905769
C2    C     C_R   0.496720 0.534333 0.144080 -0.103853
C3    C     C_R   0.693902 0.064104 0.439401 -0.199707
C4    C     C_R   0.500295 0.503101 0.634399 0.879781
C5    C     C_R   0.595868 0.199658 0.497579 -0.043850
C6    C     C_R   0.297294 0.840565 0.501787 0.494446
C7    C     C_R   0.271042 0.946808 0.508690 -0.243159
C8    C     C_R   0.343382 0.013016 0.498331 -0.269454
C9    C     C_R   0.442923 0.974745 0.478200 0.103053
C10   C     C_R   0.461932 0.870010 0.460919 0.011266
C11   C     C_R   0.524933 0.037085 0.475464 0.088247
C12   C     C_R   0.497608 0.521768 0.709381 -0.041514
C13   C     C_R   0.614067 0.000410 0.443341 0.162265
C14   C     C_R   0.621387 0.901192 0.415478 -0.270966
C15   C     C_R   0.546759 0.836188 0.424682 -0.178913
C16   C     C_R   0.561146 0.308509 0.506313 0.851365
C17   C     C_R   0.522840 0.133677 0.506926 -0.272207
C18   C     C_R   0.683589 0.164616 0.465263 -0.205466
C19   C     C_R   0.396721 0.801663 0.481616 -0.239294
C20   C     C_R   0.089639 0.341848 0.402310 -0.325611
C21   C     C_R   0.803453 0.619080 0.592681 0.574714
C22   C     C_R   0.914697 0.617226 0.629169 -0.186766
C23   C     C_R   0.494263 0.552355 0.068086 0.333255
C24   C     C_R   0.998232 0.563860 0.598164 -0.137190
C25   C     C_R   0.967854 0.513084 0.531475 -0.087579
C26   C     C_R   0.855756 0.499824 0.506716 0.139613
C27   C     C_R   0.044601 0.467328 0.491320 0.003794
C28   C     C_R   0.498268 0.501145 0.365347 0.894719
C29   C     C_R   0.013170 0.392729 0.438657 0.218804
C30   C     C_R   0.905664 0.370266 0.422616 -0.309156
C31   C     C_R   0.827509 0.425375 0.454589 -0.164441
C32   C     C_R   0.150210 0.495972 0.498878 -0.090186
C33   C     C_R   0.195611 0.367726 0.416894 -0.021823
C34   C     C_R   0.487919 0.574705 0.926987 0.338532
C35   C     C_R   0.415166 0.488431 0.737976 -0.123719
C36   C     C_R   0.409146 0.512105 0.808079 -0.160301
C37   C     C_R   0.485002 0.570036 0.850413 0.068908
C38   C     C_R   0.565323 0.608591 0.820741 -0.001738
C39   C     C_R   0.572326 0.581429 0.750872 -0.275340
C40   C     C_3   0.125718 0.785867 0.477082 0.098396
C41   C     C_3   0.039706 0.811739 0.522441 -0.328778
C42   C     C_3   0.923270 0.807835 0.478197 -0.998061
C43   C     C_3   0.714801 0.777422 0.613878 0.088894
C44   C     C_3   0.630496 0.831569 0.653750 -0.286115
C45   C     C_R   0.397346 0.551864 0.167182 -0.313527
C46   C     C_3   0.640133 0.946127 0.662778 -0.934564
C47   C     C_2   0.112405 0.541297 0.642264 0.363987
C48   C     C_2   0.941275 0.660389 0.702836 0.421195
C49   C     C_2   0.640479 0.679944 0.858835 0.396342
C50   C     C_3   0.236517 0.480132 0.254756 0.118156
C51   C     C_3   0.150626 0.483918 0.183725 -0.375956
C52   C     C_3   0.070032 0.406820 0.184226 -0.928709
C53   C     C_3   0.724327 0.381175 0.158113 0.112411
C54   C     C_3   0.794838 0.321502 0.224405 -0.397703
C55   C     C_3   0.850599 0.217790 0.204160 -0.940177
C56   C     C_R   0.394670 0.535868 0.238471 0.488592
C57   C     C_R   0.494383 0.506722 0.288648 -0.215937
C58   C     C_R   0.593669 0.489265 0.265916 -0.358781
C59   C     C_R   0.595681 0.499663 0.193976 0.528211
H1    H     H_    0.356602 0.442606 0.706580 0.149404
H2    H     H_    0.067641 0.283022 0.363089 0.151156
H3    H     H_    0.347685 0.481378 0.830171 0.153851
H4    H     H_    0.176553 0.559771 0.531549 0.184098
H5    H     H_    0.746245 0.405425 0.439072 0.199380
H6    H     H_    0.634046 0.610110 0.727979 0.209805
H7    H     H_    0.321109 0.581027 0.130277 0.188922
H8    H     H_    0.670848 0.468804 0.304374 0.186472
H9    H     H_    0.740374 0.215850 0.456936 0.146750
H10   H     H_    0.113665 0.711237 0.449941 0.168281
H11   H     H_    0.111531 0.845088 0.433498 0.114913
H12   H     H_    0.686720 0.872682 0.388617 0.163483
H13   H     H_    0.056558 0.756121 0.567860 0.263739
H14   H     H_    0.045273 0.890095 0.545035 0.211735
H15   H     H_    0.904536 0.862944 0.432282 0.264552
H16   H     H_    0.863111 0.829219 0.512373 0.255139
H17   H     H_    0.914326 0.728828 0.457648 0.273138
H18   H     H_    0.689227 0.800008 0.556291 0.145537
H19   H     H_    0.795593 0.804330 0.636119 0.130743
H20   H     H_    0.546149 0.821668 0.623742 0.217060
H21   H     H_    0.643929 0.796178 0.707920 0.234873
H22   H     H_    0.718288 0.956921 0.701024 0.270674
H23   H     H_    0.761657 0.037503 0.414187 0.139784
H24   H     H_    0.570121 0.985356 0.684108 0.270444
H25   H     H_    0.639291 0.981964 0.610668 0.270000
H26   H     H_    0.154906 0.463108 0.644945 0.074809
H27   H     H_    0.015715 0.694953 0.721710 0.135282
H28   H     H_    0.714698 0.688840 0.840730 0.109986
H29   H     H_    0.192291 0.487487 0.299163 0.183649
H30   H     H_    0.289277 0.403530 0.262043 0.111526
H31   H     H_    0.103947 0.562698 0.174783 0.250513
H32   H     H_    0.192340 0.465274 0.138700 0.215778
H33   H     H_    0.114663 0.327228 0.192412 0.258496
H34   H     H_    0.462314 0.161232 0.537519 0.154676
H35   H     H_    0.009008 0.410763 0.132149 0.276060
H36   H     H_    0.025271 0.425175 0.227842 0.268929
H37   H     H_    0.773536 0.379839 0.116389 0.184364
H38   H     H_    0.651262 0.341946 0.134335 0.111211
H39   H     H_    0.859060 0.367633 0.252582 0.241563
H40   H     H_    0.742125 0.307428 0.261781 0.204464
H41   H     H_    0.787866 0.170021 0.176139 0.272491
H42   H     H_    0.899307 0.176250 0.253530 0.259220
H43   H     H_    0.907153 0.229210 0.168718 0.271181
H44   H     H_    0.318115 0.094104 0.504788 0.160311
H45   H     H_    0.196457 0.978015 0.525379 0.153382
H46   H     H_    0.555940 0.759363 0.403008 0.175758
H47   H     H_    0.256570 0.327953 0.390317 0.131494
H48   H     H_    0.881049 0.311863 0.383695 0.145202
N1    N     N_R   0.585631 0.556313 0.974934 -0.138608
N2    N     N_R   0.588672 0.546213 0.044293 -0.113721
N3    N     N_R   0.396500 0.571717 0.019956 -0.182878
N4    N     N_R   0.393281 0.582239 0.950566 -0.170668
N5    N     N_R   0.222200 0.444680 0.463280 -0.104774
N6    N     N_R   0.776960 0.554780 0.536340 -0.172049
O1    O     O_R   0.366740 0.627160 0.482470 -0.563926
O2    O     O_3   0.719497 0.669656 0.621612 -0.589511
O3    O     O_2   0.161760 0.609608 0.672378 -0.587691
O4    O     O_2   0.879632 0.657327 0.743717 -0.571569
O5    O     O_2   0.618306 0.733069 0.908210 -0.539828
O6    O     O_3   0.297004 0.564623 0.260134 -0.631855
O7    O     O_3   0.696436 0.485881 0.174742 -0.626675
O8    O     O_R   0.544830 0.662520 0.505920 -0.599290
O9    O     O_R   0.410920 0.482320 0.590130 -0.613010
O10   O     O_R   0.589010 0.517690 0.613590 -0.563617
O11   O     O_R   0.455170 0.337480 0.494080 -0.620442
O12   O     O_R   0.633260 0.372840 0.517530 -0.632554
O13   O     O_R   0.410990 0.482310 0.386410 -0.602448
O14   O     O_R   0.589080 0.517680 0.409870 -0.650661
O15   O     O_3   0.232605 0.774290 0.522501 -0.622465
Zn1   Zn    Zn3+2 0.381090 0.476390 0.484340 0.963478
Zn2   Zn    Zn3+2 0.618910 0.523610 0.515660 0.966308

loop_
_geom_bond_atom_site_label_1
_geom_bond_atom_site_label_2
_ccdc_geom_bond_type
C22   C48   S    
C59   O7    S    
C30   H48   S    
C27   C29   A    
C34   C37   S    
C14   H12   S    
C49   H28   S    
C35   C36   A    
O8    Zn2   S    
C21   O2    S    
C53   O7    S    
C7    C8    A    
C38   C49   S    
C28   C57   S    
N1    N2    A    
C43   H19   S    
C6    C19   A    
C55   H43   S    
C42   H16   S    
C29   C30   A    
C40   H11   S    
C3    C18   A    
C47   H26   S    
C36   C37   A    
C10   C15   A    
C51   H31   S    
C30   C31   A    
C5    C17   A    
C18   H9    S    
C40   O15   S    
C56   C57   A    
C52   H36   S    
C41   C42   S    
C20   H2    S    
N3    N4    A    
C5    C16   S    
C43   O2    S    
O12   Zn2   S    
C45   C56   A    
C44   C46   S    
C8    C9    A    
C55   H41   S    
C52   H35   S    
N5    Zn1   S    
C4    C12   S    
C9    C10   A    
O9    Zn1   S    
C3    C13   A    
C28   O14   A    
C50   H29   S    
C51   H32   S    
C26   C31   A    
C21   C22   A    
C53   H37   S    
C34   N4    A    
C39   H6    S    
C36   H3    S    
C28   O13   A    
C20   C29   A    
C2    C45   A    
C47   O3    D    
C23   N2    A    
C42   H15   S    
C1    C19   S    
C40   H10   S    
C51   C52   S    
C44   H21   S    
C24   C25   A    
C21   N6    A    
N6    Zn2   S    
C2    C59   A    
C5    C18   A    
O13   Zn1   S    
C53   H38   S    
C58   C59   A    
C53   C54   S    
C50   O6    S    
C4    O10   A    
C35   H1    S    
C43   C44   S    
C37   C38   A    
C46   H22   S    
C50   H30   S    
C49   O5    D    
C10   C19   A    
C3    H23   S    
C50   C51   S    
C4    O9    A    
C33   N5    A    
C12   C35   A    
C9    C11   A    
C48   O4    D    
C41   H13   S    
C46   H25   S    
C20   C33   A    
C40   C41   S    
C7    H45   S    
O10   Zn2   S    
O1    Zn1   S    
C48   H27   S    
C54   H40   S    
C52   H33   S    
C43   H18   S    
C1    O1    A    
C45   H7    S    
C16   O12   A    
C23   N3    A    
C54   C55   S    
C11   C17   A    
C32   N5    A    
C27   C32   A    
C24   C47   S    
C31   H5    S    
C44   H20   S    
C33   H47   S    
C32   H4    S    
C6    C7    A    
C25   C27   A    
C55   H42   S    
C42   H17   S    
C34   N1    A    
C15   H46   S    
C12   C39   A    
C25   C26   A    
C26   N6    A    
C6    O15   S    
C11   C13   A    
C57   C58   A    
C38   C39   A    
C56   O6    S    
O11   Zn1   S    
C22   C24   A    
C16   O11   A    
C8    H44   S    
C1    O8    A    
O14   Zn2   S    
C41   H14   S    
C46   H24   S    
C58   H8    S    
C17   H34   S    
C2    C23   S    
C14   C15   A    
C54   H39   S    
C13   C14   A    
