data_mof_unit_62340.cif
_audit_creation_date              2012-12-10T16:49:18-0500
_audit_creation_method            fapswitch 2.2
_symmetry_space_group_name_H-M    P1
_symmetry_Int_Tables_number       1
_space_group_crystal_system       triclinic
_cell_length_a                    18.955939
_cell_length_b                    18.88064
_cell_length_c                    19.121225
_cell_angle_alpha                 109.393613
_cell_angle_beta                  110.643846
_cell_angle_gamma                 109.134117
_cell_volume                      5217.48727992

loop_
_atom_site_label
_atom_site_type_symbol
_atom_type_description
_atom_site_fract_x
_atom_site_fract_y
_atom_site_fract_z
_atom_type_partial_charge
C1    C     C_R   0.615236 0.617617 0.497947 0.835451
C2    C     C_3   0.175399 0.433070 0.221942 -0.154851
C3    C     C_3   0.237552 0.508097 0.317167 -0.179638
C4    C     C_3   0.313641 0.498833 0.312906 -0.008421
C5    C     C_2   0.740497 0.816869 0.490437 -0.167862
C6    C     C_2   0.818242 0.823323 0.508713 -0.306281
C7    C     C_2   0.679646 0.756570 0.502643 -0.158358
C8    C     C_2   0.677447 0.681920 0.492185 -0.311121
C9    C     C_2   0.829814 0.512122 0.756915 -0.196775
C10   C     C_2   0.813867 0.476876 0.804527 -0.055307
C11   C     C_2   0.758274 0.498980 0.680489 -0.166044
C12   C     C_R   0.380777 0.499142 0.380981 0.777136
C13   C     C_2   0.701153 0.521598 0.690374 -0.326499
C14   C     C_2   0.264417 0.245545 0.573695 -0.134193
C15   C     C_2   0.180448 0.195750 0.510224 -0.235467
C16   C     C_2   0.324258 0.318149 0.572690 -0.189454
C17   C     C_2   0.319886 0.310457 0.498506 0.264637
C18   C     C_R   0.007929 0.618177 0.124781 0.881686
C19   C     C_R   0.126128 0.500031 0.125557 0.787825
C20   C     C_R   0.006199 0.381821 0.889779 0.854487
C21   C     C_R   0.886635 0.494950 0.883739 0.804004
C22   C     C_R   0.004039 0.122738 0.616332 0.789973
C23   C     C_R   0.383607 0.381621 0.500246 0.729807
C24   C     C_R   0.882470 0.884733 0.502111 0.855460
C25   C     C_R   0.998900 0.880246 0.383596 0.901442
C26   C     C_R   0.117310 0.120988 0.503690 0.804929
C27   C     C_2   0.005290 0.746084 0.325194 0.436842
C28   C     C_2   0.992157 0.808914 0.315458 -0.332999
C29   C     C_2   0.993409 0.673972 0.251158 -0.275705
C30   C     C_2   0.015174 0.687357 0.195295 -0.359954
C31   C     C_2   0.968761 0.237660 0.674446 0.082166
C32   C     C_2   0.025919 0.207339 0.683300 -0.087552
C33   C     C_2   0.991332 0.316261 0.749126 -0.187845
C34   C     C_R   0.624035 0.506096 0.619514 0.852603
C35   C     C_2   0.996809 0.312221 0.818994 -0.370722
C36   C     C_3   0.331537 0.565237 0.283319 0.143015
C37   C     C_3   0.255328 0.575414 0.287095 -0.170544
C38   C     C_3   0.194168 0.500185 0.192709 0.000655
C39   C     C_3   0.270215 0.490848 0.188057 -0.173358
C40   C     C_3   0.252462 0.423883 0.218522 -0.186591
Cu1   Cu    Cu3+1 0.500860 0.438990 0.439830 0.947170
Cu2   Cu    Cu3+1 0.499140 0.561010 0.560170 0.940127
Cu3   Cu    Cu3+1 0.946020 0.438950 0.007030 0.934698
Cu4   Cu    Cu3+1 0.068040 0.560950 0.006980 0.936166
Cu5   Cu    Cu3+1 0.938110 0.000000 0.438130 0.937178
Cu6   Cu    Cu3+1 0.061890 0.000000 0.561870 0.978634
H1    H     H_    0.255468 0.637465 0.313675 0.126346
H2    H     H_    0.716728 0.662407 0.469518 0.155913
H3    H     H_    0.896322 0.552256 0.774748 0.158512
H4    H     H_    0.753387 0.472238 0.618082 0.164492
H5    H     H_    0.713165 0.555994 0.755356 0.157704
H6    H     H_    0.289002 0.234810 0.627503 0.153663
H7    H     H_    0.154867 0.213192 0.462111 0.190989
H8    H     H_    0.375810 0.376690 0.634345 0.112442
H9    H     H_    0.968137 0.804105 0.252449 0.109007
H10   H     H_    0.970931 0.610380 0.245514 0.167894
H11   H     H_    0.045687 0.752482 0.205448 0.155037
H12   H     H_    0.995067 0.372710 0.743712 0.156775
H13   H     H_    0.983790 0.251760 0.819251 0.158210
H14   H     H_    0.282508 0.484280 0.134227 0.127771
H15   H     H_    0.252202 0.361789 0.191782 0.147274
H16   H     H_    0.109914 0.378469 0.195576 0.147982
H17   H     H_    0.225246 0.514733 0.370996 0.143332
H18   H     H_    0.723024 0.859247 0.470628 0.161128
H19   H     H_    0.839598 0.787884 0.537492 0.157962
H20   H     H_    0.633146 0.771329 0.515306 0.157997
O1    O     O_R   0.589740 0.537510 0.449170 -0.590554
O2    O     O_R   0.057320 0.640510 0.094780 -0.586241
O3    O     O_R   0.045810 0.448440 0.097300 -0.592888
O4    O     O_R   0.148850 0.551460 0.097260 -0.594550
O5    O     O_R   0.956740 0.359390 0.919230 -0.588643
O6    O     O_R   0.059790 0.462410 0.919190 -0.583347
O7    O     O_R   0.865220 0.448430 0.916750 -0.593863
O8    O     O_R   0.968260 0.551460 0.916710 -0.591978
O9    O     O_R   0.946480 0.089020 0.535540 -0.611051
O10   O     O_R   0.051000 0.089020 0.640050 -0.590389
O11   O     O_R   0.858720 0.910970 0.447760 -0.584740
O12   O     O_R   0.588290 0.640550 0.550800 -0.580666
O13   O     O_R   0.963250 0.910970 0.552260 -0.577432
O14   O     O_R   0.949000 0.910980 0.359950 -0.599152
O15   O     O_R   0.053520 0.910980 0.464460 -0.523330
O16   O     O_R   0.036750 0.089030 0.447740 -0.589202
O17   O     O_R   0.141280 0.089030 0.552240 -0.590466
O18   O     O_R   0.410430 0.448470 0.358910 -0.591201
O19   O     O_R   0.408980 0.551520 0.460540 -0.590617
O20   O     O_R   0.411710 0.359450 0.449200 -0.577515
O21   O     O_R   0.410260 0.462490 0.550830 -0.595577
O22   O     O_R   0.591020 0.448480 0.539460 -0.577833
O23   O     O_R   0.589570 0.551530 0.641090 -0.589144
O24   O     O_R   0.954280 0.537480 0.094820 -0.580113
C41   C     C_3   0.721780 0.405784 0.771135 -0.354542
C42   C     C_3   0.696399 0.319337 0.697683 -0.334118
C43   C     C_3   0.604521 0.248500 0.662721 -0.841670
H21   H     H_    0.600243 0.237491 0.715024 0.252595
H22   H     H_    0.556075 0.267302 0.635923 0.258759
H23   H     H_    0.588546 0.186868 0.610173 0.245741
H24   H     H_    0.699035 0.327496 0.643581 0.231399
H25   H     H_    0.743349 0.298231 0.722378 0.215247
H26   H     H_    0.717671 0.395111 0.823604 0.204534
H27   H     H_    0.671860 0.424152 0.749861 0.197256
O25   O     O_3   0.263790 0.230640 0.422360 -0.726814
H28   H     H_    0.264103 0.237975 0.373462 0.325154
O26   O     O_3   0.023849 0.745925 0.401829 -0.711445
H29   H     H_    0.031388 0.695268 0.396883 0.315247
C44   C     C_3   0.423011 0.639384 0.321630 -0.430042
C45   C     C_3   0.420835 0.695026 0.279020 -0.327209
C46   C     C_3   0.512516 0.768965 0.318051 -0.846877
H30   H     H_    0.541824 0.811904 0.388560 0.247592
H31   H     H_    0.554827 0.742543 0.308172 0.260780
H32   H     H_    0.509258 0.808245 0.286058 0.242385
H33   H     H_    0.392347 0.654049 0.208284 0.220745
H34   H     H_    0.379503 0.723073 0.288523 0.220989
H35   H     H_    0.451696 0.680411 0.392389 0.197219
H36   H     H_    0.464222 0.611219 0.312002 0.197711
C47   C     C_3   0.878158 0.188097 0.593409 -0.354822
C48   C     C_3   0.818831 0.225998 0.600785 -0.375972
C49   C     C_3   0.728909 0.170952 0.518232 -0.851890
H37   H     H_    0.734864 0.168522 0.461842 0.255318
H38   H     H_    0.696332 0.103799 0.506157 0.254662
H39   H     H_    0.687741 0.199965 0.525251 0.244156
H40   H     H_    0.810556 0.227875 0.655974 0.227530
H41   H     H_    0.848678 0.293194 0.612212 0.216234
H42   H     H_    0.885791 0.187584 0.538247 0.211982
H43   H     H_    0.844523 0.120137 0.579216 0.202386
C50   C     C_3   0.119938 0.261884 0.761123 -0.397722
C51   C     C_3   0.185329 0.293451 0.733480 -0.345102
C52   C     C_3   0.278962 0.349557 0.810424 -0.855128
H44   H     H_    0.286989 0.408331 0.859581 0.255089
H45   H     H_    0.296069 0.311930 0.840585 0.255094
H46   H     H_    0.324375 0.370510 0.787932 0.240339
H47   H     H_    0.180584 0.237123 0.684728 0.227888
H48   H     H_    0.170099 0.332112 0.703789 0.218603
H49   H     H_    0.132273 0.320169 0.814419 0.223756
H50   H     H_    0.134039 0.222121 0.789738 0.206480

loop_
_geom_bond_atom_site_label_1
_geom_bond_atom_site_label_2
_ccdc_geom_bond_type
C50   H50   S    
Cu3   O7    S    
C4    C36   S    
C51   C52   S    
C27   C29   S    
C25   O14   A    
Cu1   Cu2   S    
Cu5   O16   S    
C33   H12   S    
C22   O10   A    
C52   H45   S    
C42   H25   S    
C7    C8    D    
Cu1   O1    S    
C45   H34   S    
Cu5   Cu6   S    
C25   C28   S    
Cu1   O20   S    
O25   H28   S    
C48   H41   S    
C12   O19   A    
C26   O17   A    
C15   H7    S    
C44   H35   S    
C36   C37   S    
C37   C38   S    
C49   H38   S    
C5    C6    D    
C45   C46   S    
C18   O2    A    
C47   C48   S    
C1    C8    S    
C30   H11   S    
C21   O7    A    
C48   C49   S    
C12   O18   A    
C35   H13   S    
C31   C47   S    
C17   O25   S    
C43   H22   S    
C1    O1    A    
C13   H5    S    
C20   C35   S    
C6    H19   S    
C14   H6    S    
Cu6   O13   S    
C4    C40   S    
C16   C17   D    
C23   O20   A    
C46   H30   S    
C31   C33   S    
C20   O5    A    
Cu4   O4    S    
C18   C30   S    
C41   H27   S    
C37   H1    S    
C9    C10   D    
C26   O16   A    
C23   O21   A    
C25   O15   A    
C1    O12   A    
C46   H31   S    
C22   O9    A    
Cu6   O10   S    
C28   H9    S    
C42   H24   S    
C45   H33   S    
C10   C21   S    
Cu3   O24   S    
C47   H42   S    
C48   H40   S    
C18   O24   A    
C44   H36   S    
C9    H3    S    
C49   H39   S    
C39   C40   S    
C5    C7    S    
C15   C26   S    
C34   O22   A    
Cu1   O18   S    
C21   O8    A    
C40   H15   S    
C5    H18   S    
C32   C50   S    
Cu3   Cu4   S    
C8    H2    S    
C29   C30   D    
C19   C38   S    
Cu6   O15   S    
C2    C38   S    
C24   O13   A    
C31   C32   D    
C51   H48   S    
C6    C24   S    
Cu2   O19   S    
C17   C23   S    
Cu4   O8    S    
C9    C11   S    
C22   C32   S    
C10   C41   S    
Cu2   O12   S    
C43   H23   S    
C50   C51   S    
C46   H32   S    
C14   C16   S    
Cu4   O2    S    
C4    C12   S    
C3    C4    S    
C41   C42   S    
C44   C45   S    
C50   H49   S    
Cu1   O22   S    
Cu3   O5    S    
C47   H43   S    
C36   C44   S    
C36   C39   S    
C29   H10   S    
C3    H17   S    
C43   H21   S    
Cu5   O9    S    
Cu2   O23   S    
C2    C3    S    
C52   H46   S    
C13   C34   S    
C11   H4    S    
C49   H37   S    
C7    H20   S    
C11   C13   D    
C38   C39   S    
C51   H47   S    
C39   H14   S    
C27   O26   S    
C42   C43   S    
C33   C35   D    
Cu4   O6    S    
Cu5   O14   S    
C16   H8    S    
C34   O23   A    
C19   O3    A    
Cu6   O17   S    
C2    C40   S    
C24   O11   A    
C3    C37   S    
Cu3   O3    S    
O26   H29   S    
C14   C15   D    
C20   O6    A    
C19   O4    A    
Cu5   O11   S    
Cu2   O21   S    
C41   H26   S    
C2    H16   S    
C52   H44   S    
C27   C28   D    
