data_mof_unit_16962.cif
_audit_creation_date              2012-12-10T17:23:13-0500
_audit_creation_method            fapswitch 2.2
_symmetry_space_group_name_H-M    P1
_symmetry_Int_Tables_number       1
_space_group_crystal_system       triclinic
_cell_length_a                    15.878356
_cell_length_b                    10.862617
_cell_length_c                    9.592666
_cell_angle_alpha                 92.15363
_cell_angle_beta                  89.973855
_cell_angle_gamma                 93.055694
_cell_volume                      1651.02637302

loop_
_atom_site_label
_atom_site_type_symbol
_atom_type_description
_atom_site_fract_x
_atom_site_fract_y
_atom_site_fract_z
_atom_type_partial_charge
C1    C     C_R   0.504757 0.263147 0.497595 0.795640
C2    C     C_3   0.083395 0.502885 0.499960 -0.034210
C3    C     C_3   0.974553 0.582871 0.598336 0.355498
C4    C     C_3   0.916513 0.502205 0.499644 -0.108922
C5    C     C_3   0.031780 0.615805 0.473630 -0.035858
C6    C     C_3   0.973075 0.535397 0.374843 0.419357
C7    C     C_1   0.175026 0.502075 0.500165 0.069883
C8    C     C_1   0.824970 0.501717 0.499739 0.131326
C9    C     C_R   0.596727 0.137124 0.707449 -0.199876
C10   C     C_R   0.606613 0.091517 0.839234 -0.141594
C11   C     C_R   0.566327 0.979619 0.871112 0.415575
C12   C     C_R   0.339996 0.499884 0.499998 0.814450
C13   C     C_R   0.527002 0.904775 0.765427 -0.237648
C14   C     C_R   0.521593 0.946459 0.627348 0.005574
C15   C     C_R   0.544786 0.071385 0.607343 0.094344
C16   C     C_R   0.510386 0.129659 0.493588 -0.132575
C17   C     C_R   0.466027 0.060458 0.389467 -0.134851
C18   C     C_R   0.455579 0.932645 0.395367 0.176898
C19   C     C_R   0.488444 0.873092 0.511146 -0.108804
C20   C     C_R   0.620819 0.652145 0.149444 -0.164068
C21   C     C_R   0.684578 0.717265 0.079522 0.462186
C22   C     C_R   0.683512 0.718160 0.935626 -0.161378
C23   C     C_R   0.495096 0.737845 0.503282 0.802985
C24   C     C_R   0.619392 0.653014 0.861707 -0.230910
C25   C     C_R   0.558929 0.575023 0.928109 0.201587
C26   C     C_R   0.559223 0.574785 0.077598 0.150652
C27   C     C_R   0.444135 0.427966 0.070896 -0.031622
C28   C     C_R   0.444193 0.427943 0.922956 -0.027020
C29   C     C_R   0.659985 0.500528 0.500010 0.797672
C30   C     C_3   0.967395 0.387880 0.526299 -0.293665
C31   C     C_3   0.024907 0.422543 0.401597 0.039540
C32   C     C_1   0.250446 0.501055 0.500110 -0.155795
C33   C     C_1   0.749526 0.501193 0.499903 -0.111631
C34   C     C_3   0.026396 0.469856 0.624340 0.375535
Cu1   Cu    Cu3+1 0.499990 0.499990 0.640660 0.948214
Cu2   Cu    Cu3+1 0.500010 0.500010 0.359340 0.960050
H1    H     H_    0.494347 0.821097 0.797249 0.198243
H2    H     H_    0.398439 0.368807 0.123673 0.137831
H3    H     H_    0.621628 0.668140 0.259256 0.216399
H4    H     H_    0.730058 0.774532 0.880807 0.210982
H5    H     H_    0.618460 0.669972 0.753342 0.219017
H6    H     H_    0.398512 0.368746 0.865241 0.150474
H7    H     H_    0.940419 0.294153 0.547933 0.206420
H8    H     H_    0.437043 0.106963 0.305210 0.164744
H9    H     H_    0.626148 0.226833 0.687109 0.172195
H10   H     H_    0.640612 0.147179 0.918953 0.186511
N1    N     N_R   0.500800 0.501210 0.147910 -0.192267
N2    N     N_R   0.500830 0.501290 0.852040 -0.196667
O1    O     O_R   0.499990 0.319640 0.618810 -0.581800
O2    O     O_R   0.500000 0.319660 0.381240 -0.572318
O3    O     O_R   0.379070 0.499980 0.618770 -0.563243
O4    O     O_R   0.379080 0.500000 0.381190 -0.580663
O5    O     O_R   0.500000 0.680340 0.618760 -0.615607
O6    O     O_R   0.500010 0.680360 0.381190 -0.586338
O7    O     O_R   0.620920 0.500000 0.618810 -0.595876
O8    O     O_R   0.620930 0.500020 0.381230 -0.581010
C35   C     C_3   0.053896 0.331593 0.289569 -0.674660
H11   H     H_    0.998204 0.286775 0.234691 0.261657
H12   H     H_    0.094508 0.381053 0.213314 0.254802
H13   H     H_    0.090286 0.260065 0.338294 0.219315
Cl1   Cl    Cl    0.559856 0.939319 0.045779 -0.667496
C36   C     C_3   0.401050 0.864249 0.285282 -0.725380
H14   H     H_    0.353196 0.802281 0.335693 0.203702
H15   H     H_    0.366511 0.928480 0.221577 0.221735
H16   H     H_    0.439843 0.809450 0.212635 0.285935
Cl2   Cl    Cl    0.761986 0.807008 0.173689 -0.491105
Cl3   Cl    Cl    0.936637 0.578306 0.208654 -0.463655
C37   C     C_3   0.068532 0.744266 0.443915 -0.673610
H17   H     H_    0.016644 0.807042 0.429054 0.270123
H18   H     H_    0.108539 0.779836 0.532926 0.235309
H19   H     H_    0.107459 0.740335 0.347898 0.237326
Cl4   Cl    Cl    0.939739 0.688844 0.729749 -0.486523
Cl5   Cl    Cl    0.062282 0.426544 0.790527 -0.511040

loop_
_geom_bond_atom_site_label_1
_geom_bond_atom_site_label_2
_ccdc_geom_bond_type
C9    H9    S    
C21   Cl2   S    
Cu1   O5    S    
C2    C7    S    
C4    C8    S    
C5    C6    S    
C35   H12   S    
C27   H2    S    
C15   C16   A    
C29   C33   S    
Cu2   N1    S    
C18   C19   A    
C36   H15   S    
C37   H17   S    
Cu1   Cu2   S    
C16   C17   A    
Cu1   O1    S    
C1    O2    A    
C13   H1    S    
Cu2   O4    S    
C2    C34   S    
C6    C31   S    
C21   C22   A    
C12   C32   S    
C24   H5    S    
C5    C37   S    
Cu1   N2    S    
C12   O4    A    
C23   O5    A    
C30   C34   S    
Cu1   O7    S    
C24   C25   A    
C4    C6    S    
C20   H3    S    
C18   C36   S    
C35   H13   S    
C29   O7    A    
C3    C34   S    
C3    C5    S    
C25   C26   A    
C2    C31   S    
C19   C23   S    
C10   H10   S    
C36   H14   S    
Cu2   O8    S    
C22   H4    S    
C17   C18   A    
C1    C16   S    
C25   N2    A    
C26   N1    A    
C6    Cl3   S    
Cu1   O3    S    
C22   C24   A    
C30   H7    S    
C2    C5    S    
C3    C4    S    
C12   O3    A    
Cu2   O2    S    
C23   O6    A    
C9    C10   A    
C27   N1    A    
C28   N2    A    
C7    C32   T    
C36   H16   S    
C14   C19   A    
C11   Cl1   S    
C29   O8    A    
C31   C35   S    
C3    Cl4   S    
C9    C15   A    
C17   H8    S    
C11   C13   A    
C35   H11   S    
C30   C31   S    
C20   C26   A    
C37   H19   S    
C28   H6    S    
C8    C33   T    
Cu2   O6    S    
C10   C11   A    
C34   Cl5   S    
C20   C21   A    
C37   H18   S    
C27   C28   A    
C14   C15   A    
C13   C14   A    
C1    O1    A    
C4    C30   S    
