data_mof_unit_5861.cif
_audit_creation_date              2013-03-05T15:45:31-0500
_audit_creation_method            fapswitch 2.2
_symmetry_space_group_name_H-M    P1
_symmetry_Int_Tables_number       1
_space_group_crystal_system       triclinic
_cell_length_a                    27.724142
_cell_length_b                    10.655209
_cell_length_c                    9.995791
_cell_angle_alpha                 90.019027
_cell_angle_beta                  90.870461
_cell_angle_gamma                 89.709818
_cell_volume                      2952.44318227

loop_
_atom_site_label
_atom_site_type_symbol
_atom_site_description
_atom_site_fract_x
_atom_site_fract_y
_atom_site_fract_z
_atom_type_partial_charge
O1    O     O_R   0.499990 0.319060 0.613040 -0.584480
O2    O     O_R   0.500010 0.319100 0.386900 -0.597276
C1    C     C_R   0.501203 0.262123 0.499259 1.012154
O3    O     O_R   0.428750 0.500000 0.613050 -0.587272
O4    O     O_R   0.428760 0.500040 0.386920 -0.597869
C2    C     C_R   0.405913 0.502844 0.498252 0.944501
Zn1   Zn    Zn3+2 0.499990 0.499970 0.650990 1.058874
Zn2   Zn    Zn3+2 0.500010 0.500030 0.349010 1.038230
O5    O     O_R   0.499990 0.680900 0.613100 -0.583363
O6    O     O_R   0.500010 0.680940 0.386960 -0.580658
O7    O     O_R   0.571240 0.499960 0.613080 -0.635136
O8    O     O_R   0.571250 0.500000 0.386950 -0.604349
C3    C     C_R   0.504802 0.737878 0.500292 0.900959
C4    C     C_R   0.594184 0.498825 0.501171 0.926764
C5    C     C_R   0.178747 0.374416 0.457314 0.580515
O9    O     O_2   0.206700 0.271407 0.472228 -0.505629
N1    N     N_R   0.200339 0.489336 0.446311 -0.337299
C6    C     C_R   0.173675 0.596222 0.426760 0.565635
C7    C     C_R   0.279735 0.556395 0.360394 -0.042485
C8    C     C_R   0.329731 0.570943 0.381944 0.084008
C9    C     C_R   0.324759 0.441821 0.584840 -0.105711
C10   C     C_R   0.274672 0.447737 0.573673 -0.134661
C11   C     C_R   0.252035 0.498182 0.459763 0.179760
C12   C     C_R   0.100614 0.476471 0.442732 -0.056420
C13   C     C_R   0.127913 0.364945 0.459099 -0.098927
C14   C     C_R   0.103211 0.250418 0.480522 -0.044007
C15   C     C_R   0.123705 0.589137 0.407524 -0.075019
C16   C     C_R   0.352866 0.506704 0.490397 -0.181688
H1    H     H_    0.252817 0.403476 0.649111 0.193653
C17   C     C_R   0.647357 0.490957 0.505573 -0.237197
C18   C     C_R   0.976523 0.369070 0.527107 0.036605
C19   C     C_R   0.974709 0.595662 0.479442 -0.030446
C20   C     C_R   0.950457 0.483086 0.509551 0.060647
C21   C     C_R   0.951686 0.263938 0.576404 -0.227401
C22   C     C_R   0.901823 0.264700 0.588573 0.247363
C23   C     C_R   0.875246 0.371690 0.549545 -0.085544
C24   C     C_R   0.899829 0.484593 0.523472 -0.111708
C25   C     C_R   0.873599 0.598023 0.508257 -0.124627
C26   C     C_R   0.823377 0.594279 0.524717 0.600658
N2    N     N_R   0.800091 0.481748 0.526994 -0.343178
C27   C     C_R   0.824915 0.371048 0.535238 0.588838
C28   C     C_R   0.721652 0.438813 0.628203 0.168531
C29   C     C_R   0.671222 0.433161 0.616836 -0.141585
C30   C     C_R   0.674850 0.543284 0.401394 0.118456
C31   C     C_R   0.725019 0.526945 0.402937 0.177424
C32   C     C_R   0.748431 0.480971 0.518932 0.119706
O10   O     O_2   0.800835 0.261703 0.526032 -0.476596
C33   C     C_R   0.026773 0.365662 0.501925 0.046918
C34   C     C_R   0.050270 0.476897 0.463370 0.089565
C35   C     C_R   0.023821 0.589425 0.444710 0.056771
C36   C     C_R   0.053665 0.252907 0.504420 -0.216249
H2    H     H_    0.970338 0.181241 0.611873 0.183663
H3    H     H_    0.036355 0.163477 0.517643 0.189226
O11   O     O_2   0.195213 0.709394 0.433648 -0.513028
C37   C     C_R   0.095682 0.690885 0.358758 -0.049364
C38   C     C_R   0.948882 0.710789 0.485322 0.079141
C39   C     C_R   0.898441 0.710555 0.482120 0.217366
O12   O     O_2   0.797616 0.700790 0.539748 -0.476746
C40   C     C_R   0.045939 0.688114 0.376328 -0.205660
H4    H     H_    0.024076 0.761376 0.330985 0.200813
C41   C     C_2   0.526668 0.936179 0.392052 0.126567
C42   C     C_2   0.524130 0.864535 0.503803 -0.325907
C43   C     C_2   0.532450 0.070642 0.407666 0.211372
C44   C     C_2   0.503025 0.129157 0.493468 -0.362577
H5    H     H_    0.477305 0.078168 0.553632 0.147048
C45   C     C_2   0.538241 0.516455 0.928574 -0.122484
N3    N     N_2   0.500520 0.501330 0.852150 -0.169922
H6    H     H_    0.571252 0.549181 0.883890 0.202022
C46   C     C_2   0.538871 0.492503 0.076583 -0.040170
N4    N     N_2   0.500540 0.501360 0.147810 -0.181631
H7    H     H_    0.573041 0.470473 0.125171 0.193618
H8    H     H_    0.470670 0.542459 0.103612 0.201111
C47   C     C_2   0.345767 0.357500 0.688812 1.030081
O13   O     O_2   0.327567 0.352248 0.799390 -0.561087
O14   O     O_R   0.384517 0.278534 0.658142 -0.797253
H9    H     H_    0.394885 0.223587 0.736310 0.355747
C48   C     C_2   0.256364 0.593432 0.231524 1.025405
O15   O     O_2   0.260756 0.699796 0.187775 -0.524365
O16   O     O_R   0.227521 0.506774 0.162749 -0.770876
H10   H     H_    0.212677 0.542878 0.077710 0.367588
C49   C     C_2   0.115786 0.793414 0.275811 1.009505
O17   O     O_2   0.095561 0.895629 0.271273 -0.594160
O18   O     O_R   0.155963 0.771147 0.196221 -0.737757
H11   H     H_    0.165629 0.847735 0.142977 0.385722
I1    I     I_    0.982930 0.882197 0.549254 -0.277900
I2    I     I_    0.643390 0.663775 0.251223 -0.175966
I3    I     I_    0.863391 0.874947 0.402653 -0.070993
I4    I     I_    0.766350 0.566908 0.228586 -0.139035
I5    I     I_    0.508621 0.883026 0.190567 -0.151453
C50   C     C_2   0.545529 0.909436 0.634146 0.921052
O19   O     O_2   0.525649 0.886771 0.739800 -0.562162
O20   O     O_R   0.588513 0.977686 0.634836 -0.730031
H12   H     H_    0.599292 0.003026 0.728336 0.383846
I6    I     I_    0.587876 0.160662 0.296745 -0.140785
C51   C     C_2   0.463830 0.418528 0.896015 1.043118
O21   O     O_2   0.421773 0.453153 0.892566 -0.599197
O22   O     O_R   0.475839 0.297720 0.940799 -0.782209
H13   H     H_    0.446545 0.248153 0.968942 0.351179
C52   C     C_2   0.126274 0.124765 0.472840 1.057330
O23   O     O_2   0.151494 0.097644 0.377670 -0.507122
O24   O     O_R   0.116573 0.034683 0.570380 -0.772061
H14   H     H_    0.133313 0.951616 0.552694 0.370795
C53   C     C_2   0.644198 0.360947 0.717917 1.011110
O25   O     O_2   0.619424 0.272009 0.682245 -0.588766
O26   O     O_R   0.646396 0.395323 0.852814 -0.777189
H15   H     H_    0.626497 0.338394 0.911356 0.352295
I7    I     I_    0.758190 0.384447 0.810243 -0.116032
I8    I     I_    0.871853 0.111548 0.695606 -0.097196
I9    I     I_    0.369083 0.693809 0.251572 -0.145392

loop_
_geom_bond_atom_site_label_1
_geom_bond_atom_site_label_2
_geom_bond_distance
_ccdc_geom_bond_type
C45   H6    1.083729 S    
O16   H10   1.013839 S    
O24   H14   1.014043 S    
C10   H1    1.084062 S    
C37   C40   1.393340 A    
C47   O13   1.223407 D    
C51   O21   1.221165 D    
C12   C15   1.410587 A    
O22   H13   1.014415 S    
C38   I1    2.152547 S    
C48   O15   1.222231 D    
Zn1   O7    2.017009 S    
C43   I6    2.139632 S    
N1    C11   1.441040 S    
O18   H11   1.013840 S    
C35   C40   1.403123 A    
C23   C24   1.411929 A    
O4    C2    1.289093 A    
O7    C4    1.295228 A    
C15   C37   1.413116 A    
C5    C13   1.413830 A    
C45   C46   1.501228 S    
C5    O9    1.347399 S    
C9    C47   1.484414 S    
C38   C39   1.398337 A    
C46   H7    1.082696 S    
C21   C22   1.389576 A    
C28   C32   1.405113 A    
C41   C43   1.450576 S    
O5    C3    1.289855 A    
C22   I8    2.130696 S    
C33   C36   1.410772 A    
C2    C16   1.471928 S    
C3    C42   1.454784 S    
C7    C8    1.408809 A    
C18   C20   1.419978 A    
C37   C49   1.487412 S    
C28   I7    2.147439 S    
C14   C52   1.483247 S    
C45   N3    1.296362 D    
C40   H4    1.081333 S    
C9    C10   1.392507 A    
N3    C51   1.424170 S    
C47   O14   1.398833 S    
C17   C30   1.416004 A    
C23   C27   1.400598 A    
C46   N4    1.291152 D    
C4    C17   1.476129 S    
O3    Zn1   2.005480 S    
C30   I2    2.147652 S    
C49   O18   1.397860 S    
C41   I5    2.144482 S    
C49   O17   1.223001 D    
C48   O16   1.398214 S    
C31   I4    2.144240 S    
C12   C13   1.413842 A    
O3    C2    1.302422 A    
C26   N2    1.365031 A    
C8    C16   1.424801 A    
C13   C14   1.420250 A    
C1    C44   1.418616 S    
C26   O12   1.347430 S    
C20   C24   1.412591 A    
C39   I3    2.145625 S    
O1    C1    1.289657 A    
C22   C23   1.406324 A    
C7    C11   1.410501 A    
O14   H9    1.013750 S    
C24   C25   1.414427 A    
C25   C39   1.412219 A    
C7    C48   1.485694 S    
C50   O20   1.399129 S    
C52   O23   1.222837 D    
Zn2   O8    2.005483 S    
N1    C6    1.367100 A    
C27   O10   1.348164 S    
C18   C21   1.410778 A    
C53   O26   1.397668 S    
C19   C35   1.411491 A    
N2    C27   1.364497 A    
C52   O24   1.398378 S    
C9    C16   1.415851 A    
O8    C4    1.298400 A    
C18   C33   1.419733 A    
C17   C29   1.424035 A    
C28   C29   1.402618 A    
N2    C32   1.433321 S    
C30   C31   1.400716 A    
C12   C34   1.413977 A    
Zn1   O5    1.964821 S    
C33   C34   1.411896 A    
O1    Zn1   1.964482 S    
Zn2   N4    2.011486 S    
O2    Zn2   1.964822 S    
C6    C15   1.398170 A    
C43   C44   1.343711 D    
O6    C3    1.290289 A    
O4    Zn2   2.017006 S    
C51   O22   1.399907 S    
C5    N1    1.370896 A    
O26   H15   1.013983 S    
C21   H2    1.076829 S    
C44   H5    1.087425 S    
O2    C1    1.276783 A    
C14   C36   1.397929 A    
C19   C20   1.412825 A    
C50   O19   1.223361 D    
C25   C26   1.405295 A    
C42   C50   1.502438 S    
O20   H12   1.013835 S    
C41   C42   1.356096 D    
C29   C53   1.484465 S    
C6    O11   1.349598 S    
Zn1   N3    2.010632 S    
C8    I9    2.158998 S    
C31   C32   1.407097 A    
Zn2   O6    1.964481 S    
C34   C35   1.413224 A    
C53   O25   1.223050 D    
C10   C11   1.398050 A    
N4    H8    1.028638 S    
C36   H3    1.078158 S    
C19   C38   1.418900 A    
