data_mof_unit_60050.cif
_audit_creation_date              2012-10-26T17:20:27-0400
_audit_creation_method            fapswitch 2.2
_symmetry_space_group_name_H-M    P1
_symmetry_Int_Tables_number       1
_space_group_crystal_system       triclinic
_cell_length_a                    23.683398
_cell_length_b                    23.683397
_cell_length_c                    38.912748
_cell_angle_alpha                 90.000022
_cell_angle_beta                  89.999969
_cell_angle_gamma                 90.0
_cell_volume                      21826.2894323

loop_
_atom_site_label
_atom_site_type_symbol
_atom_type_description
_atom_site_fract_x
_atom_site_fract_y
_atom_site_fract_z
_atom_type_partial_charge
C1    C     C_R   0.500000 0.108220 0.500000 0.574451
C2    C     C_R   1.000000 0.500000 0.395348 -0.089638
C3    C     C_R   0.511859 0.050256 0.841353 0.205906
C4    C     C_R   0.949744 0.488140 0.158647 0.205905
C5    C     C_R   0.488140 0.050256 0.158647 0.205906
C6    C     C_R   0.050255 0.511860 0.158647 0.205905
C7    C     C_R   0.511860 0.949744 0.158647 0.205906
C8    C     C_R   0.500000 0.000000 0.322892 -0.076452
C9    C     C_R   1.000000 0.500000 0.322892 -0.076452
C10   C     C_R   0.500000 1.000000 0.677108 -0.076452
C11   C     C_R   0.000000 0.500000 0.677108 -0.076452
C12   C     C_R   0.000000 0.500000 0.822892 -0.076452
C13   C     C_R   0.500000 1.000000 0.604652 -0.089638
C14   C     C_R   0.500000 1.000000 0.822892 -0.076452
C15   C     C_R   1.000000 0.500000 0.177108 -0.076452
C16   C     C_R   0.500000 0.000000 0.177108 -0.076452
C17   C     C_R   0.000000 0.500000 0.604652 -0.089638
C18   C     C_R   1.000000 0.500000 0.895348 -0.089638
C19   C     C_R   0.500000 1.000000 0.895348 -0.089639
C20   C     C_R   1.000000 0.500000 0.104652 -0.089638
C21   C     C_R   0.500000 0.000000 0.104652 -0.089638
C22   C     C_R   0.500000 0.000000 0.215142 0.398978
C23   C     C_R   1.000000 0.500000 0.215142 0.398978
C24   C     C_R   0.500000 1.000000 0.784858 0.398978
C25   C     C_R   0.891780 0.500000 0.500000 0.574451
C26   C     C_R   0.000000 0.500000 0.784858 0.398978
C27   C     C_R   0.000000 0.500000 0.715142 0.398978
C28   C     C_R   0.500000 1.000000 0.715142 0.398978
C29   C     C_R   1.000000 0.500000 0.284858 0.398978
C30   C     C_R   0.500000 0.000000 0.284858 0.398978
C31   C     C_R   0.393082 0.500000 0.500000 0.536288
C32   C     C_R   0.500000 0.393083 0.500000 0.536288
C33   C     C_R   0.606917 0.500000 0.500000 0.536288
C34   C     C_R   0.500000 0.606917 0.500000 0.536288
C35   C     C_R   0.893082 0.000000 0.000000 0.536288
C36   C     C_R   0.500000 0.891780 0.500000 0.574451
C37   C     C_R   1.000000 0.893082 1.000000 0.536288
C38   C     C_R   0.106917 0.000000 1.000000 0.536288
C39   C     C_R   1.000000 0.106917 0.000000 0.536288
C40   C     C_R   0.500000 0.000000 0.433443 0.599535
C41   C     C_R   0.000000 0.500000 0.433443 0.599535
C42   C     C_R   0.500000 0.000000 0.566557 0.599535
C43   C     C_R   0.000000 0.500000 0.566557 0.599535
C44   C     C_R   0.000000 0.500000 0.933443 0.599535
C45   C     C_R   0.500000 0.000000 0.933443 0.599535
C46   C     C_R   1.000000 0.500000 0.066557 0.599536
C47   C     C_R   0.108220 0.500000 0.500000 0.574450
C48   C     C_R   0.500000 1.000000 0.066557 0.599535
C49   C     C_1   0.500000 0.169346 0.500000 0.063297
C50   C     C_1   0.830654 0.500000 0.500000 0.063296
C51   C     C_1   0.500000 0.830654 0.500000 0.063297
C52   C     C_1   0.169346 0.500000 0.500000 0.063296
C53   C     C_1   1.000000 0.669346 1.000000 0.063297
C54   C     C_1   0.330654 0.000000 1.000000 0.063296
C55   C     C_1   1.000000 0.330654 0.000000 0.063297
C56   C     C_1   0.669345 0.000000 0.000000 0.063296
C57   C     C_1   0.500000 0.220570 0.500000 0.022284
C58   C     C_R   1.000000 0.608220 1.000000 0.574451
C59   C     C_1   0.779430 0.500000 0.500000 0.022284
C60   C     C_1   0.500000 0.779430 0.500000 0.022284
C61   C     C_1   0.220570 0.500000 0.500000 0.022284
C62   C     C_1   1.000000 0.720570 1.000000 0.022284
C63   C     C_1   0.279430 0.000000 1.000000 0.022284
C64   C     C_1   1.000000 0.279430 0.000000 0.022284
C65   C     C_1   0.720570 0.000000 0.000000 0.022284
C66   C     C_1   0.500000 0.280710 0.500000 0.009054
C67   C     C_1   0.719290 0.500000 0.500000 0.009054
C68   C     C_1   0.500000 0.719290 0.500000 0.009054
C69   C     C_R   0.391780 0.000000 1.000000 0.574451
C70   C     C_1   0.280710 0.500000 0.500000 0.009054
C71   C     C_1   1.000000 0.780710 1.000000 0.009054
C72   C     C_1   0.219290 0.000000 1.000000 0.009054
C73   C     C_1   0.000000 0.219290 0.000000 0.009054
C74   C     C_1   0.780710 0.000000 0.000000 0.009054
C75   C     C_1   0.500000 0.331940 0.500000 0.018530
C76   C     C_1   0.668060 0.500000 0.500000 0.018530
C77   C     C_1   0.500000 0.668060 0.500000 0.018530
C78   C     C_1   0.331940 0.500000 0.500000 0.018530
C79   C     C_1   1.000000 0.831940 1.000000 0.018530
C80   C     C_R   0.000000 0.391780 1.000000 0.574451
C81   C     C_1   0.168060 0.000000 1.000000 0.018530
C82   C     C_1   0.000000 0.168060 0.000000 0.018530
C83   C     C_1   0.831940 0.000000 0.000000 0.018530
C84   C     C_R   0.453598 0.022731 0.376827 0.203255
C85   C     C_R   0.977269 0.453598 0.376827 0.203255
C86   C     C_R   0.546402 0.977269 0.376827 0.203255
C87   C     C_R   0.022731 0.546402 0.376827 0.203255
C88   C     C_R   0.453598 0.977268 0.623173 0.203256
C89   C     C_R   0.977269 0.546402 0.623173 0.203255
C90   C     C_R   0.546402 0.022731 0.623173 0.203255
C91   C     C_R   0.608220 0.000000 1.000000 0.574450
C92   C     C_R   0.022731 0.453598 0.623173 0.203255
C93   C     C_R   0.953598 0.522731 0.876827 0.203255
C94   C     C_R   0.477269 0.953597 0.876827 0.203256
C95   C     C_R   0.046402 0.477269 0.876827 0.203255
C96   C     C_R   0.522731 0.046402 0.876827 0.203254
C97   C     C_R   0.953598 0.477268 0.123173 0.203256
C98   C     C_R   0.477269 0.046402 0.123173 0.203255
C99   C     C_R   0.046402 0.522731 0.123173 0.203256
C100  C     C_R   0.522731 0.953598 0.123173 0.203255
C101  C     C_R   0.449744 0.011860 0.341353 0.205905
C102  C     C_R   0.500000 0.000000 0.395348 -0.089638
C103  C     C_R   0.988140 0.449744 0.341353 0.205906
C104  C     C_R   0.550256 0.988140 0.341353 0.205905
C105  C     C_R   0.011859 0.550256 0.341353 0.205906
C106  C     C_R   0.449744 0.988140 0.658647 0.205905
C107  C     C_R   0.988140 0.550256 0.658647 0.205906
C108  C     C_R   0.550256 0.011860 0.658647 0.205905
C109  C     C_R   0.011860 0.449744 0.658647 0.205905
C110  C     C_R   0.949744 0.511860 0.841353 0.205905
C111  C     C_R   0.488140 0.949744 0.841353 0.205905
C112  C     C_R   0.050256 0.488140 0.841353 0.205906
Cu1   Cu    Cu3+1 0.555710 0.000000 0.500000 1.218153
Cu2   Cu    Cu3+1 0.500000 0.500000 0.534110 1.064653
Cu3   Cu    Cu3+1 0.000000 0.000000 0.965890 1.064654
Cu4   Cu    Cu3+1 1.000000 0.000000 0.034110 1.064653
Cu5   Cu    Cu3+1 1.000000 0.555710 0.500000 1.218153
Cu6   Cu    Cu3+1 0.444290 0.000000 0.500000 1.218153
Cu7   Cu    Cu3+1 1.000000 0.444290 0.500000 1.218154
Cu8   Cu    Cu3+1 0.055710 0.500000 0.000000 1.218153
Cu9   Cu    Cu3+1 0.500000 0.055710 0.000000 1.218153
Cu10  Cu    Cu3+1 0.944290 0.500000 0.000000 1.218154
Cu11  Cu    Cu3+1 0.500000 0.944290 0.000000 1.218154
Cu12  Cu    Cu3+1 0.500000 0.500000 0.465890 1.064654
H1    H     H_    0.348012 0.136397 0.379392 0.380779
H2    H     H_    0.363604 0.848010 0.879392 0.380779
H3    H     H_    0.151989 0.363603 0.879392 0.380779
H4    H     H_    0.636395 0.151990 0.879391 0.380780
H5    H     H_    0.848013 0.363602 0.120608 0.380778
H6    H     H_    0.363602 0.151988 0.120608 0.380779
H7    H     H_    0.151987 0.636398 0.120608 0.380779
H8    H     H_    0.636398 0.848012 0.120608 0.380779
H9    H     H_    0.296459 0.988949 0.338776 0.384837
H10   H     H_    0.011050 0.296459 0.338776 0.384837
H11   H     H_    0.703541 0.011049 0.338776 0.384837
H12   H     H_    0.863604 0.348011 0.379392 0.380779
H13   H     H_    0.988949 0.703541 0.338776 0.384837
H14   H     H_    0.296458 0.011049 0.661224 0.384837
H15   H     H_    0.011050 0.703541 0.661224 0.384837
H16   H     H_    0.703541 0.988949 0.661224 0.384837
H17   H     H_    0.988949 0.296459 0.661224 0.384837
H18   H     H_    0.796459 0.488950 0.838776 0.384837
H19   H     H_    0.511051 0.796459 0.838776 0.384837
H20   H     H_    0.203541 0.511051 0.838776 0.384837
H21   H     H_    0.488942 0.203541 0.838776 0.384836
H22   H     H_    0.796458 0.511044 0.161223 0.384837
H23   H     H_    0.651988 0.863603 0.379392 0.380779
H24   H     H_    0.511050 0.203541 0.161223 0.384837
H25   H     H_    0.203541 0.488951 0.161223 0.384837
H26   H     H_    0.488950 0.796459 0.161223 0.384837
H27   H     H_    0.136396 0.651989 0.379392 0.380779
H28   H     H_    0.348012 0.863603 0.620608 0.380779
H29   H     H_    0.863604 0.651989 0.620608 0.380779
H30   H     H_    0.651988 0.136397 0.620608 0.380779
H31   H     H_    0.136396 0.348011 0.620608 0.380779
H32   H     H_    0.848011 0.636397 0.879392 0.380779
N1    N     N_R   0.534398 0.964846 0.267066 -0.100259
N2    N     N_R   0.535154 0.034398 0.767066 -0.100259
N3    N     N_R   0.965602 0.535155 0.767066 -0.100259
N4    N     N_R   0.464845 0.965601 0.767066 -0.100259
N5    N     N_R   0.034398 0.535155 0.232934 -0.100259
N6    N     N_R   0.535155 0.965602 0.232934 -0.100259
N7    N     N_R   0.965602 0.464845 0.232934 -0.100259
N8    N     N_R   0.464846 0.034398 0.232934 -0.100259
N9    N     N_R   0.035154 0.534398 0.267066 -0.100259
N10   N     N_R   0.465602 0.035154 0.267066 -0.100259
N11   N     N_R   0.964846 0.465602 0.267066 -0.100259
N12   N     N_R   0.534398 0.035155 0.732934 -0.100259
N13   N     N_R   0.035155 0.465602 0.732934 -0.100259
N14   N     N_R   0.465602 0.964845 0.732934 -0.100259
N15   N     N_R   0.964846 0.534398 0.732934 -0.100259
N16   N     N_R   0.034398 0.464846 0.767066 -0.100259
O1    O     O_R   0.547030 0.081100 0.499900 -0.486974
O2    O     O_R   0.418900 0.047030 0.999900 -0.486974
O3    O     O_2   0.941027 0.365853 0.304251 -0.170725
O4    O     O_2   0.042015 0.383242 0.295676 -0.232007
O5    O     O_3   0.011205 0.332751 0.351426 -0.437005
O6    O     O_2   0.634147 0.941027 0.304251 -0.170725
O7    O     O_2   0.616759 0.042015 0.295676 -0.232007
O8    O     O_3   0.667250 0.011204 0.351426 -0.437005
O9    O     O_2   0.058972 0.634147 0.304251 -0.170724
O10   O     O_2   0.957984 0.616758 0.295676 -0.232008
O11   O     O_3   0.988795 0.667249 0.351426 -0.437005
O12   O     O_2   0.365853 0.941026 0.695749 -0.170724
O13   O     O_R   0.952970 0.418900 0.999900 -0.486973
O14   O     O_2   0.383241 0.042014 0.704324 -0.232008
O15   O     O_3   0.332750 0.011203 0.648574 -0.437005
O16   O     O_2   0.941027 0.634147 0.695749 -0.170724
O17   O     O_2   0.042015 0.616758 0.704324 -0.232008
O18   O     O_3   0.011204 0.667250 0.648574 -0.437005
O19   O     O_2   0.634147 0.058974 0.695749 -0.170723
O20   O     O_2   0.616758 0.957986 0.704324 -0.232009
O21   O     O_3   0.667249 0.988796 0.648574 -0.437005
O22   O     O_2   0.058973 0.365853 0.695749 -0.170724
O23   O     O_2   0.957985 0.383242 0.704324 -0.232008
O24   O     O_R   0.581100 0.952970 0.999900 -0.486973
O25   O     O_3   0.988796 0.332751 0.648574 -0.437005
O26   O     O_2   0.865853 0.558973 0.804251 -0.170724
O27   O     O_2   0.883242 0.457985 0.795676 -0.232008
O28   O     O_3   0.832750 0.488796 0.851426 -0.437006
O29   O     O_2   0.441027 0.865852 0.804251 -0.170724
O30   O     O_2   0.542015 0.883242 0.795676 -0.232008
O31   O     O_3   0.511205 0.832750 0.851426 -0.437005
O32   O     O_2   0.134147 0.441027 0.804251 -0.170723
O33   O     O_2   0.116759 0.542015 0.795676 -0.232009
O34   O     O_3   0.167249 0.511204 0.851426 -0.437006
O35   O     O_R   0.047030 0.418900 0.000100 -0.486974
O36   O     O_2   0.558972 0.134148 0.804251 -0.170719
O37   O     O_2   0.457984 0.116758 0.795676 -0.232014
O38   O     O_3   0.488794 0.167249 0.851426 -0.437004
O39   O     O_2   0.865853 0.441025 0.195749 -0.170728
O40   O     O_2   0.883241 0.542014 0.204324 -0.232004
O41   O     O_3   0.832750 0.511203 0.148574 -0.437003
O42   O     O_2   0.441027 0.134147 0.195749 -0.170724
O43   O     O_2   0.542015 0.116759 0.204324 -0.232008
O44   O     O_3   0.511204 0.167249 0.148574 -0.437005
O45   O     O_2   0.134147 0.558974 0.195749 -0.170724
O46   O     O_R   0.418900 0.952970 0.000100 -0.486973
O47   O     O_2   0.116758 0.457986 0.204324 -0.232007
O48   O     O_3   0.167249 0.488797 0.148574 -0.437005
O49   O     O_2   0.558974 0.865853 0.195749 -0.170724
O50   O     O_2   0.457985 0.883242 0.204324 -0.232008
O51   O     O_3   0.488796 0.832750 0.148574 -0.437005
O52   O     O_R   0.952970 0.581100 0.000100 -0.486974
O53   O     O_R   0.581100 0.047030 0.000100 -0.486974
O54   O     O_R   0.547030 0.999700 0.449980 -0.456462
O55   O     O_R   0.000300 0.547030 0.449980 -0.456462
O56   O     O_R   0.452970 0.000300 0.449980 -0.456462
O57   O     O_R   0.918900 0.547030 0.499900 -0.486974
O58   O     O_R   0.999700 0.452970 0.449980 -0.456462
O59   O     O_R   0.547030 0.000300 0.550020 -0.456462
O60   O     O_R   0.000300 0.452970 0.550020 -0.456462
O61   O     O_R   0.452970 0.999700 0.550020 -0.456462
O62   O     O_R   0.999700 0.547030 0.550020 -0.456462
O63   O     O_R   0.047030 0.499700 0.949980 -0.456462
O64   O     O_R   0.500300 0.047030 0.949980 -0.456462
O65   O     O_R   0.952970 0.500300 0.949980 -0.456462
O66   O     O_R   0.499700 0.952970 0.949980 -0.456462
O67   O     O_R   0.047030 0.500300 0.050020 -0.456463
O68   O     O_R   0.452970 0.918900 0.499900 -0.486973
O69   O     O_R   0.500300 0.952970 0.050020 -0.456462
O70   O     O_R   0.952970 0.499700 0.050020 -0.456463
O71   O     O_R   0.499700 0.047030 0.050020 -0.456462
O72   O     O_R   0.419660 0.499650 0.470270 -0.491158
O73   O     O_R   0.500350 0.419660 0.470270 -0.491158
O74   O     O_R   0.580340 0.500350 0.470270 -0.491158
O75   O     O_R   0.499650 0.580340 0.470270 -0.491158
O76   O     O_R   0.419660 0.500350 0.529730 -0.491159
O77   O     O_R   0.500350 0.580340 0.529730 -0.491159
O78   O     O_R   0.580340 0.499650 0.529730 -0.491159
O79   O     O_R   0.081100 0.452970 0.499900 -0.486973
O80   O     O_R   0.499650 0.419660 0.529730 -0.491159
O81   O     O_R   0.919660 0.999650 0.970270 -0.491158
O82   O     O_R   0.000350 0.919660 0.970270 -0.491158
O83   O     O_R   0.080340 0.000350 0.970270 -0.491158
O84   O     O_R   0.999650 0.080340 0.970270 -0.491158
O85   O     O_R   0.919660 0.000350 0.029730 -0.491159
O86   O     O_R   0.000350 0.080340 0.029730 -0.491159
O87   O     O_R   0.080340 0.999650 0.029730 -0.491159
O88   O     O_R   0.999650 0.919660 0.029730 -0.491159
O89   O     O_2   0.359406 0.038915 0.414460 -0.205722
O90   O     O_R   0.547030 0.918900 0.500100 -0.486974
O91   O     O_2   0.436044 0.107393 0.421829 -0.294648
O92   O     O_3   0.376077 0.113560 0.366626 -0.427227
O93   O     O_2   0.961085 0.359406 0.414460 -0.205723
O94   O     O_2   0.892607 0.436043 0.421829 -0.294647
O95   O     O_3   0.886440 0.376076 0.366626 -0.427229
O96   O     O_2   0.640594 0.961084 0.414460 -0.205723
O97   O     O_2   0.563956 0.892607 0.421829 -0.294648
O98   O     O_3   0.623923 0.886440 0.366626 -0.427227
O99   O     O_2   0.038915 0.640594 0.414460 -0.205723
O100  O     O_2   0.107393 0.563957 0.421828 -0.294647
O101  O     O_R   0.918900 0.452970 0.500100 -0.486973
O102  O     O_3   0.113559 0.623924 0.366626 -0.427227
O103  O     O_2   0.359406 0.961084 0.585540 -0.205723
O104  O     O_2   0.436044 0.892606 0.578171 -0.294648
O105  O     O_3   0.376077 0.886439 0.633374 -0.427227
O106  O     O_2   0.961085 0.640594 0.585540 -0.205723
O107  O     O_2   0.892607 0.563956 0.578171 -0.294647
O108  O     O_3   0.886440 0.623923 0.633374 -0.427227
O109  O     O_2   0.640594 0.038916 0.585540 -0.205723
O110  O     O_2   0.563956 0.107393 0.578171 -0.294648
O111  O     O_3   0.623923 0.113560 0.633374 -0.427227
O112  O     O_R   0.452970 0.081100 0.500100 -0.486974
O113  O     O_2   0.038915 0.359406 0.585540 -0.205723
O114  O     O_2   0.107393 0.436043 0.578171 -0.294647
O115  O     O_3   0.113560 0.376077 0.633374 -0.427228
O116  O     O_2   0.859406 0.538915 0.914460 -0.205723
O117  O     O_2   0.936043 0.607393 0.921829 -0.294647
O118  O     O_3   0.876077 0.613560 0.866626 -0.427228
O119  O     O_2   0.461085 0.859406 0.914460 -0.205723
O120  O     O_2   0.392607 0.936043 0.921829 -0.294647
O121  O     O_3   0.386441 0.876076 0.866626 -0.427228
O122  O     O_2   0.140594 0.461085 0.914460 -0.205723
O123  O     O_R   0.081100 0.547030 0.500100 -0.486974
O124  O     O_2   0.063956 0.392607 0.921829 -0.294647
O125  O     O_3   0.123923 0.386440 0.866626 -0.427227
O126  O     O_2   0.538914 0.140594 0.914460 -0.205722
O127  O     O_2   0.607393 0.063957 0.921828 -0.294647
O128  O     O_3   0.613559 0.123924 0.866626 -0.427226
O129  O     O_2   0.859406 0.461084 0.085540 -0.205724
O130  O     O_2   0.936044 0.392606 0.078171 -0.294649
O131  O     O_3   0.876077 0.386439 0.133374 -0.427229
O132  O     O_2   0.461084 0.140594 0.085540 -0.205722
O133  O     O_2   0.392607 0.063956 0.078171 -0.294648
O134  O     O_R   0.047030 0.581100 0.999900 -0.486974
O135  O     O_3   0.386440 0.123923 0.133374 -0.427227
O136  O     O_2   0.140594 0.538916 0.085540 -0.205723
O137  O     O_2   0.063956 0.607394 0.078171 -0.294649
O138  O     O_3   0.123923 0.613561 0.133374 -0.427227
O139  O     O_2   0.538916 0.859406 0.085540 -0.205722
O140  O     O_2   0.607393 0.936044 0.078171 -0.294649
O141  O     O_3   0.613560 0.876077 0.133374 -0.427227
O142  O     O_2   0.365853 0.058973 0.304251 -0.170723
O143  O     O_2   0.383242 0.957985 0.295676 -0.232009
O144  O     O_3   0.332750 0.988796 0.351426 -0.437006
S1    S     S_3+6 0.405293 0.071032 0.396282 0.101725
S2    S     S_3+6 0.428969 0.905292 0.896282 0.101725
S3    S     S_3+6 0.094707 0.428968 0.896282 0.101725
S4    S     S_3+6 0.571031 0.094708 0.896282 0.101727
S5    S     S_3+6 0.905293 0.428967 0.103717 0.101723
S6    S     S_3+6 0.428968 0.094707 0.103718 0.101725
S7    S     S_3+6 0.094707 0.571032 0.103718 0.101724
S8    S     S_3+6 0.571032 0.905293 0.103718 0.101725
S9    S     S_3+6 0.381886 0.004749 0.321801 0.122284
S10   S     S_3+6 0.995252 0.381886 0.321801 0.122284
S11   S     S_3+6 0.618114 0.995251 0.321801 0.122284
S12   S     S_3+6 0.928968 0.405292 0.396282 0.101724
S13   S     S_3+6 0.004748 0.618114 0.321801 0.122283
S14   S     S_3+6 0.381886 0.995250 0.678199 0.122283
S15   S     S_3+6 0.995251 0.618114 0.678199 0.122283
S16   S     S_3+6 0.618113 0.004749 0.678199 0.122283
S17   S     S_3+6 0.004749 0.381886 0.678199 0.122283
S18   S     S_3+6 0.881886 0.504749 0.821801 0.122284
S19   S     S_3+6 0.495252 0.881886 0.821801 0.122283
S20   S     S_3+6 0.118114 0.495251 0.821801 0.122284
S21   S     S_3+6 0.504748 0.118113 0.821801 0.122283
S22   S     S_3+6 0.881886 0.495250 0.178199 0.122284
S23   S     S_3+6 0.594707 0.928968 0.396282 0.101724
S24   S     S_3+6 0.495251 0.118114 0.178199 0.122284
S25   S     S_3+6 0.118113 0.504750 0.178199 0.122284
S26   S     S_3+6 0.504749 0.881886 0.178199 0.122284
S27   S     S_3+6 0.071032 0.594707 0.396282 0.101725
S28   S     S_3+6 0.405293 0.928968 0.603717 0.101724
S29   S     S_3+6 0.928968 0.594707 0.603718 0.101725
S30   S     S_3+6 0.594707 0.071032 0.603717 0.101725
S31   S     S_3+6 0.071032 0.405293 0.603717 0.101725
S32   S     S_3+6 0.905293 0.571032 0.896282 0.101725

loop_
_geom_bond_atom_site_label_1
_geom_bond_atom_site_label_2
_ccdc_geom_bond_type
O37   S21   D    
H26   O51   S    
C35   O85   A    
C95   S3    S    
C74   C83   T    
C32   C75   S    
H12   O95   S    
C50   C59   T    
C52   C61   T    
Cu5   Cu7   S    
C92   C109  A    
Cu10  O65   S    
C54   C63   T    
C2    C41   S    
C94   C111  A    
Cu9   O53   S    
O43   S24   D    
C20   C97   A    
Cu12  O72   S    
C27   N13   A    
O25   S17   S    
C85   C103  A    
C93   C110  A    
C21   C48   S    
C42   O59   A    
C26   N16   A    
O47   S25   D    
Cu10  O52   S    
H17   O25   S    
C48   O71   A    
C13   C42   S    
O127  S4    D    
H4    O128  S    
O34   S20   S    
C69   O46   A    
C31   O72   A    
C17   C89   A    
O103  S28   D    
O51   S26   S    
C43   O60   A    
O28   S18   S    
O138  S7    S    
Cu6   O56   S    
C17   C43   S    
C18   C44   S    
Cu3   O81   S    
C11   C27   S    
C9    C103  A    
C33   O74   A    
C8    C104  A    
C19   C94   A    
O7    S11   D    
C28   N14   A    
Cu11  O46   S    
O42   S24   D    
C38   C81   S    
Cu11  O24   S    
C106  S14   S    
O99   S27   D    
C68   C77   T    
O114  S31   D    
C43   O62   A    
C53   C58   S    
O142  S9    D    
C47   C52   S    
C105  S13   S    
Cu8   O63   S    
C55   C80   S    
C20   C99   A    
H1    O92   S    
O30   S19   D    
H10   O5    S    
Cu12  O74   S    
C33   O78   A    
H27   O102  S    
O118  S32   S    
Cu9   Cu11  S    
H28   O105  S    
C28   N12   A    
Cu8   O67   S    
C37   O82   A    
O44   S24   S    
O22   S17   D    
H9    O144  S    
N1    N6    A    
O131  S5    S    
N5    N9    A    
Cu4   O85   S    
O4    S10   D    
H19   O31   S    
C21   C98   A    
C84   C102  A    
C10   C108  A    
C45   O64   A    
C57   C66   S    
H15   O18   S    
C86   C104  A    
O108  S29   S    
C96   S4    S    
C71   C79   T    
C54   C69   S    
C1    O1    A    
Cu5   O123  S    
H29   O108  S    
H23   O98   S    
C9    C105  A    
Cu3   Cu4   S    
O11   S13   S    
C49   C57   T    
C86   S23   S    
C14   C24   S    
C25   C50   S    
C59   C67   S    
O31   S19   S    
C64   C73   S    
C94   S2    S    
C47   O123  A    
H16   O21   S    
C47   O79   A    
O23   S17   D    
O92   S1    S    
C4    C97   A    
C40   O54   A    
C18   C95   A    
O98   S23   S    
H24   O44   S    
C2    C87   A    
O130  S5    D    
Cu2   O77   S    
C65   C74   S    
C12   C26   S    
C40   O56   A    
C39   O86   A    
Cu7   O79   S    
C22   N8    A    
C87   C105  A    
Cu9   O64   S    
O41   S22   S    
H32   O118  S    
O48   S25   S    
C108  S16   S    
C46   O67   A    
O136  S7    D    
Cu4   O87   S    
C31   O76   A    
C10   C106  A    
O125  S3    S    
C86   C102  A    
Cu11  O69   S    
Cu6   O68   S    
Cu9   O71   S    
O111  S30   S    
O49   S26   D    
C39   C82   S    
C19   C45   S    
H13   O11   S    
O10   S13   D    
O102  S27   S    
C32   O73   A    
Cu11  O66   S    
O29   S19   D    
C90   C108  A    
C110  S18   S    
O129  S5    D    
Cu6   O61   S    
O116  S32   D    
Cu5   O57   S    
O106  S29   D    
C62   C71   S    
O119  S2    D    
Cu1   O90   S    
C99   S7    S    
C41   O58   A    
O14   S14   D    
O33   S20   D    
C34   O75   A    
C35   O81   A    
C18   C93   A    
C51   C60   T    
C20   C46   S    
O32   S20   D    
C61   C70   S    
C30   N1    A    
C13   C90   A    
O16   S15   D    
C12   C112  A    
N2    N12   A    
O8    S11   S    
O128  S4    S    
C25   O57   A    
N3    N15   A    
C1    O112  A    
H11   O8    S    
H21   O38   S    
C95   C112  A    
C34   C77   S    
C22   N6    A    
C42   O61   A    
C70   C78   T    
H6    O135  S    
C2    C85   A    
C29   N9    A    
C87   S27   S    
C25   O101  A    
C56   C91   S    
Cu2   O76   S    
Cu3   O84   S    
C37   O88   A    
Cu1   O59   S    
O26   S18   D    
C8    C101  A    
C85   S12   S    
C72   C81   T    
C38   O83   A    
O105  S28   S    
C44   O65   A    
H30   O111  S    
O21   S16   S    
C93   S32   S    
O120  S2    D    
C12   C110  A    
O139  S8    D    
H20   O34   S    
O39   S22   D    
O133  S6    D    
C111  S19   S    
C4    S22   S    
C7    C100  A    
C44   O63   A    
C35   C83   S    
O95   S12   S    
C39   O84   A    
O140  S8    D    
O135  S6    S    
C36   O90   A    
H8    O141  S    
H3    O125  S    
Cu9   O2    S    
Cu2   O80   S    
C89   C107  A    
O89   S1    D    
C26   N3    A    
C6    S25   S    
Cu7   O60   S    
O143  S9    D    
C7    C16   A    
O115  S31   S    
C100  S8    S    
O117  S32   D    
O12   S14   D    
C69   O2    A    
C46   O70   A    
O141  S8    S    
O126  S4    D    
C73   C82   T    
Cu4   O86   S    
C112  S20   S    
C31   C78   S    
O45   S25   D    
C10   C28   S    
O97   S23   D    
H5    O131  S    
C16   C22   S    
Cu8   O35   S    
H18   O28   S    
C3    S21   S    
O6    S11   D    
O110  S30   D    
C8    C30   S    
C29   N11   A    
C91   O24   A    
O15   S14   S    
Cu1   O54   S    
Cu3   O82   S    
C4    C15   A    
C66   C75   T    
C34   O77   A    
O40   S22   D    
O5    S10   S    
C104  S11   S    
O50   S26   D    
H22   O41   S    
C40   C102  S    
C63   C72   S    
C60   C68   S    
Cu8   O134  S    
C88   S28   S    
O132  S6    D    
O9    S13   D    
O36   S21   D    
C36   O68   A    
C41   O55   A    
C11   C109  A    
O93   S12   D    
C38   O87   A    
O121  S2    S    
Cu10  O70   S    
C37   C79   S    
O109  S30   D    
O124  S3    D    
Cu5   O62   S    
C24   N2    A    
C89   S29   S    
C56   C65   T    
Cu2   O78   S    
Cu12  O73   S    
C45   O66   A    
O91   S1    D    
C5    C16   A    
Cu7   O58   S    
C6    C15   A    
O27   S18   D    
C103  S10   S    
O100  S27   D    
C80   O13   A    
C107  S15   S    
C3    C96   A    
Cu4   O88   S    
C9    C29   S    
H2    O121  S    
Cu2   Cu12  S    
C15   C23   S    
C91   O53   A    
C84   C101  A    
C17   C92   A    
Cu8   Cu10  S    
C23   N7    A    
C14   C111  A    
H7    O138  S    
C101  S9    S    
O19   S16   D    
C30   N10   A    
C97   S5    S    
C21   C100  A    
Cu10  O13   S    
O17   S15   D    
O96   S23   D    
H25   O48   S    
N7    N11   A    
Cu6   O112  S    
Cu7   O101  S    
C88   C106  A    
C53   C62   T    
C33   C76   S    
C55   C64   T    
O107  S29   D    
C3    C14   A    
C36   C51   S    
C11   C107  A    
N13   N16   A    
C90   S30   S    
C7    S26   S    
H31   O115  S    
C27   N15   A    
Cu1   O1    S    
O122  S3    D    
Cu5   O55   S    
C48   O69   A    
C92   S31   S    
C24   N4    A    
O3    S10   D    
C32   O80   A    
O38   S21   S    
C6    C99   A    
Cu12  O75   S    
N8    N10   A    
H14   O15   S    
O20   S16   D    
C84   S1    S    
C58   O134  A    
C109  S17   S    
O144  S9    S    
O104  S28   D    
C13   C88   A    
C58   O52   A    
O137  S7    D    
O18   S15   S    
O113  S31   D    
Cu1   Cu6   S    
C80   O35   A    
Cu3   O83   S    
C5    C98   A    
C98   S6    S    
C5    S24   S    
N4    N14   A    
C67   C76   T    
C1    C49   S    
C19   C96   A    
C23   N5    A    
O94   S12   D    
