data_mof_unit_58289.cif
_audit_creation_date              2013-03-05T15:43:46-0500
_audit_creation_method            fapswitch 2.2
_symmetry_space_group_name_H-M    P1
_symmetry_Int_Tables_number       1
_space_group_crystal_system       triclinic
_cell_length_a                    18.560907
_cell_length_b                    18.750437
_cell_length_c                    18.555927
_cell_angle_alpha                 109.048868
_cell_angle_beta                  108.907298
_cell_angle_gamma                 109.190458
_cell_volume                      5047.53200957

loop_
_atom_site_label
_atom_site_type_symbol
_atom_site_description
_atom_site_fract_x
_atom_site_fract_y
_atom_site_fract_z
_atom_type_partial_charge
O1    O     O_R   0.591640 0.539900 0.448300 -0.637392
O2    O     O_R   0.408360 0.460100 0.551700 -0.639550
O3    O     O_R   0.591610 0.643330 0.551720 -0.608865
O4    O     O_R   0.408390 0.356670 0.448280 -0.601957
C1    C     C_R   0.622220 0.619219 0.501432 0.858398
C2    C     C_R   0.377924 0.380767 0.498702 0.859028
O5    O     O_R   0.408410 0.448290 0.356670 -0.616652
O6    O     O_R   0.591590 0.551710 0.643330 -0.622968
O7    O     O_R   0.408380 0.551730 0.460100 -0.627706
O8    O     O_R   0.591620 0.448270 0.539900 -0.626129
C3    C     C_R   0.382631 0.502857 0.380026 0.860404
C4    C     C_R   0.617350 0.497128 0.619986 0.858821
Zn1   Zn    Zn3+2 0.500020 0.430940 0.430940 0.961555
Zn2   Zn    Zn3+2 0.499980 0.569060 0.569060 0.945871
H1    H     H_    0.242207 0.508680 0.378356 0.149592
H2    H     H_    0.757533 0.490846 0.621410 0.150196
C5    C     C_R   0.404231 0.510930 0.233118 -0.171691
C6    C     C_R   0.596245 0.489951 0.767436 -0.175049
H3    H     H_    0.462108 0.525175 0.287124 0.151918
H4    H     H_    0.538278 0.475624 0.713479 0.152762
C7    C     C_R   0.407577 0.502039 0.156867 -0.138999
C8    C     C_R   0.593226 0.499377 0.843933 -0.144109
H5    H     H_    0.465819 0.507374 0.152750 0.134414
H6    H     H_    0.535152 0.494380 0.848268 0.134363
C9    C     C_R   0.335921 0.485733 0.085844 -0.129265
C10   C     C_R   0.664991 0.515776 0.914915 -0.136418
H7    H     H_    0.338055 0.477349 0.026156 0.132125
H8    H     H_    0.663114 0.524576 0.974786 0.131563
C11   C     C_R   0.261824 0.481347 0.091879 -0.176771
C12   C     C_R   0.738850 0.519692 0.908594 -0.180214
H9    H     H_    0.207560 0.468013 0.034823 0.138694
H10   H     H_    0.793221 0.533089 0.965603 0.138276
C13   C     C_R   0.258220 0.492925 0.169726 0.092478
C14   C     C_R   0.742112 0.507590 0.830516 0.092408
C15   C     C_R   0.328193 0.503132 0.239273 0.103014
C16   C     C_R   0.672077 0.497340 0.761000 0.101879
C17   C     C_R   0.320227 0.506450 0.313441 -0.102588
C18   C     C_R   0.679795 0.493593 0.686608 -0.103716
C19   C     C_R   0.247856 0.505880 0.321282 -0.212936
C20   C     C_R   0.752015 0.493863 0.678597 -0.215484
H11   H     H_    0.126441 0.501749 0.262777 0.175676
H12   H     H_    0.873334 0.497746 0.736964 0.176632
C21   C     C_R   0.181353 0.500039 0.255013 -0.189768
C22   C     C_R   0.818538 0.499690 0.744839 -0.190929
C23   C     C_R   0.186378 0.494022 0.180137 -0.111255
C24   C     C_R   0.813695 0.506024 0.819860 -0.110807
H13   H     H_    0.620882 0.753635 0.487993 0.155782
H14   H     H_    0.379831 0.247065 0.513516 0.155575
C25   C     C_R   0.781692 0.611881 0.521612 -0.231491
C26   C     C_R   0.217719 0.386942 0.476362 -0.222861
H15   H     H_    0.738230 0.566688 0.532110 0.168629
H16   H     H_    0.261182 0.431754 0.465520 0.167231
C27   C     C_R   0.853985 0.604166 0.522470 -0.297042
C28   C     C_R   0.145031 0.394352 0.474450 -0.301973
H17   H     H_    0.861141 0.551848 0.530404 0.131273
H18   H     H_    0.137964 0.445954 0.464710 0.123774
C29   C     C_R   0.914390 0.661876 0.511031 0.547453
C30   C     C_R   0.084571 0.337233 0.486698 0.549286
C31   C     C_R   0.899728 0.726286 0.497797 -0.233316
C32   C     C_R   0.099610 0.273149 0.500512 -0.229379
H19   H     H_    0.944821 0.767175 0.485109 0.191279
H20   H     H_    0.054497 0.232354 0.513255 0.192030
C33   C     C_R   0.828220 0.736930 0.499981 0.004529
C34   C     C_R   0.171477 0.262739 0.499176 0.005694
C35   C     C_R   0.766508 0.676552 0.507882 0.113442
C36   C     C_R   0.233262 0.322965 0.491274 0.114658
C37   C     C_R   0.691418 0.683173 0.502393 -0.085365
C38   C     C_R   0.308732 0.316791 0.497702 -0.083200
C39   C     C_R   0.678979 0.749415 0.492725 -0.224200
C40   C     C_R   0.321459 0.250970 0.508143 -0.215460
H21   H     H_    0.730459 0.862198 0.482205 0.172228
H22   H     H_    0.270047 0.138432 0.519048 0.171878
C41   C     C_R   0.740471 0.810076 0.487943 -0.121322
C42   C     C_R   0.259839 0.190287 0.512783 -0.117746
C43   C     C_R   0.815249 0.805293 0.492937 -0.061321
C44   C     C_R   0.184727 0.194734 0.507024 -0.061568
O9    O     O_R   0.948260 0.539910 0.091610 -0.624506
O10   O     O_R   0.051740 0.460090 0.908390 -0.623271
O11   O     O_R   0.051720 0.643340 0.091610 -0.613474
O12   O     O_R   0.948280 0.356660 0.908390 -0.618659
C45   C     C_R   0.997236 0.619062 0.118049 0.961136
C46   C     C_R   0.002671 0.380942 0.881856 0.962307
O13   O     O_R   0.039880 0.448280 0.091630 -0.625355
O14   O     O_R   0.960120 0.551720 0.908370 -0.625209
O15   O     O_R   0.143330 0.551710 0.091620 -0.623730
O16   O     O_R   0.856670 0.448290 0.908380 -0.623723
C47   C     C_R   0.119914 0.497482 0.117731 0.871299
C48   C     C_R   0.880101 0.502489 0.882232 0.871718
Zn3   Zn    Zn3+2 0.930920 0.430950 0.000010 0.952045
Zn4   Zn    Zn3+2 0.069080 0.569050 0.999990 0.958637
O17   O     O_R   0.948270 0.091630 0.539910 -0.621695
O18   O     O_R   0.051730 0.908370 0.460090 -0.619144
O19   O     O_R   0.051700 0.091600 0.643340 -0.618239
O20   O     O_R   0.948300 0.908400 0.356660 -0.632400
C49   C     C_R   0.995492 0.116511 0.620077 0.980038
C50   C     C_R   0.004363 0.883335 0.379933 0.973772
O21   O     O_R   0.856660 0.908400 0.448280 -0.650278
O22   O     O_R   0.143340 0.091600 0.551720 -0.647965
O23   O     O_R   0.960090 0.908380 0.551710 -0.569944
O24   O     O_R   0.039910 0.091620 0.448290 -0.575013
C51   C     C_R   0.880441 0.875689 0.496025 0.932828
C52   C     C_R   0.119553 0.124326 0.503968 0.930650
Zn5   Zn    Zn3+2 0.930940 0.000030 0.430950 0.981174
Zn6   Zn    Zn3+2 0.069060 0.999970 0.569050 1.004677
C53   C     C_R   0.944711 0.735758 0.078701 -0.194587
C54   C     C_R   0.055838 0.264880 0.921459 -0.205416
H23   H     H_    0.926708 0.677320 0.023313 0.149125
H24   H     H_    0.075581 0.324172 0.976919 0.150146
C55   C     C_R   0.933525 0.799918 0.063216 -0.301599
C56   C     C_R   0.065486 0.200247 0.936996 -0.297621
H25   H     H_    0.908556 0.790345 0.997425 0.169673
H26   H     H_    0.092297 0.210740 0.003083 0.179041
C57   C     C_R   0.959627 0.878393 0.132508 0.436306
C58   C     C_R   0.035149 0.120179 0.867442 0.439910
C59   C     C_R   0.996334 0.891872 0.218563 0.272622
C60   C     C_R   0.002510 0.107751 0.781602 0.271807
C61   C     C_R   0.994655 0.821117 0.233049 -0.120209
C62   C     C_R   0.004858 0.178652 0.766971 -0.112234
C63   C     C_R   0.977011 0.746300 0.163697 -0.004935
C64   C     C_R   0.022815 0.253736 0.836268 -0.009160
C65   C     C_R   0.992140 0.683307 0.180694 -0.259446
C66   C     C_R   0.007750 0.316687 0.819203 -0.258093
C67   C     C_R   0.013186 0.686963 0.261546 0.352084
C68   C     C_R   0.986403 0.312810 0.738267 0.353857
C69   C     C_R   0.029280 0.759548 0.330296 0.356858
C70   C     C_R   0.970502 0.240265 0.669625 0.353000
C71   C     C_R   0.012527 0.822851 0.314507 -0.265136
C72   C     C_R   0.987283 0.176971 0.685512 -0.265462
O25   O     O_3   0.985078 0.654526 0.506191 -0.603021
C73   C     C_3   0.028069 0.636477 0.570524 0.101295
H27   H     H_    0.991683 0.567007 0.550419 0.137415
H28   H     H_    0.036313 0.676829 0.635079 0.145193
C74   C     C_3   0.118071 0.655912 0.580617 -0.831965
H29   H     H_    0.156504 0.724748 0.599637 0.262064
H30   H     H_    0.152740 0.642870 0.631749 0.203601
H31   H     H_    0.112189 0.614218 0.518296 0.239679
O26   O     O_3   0.012432 0.342627 0.490262 -0.603241
C75   C     C_3   0.981949 0.382561 0.444077 0.098360
H32   H     H_    0.975746 0.355530 0.377877 0.143350
H33   H     H_    0.026152 0.453478 0.481333 0.141096
C76   C     C_3   0.892428 0.366787 0.433303 -0.831854
H34   H     H_    0.896965 0.397150 0.498034 0.240921
H35   H     H_    0.866930 0.395761 0.394778 0.206683
H36   H     H_    0.846634 0.296379 0.398987 0.261506
O27   O     O_3   0.026461 0.622931 0.275312 -0.601186
C77   C     C_3   0.952993 0.568569 0.275723 0.180795
H37   H     H_    0.892689 0.538820 0.212922 0.120536
H38   H     H_    0.944062 0.604615 0.330063 0.198334
C78   C     C_3   0.965939 0.496528 0.288020 -0.838873
H39   H     H_    0.026449 0.524174 0.349552 0.247678
H40   H     H_    0.909762 0.454875 0.291106 0.202565
H41   H     H_    0.970804 0.456465 0.232508 0.253714
O28   O     O_3   0.972865 0.376726 0.724477 -0.601606
C79   C     C_3   0.046197 0.431285 0.724038 0.178252
H42   H     H_    0.052077 0.396235 0.666838 0.201463
H43   H     H_    0.107415 0.457681 0.784805 0.119561
C80   C     C_3   0.035891 0.506770 0.718334 -0.848212
H44   H     H_    0.034434 0.545868 0.776971 0.259900
H45   H     H_    0.091487 0.548342 0.714465 0.201905
H46   H     H_    0.974409 0.482723 0.659405 0.243805
O29   O     O_3   0.958945 0.945519 0.117074 -0.566477
C81   C     C_3   0.872880 0.932257 0.083946 0.119097
H47   H     H_    0.844438 0.920364 0.126136 0.134810
H48   H     H_    0.830797 0.876727 0.016592 0.119984
C82   C     C_3   0.873481 0.012627 0.081226 -0.781884
H49   H     H_    0.900137 0.025964 0.038703 0.239730
H50   H     H_    0.806039 0.002819 0.055018 0.191981
H51   H     H_    0.914307 0.069024 0.147860 0.277899
O30   O     O_3   0.037783 0.053691 0.883325 -0.570595
C83   C     C_3   0.968434 0.018443 0.899248 0.121573
H52   H     H_    0.904588 0.996647 0.843973 0.154609
H53   H     H_    0.977387 0.066491 0.960392 0.125464
C84   C     C_3   0.966318 0.940534 0.909295 -0.726985
H54   H     H_    0.028121 0.960452 0.965586 0.266845
H55   H     H_    0.911215 0.911479 0.920555 0.197137
H56   H     H_    0.957658 0.891327 0.849256 0.265313
N1    N     N_R   0.047562 0.978882 0.289486 0.222853
O31   O     O_R   0.025931 0.037520 0.286051 -0.348714
O32   O     O_R   0.124481 0.003032 0.349167 -0.445825
N2    N     N_R   0.953310 0.021050 0.710490 0.204228
O33   O     O_R   0.875902 0.995386 0.650611 -0.467226
O34   O     O_R   0.976919 0.963724 0.714503 -0.342584
O35   O     O_3   0.055503 0.764517 0.411553 -0.600785
C85   C     C_3   0.147540 0.814446 0.462366 0.200644
H57   H     H_    0.163822 0.842216 0.531924 0.157084
H58   H     H_    0.175748 0.870233 0.451848 0.129936
C86   C     C_3   0.191468 0.759172 0.447374 -0.826733
H59   H     H_    0.189935 0.742390 0.383549 0.264423
H60   H     H_    0.260651 0.795833 0.499088 0.196313
H61   H     H_    0.158118 0.699107 0.449078 0.285186
O36   O     O_3   0.944191 0.235199 0.588324 -0.601008
C87   C     C_3   0.852180 0.184837 0.537403 0.201540
H62   H     H_    0.824167 0.129297 0.548325 0.127324
H63   H     H_    0.836012 0.156695 0.467878 0.159480
C88   C     C_3   0.807831 0.239781 0.551672 -0.824247
H64   H     H_    0.840607 0.299343 0.548970 0.284234
H65   H     H_    0.738532 0.202528 0.500155 0.196662
H66   H     H_    0.809733 0.257373 0.615711 0.263451

loop_
_geom_bond_atom_site_label_1
_geom_bond_atom_site_label_2
_geom_bond_distance
_ccdc_geom_bond_type
C58   O30   1.383484 S    
O13   C47   1.278092 A    
C33   C35   1.407072 A    
C80   H44   1.110626 S    
C69   O35   1.386334 S    
C59   C61   1.429812 A    
O30   C83   1.412652 S    
C27   H17   1.081164 S    
C36   C38   1.413220 A    
C1    C37   1.430586 S    
C62   C64   1.406661 A    
O29   C81   1.412165 S    
C84   H54   1.110677 S    
O10   Zn4   2.028085 S    
O5    C3    1.276875 A    
C53   H23   1.081786 S    
C41   C43   1.395335 A    
O9    Zn3   2.028085 S    
C82   H49   1.109238 S    
H12   C22   1.083647 S    
O1    C1    1.277261 A    
C29   O25   1.391277 S    
C23   C47   1.429292 S    
C81   H47   1.116131 S    
C61   C63   1.406317 A    
C28   C30   1.411396 A    
O16   C48   1.274920 A    
C29   C31   1.399738 A    
C83   H52   1.115187 S    
C30   C32   1.400959 A    
C77   C78   1.521034 S    
C11   C13   1.416232 A    
C24   C48   1.429096 S    
O18   C50   1.277144 A    
O16   Zn3   2.008178 S    
C13   C23   1.413573 A    
C85   H57   1.110609 S    
C32   H20   1.080494 S    
O12   Zn3   2.009671 S    
C3    C17   1.432088 S    
H13   C39   1.084458 S    
O11   Zn4   2.009671 S    
C7    C9    1.390313 A    
C55   H25   1.083055 S    
C5    H3    1.081015 S    
C25   C35   1.412286 A    
C49   C72   1.455222 S    
C62   C72   1.426452 A    
O4    Zn1   2.006347 S    
C64   C66   1.405449 A    
C25   H15   1.080253 S    
C40   C42   1.372002 A    
C74   H31   1.110114 S    
C26   H16   1.080353 S    
C39   C41   1.371979 A    
C14   C24   1.413285 A    
C12   H10   1.081024 S    
C56   C58   1.394698 A    
C20   C22   1.373846 A    
C77   H38   1.112715 S    
C55   C57   1.394903 A    
C88   H66   1.109681 S    
C54   C64   1.410853 A    
C38   C40   1.390920 A    
C2    C38   1.430351 S    
O23   Zn6   2.019326 S    
N1    O32   1.301061 A    
C82   H50   1.110422 S    
C68   O28   1.386145 S    
C9    C11   1.393640 A    
H11   C21   1.083611 S    
O2    C2    1.277344 A    
O14   Zn4   2.016209 S    
O19   Zn6   2.015399 S    
C10   H8    1.082527 S    
C22   C24   1.392945 A    
O27   C77   1.413000 S    
C81   H48   1.113327 S    
C84   H55   1.110406 S    
C44   C52   1.437441 S    
O13   Zn3   2.016209 S    
C28   H18   1.080869 S    
C31   H19   1.080475 S    
C86   H60   1.110318 S    
C12   C14   1.416155 A    
O15   C47   1.274777 A    
O36   C87   1.418703 S    
C86   H61   1.109142 S    
C87   C88   1.526343 S    
C67   O27   1.386125 S    
C79   C80   1.521087 S    
H22   C42   1.084183 S    
C60   C62   1.431140 A    
C76   H36   1.110686 S    
H14   C40   1.084444 S    
H21   C41   1.084198 S    
C27   C29   1.406979 A    
C19   C21   1.373776 A    
O6    Zn2   2.008486 S    
C35   C37   1.413601 A    
O22   C52   1.279096 A    
O17   C49   1.277468 A    
C75   C76   1.520305 S    
O24   Zn5   2.019327 S    
C5    C7    1.394062 A    
C50   C71   1.454823 S    
C45   C65   1.429496 S    
C37   C39   1.391174 A    
C76   H35   1.110601 S    
C87   H63   1.110631 S    
C73   H28   1.115483 S    
O7    Zn2   2.016003 S    
O35   C85   1.418553 S    
C69   C71   1.414909 A    
C17   C19   1.394245 A    
C81   C82   1.520708 S    
O7    C3    1.280234 A    
C46   C66   1.429488 S    
O10   C46   1.272084 A    
O9    C45   1.272181 A    
O6    C4    1.276809 A    
O24   C52   1.276477 A    
C34   C44   1.418365 A    
C59   N1    1.437176 S    
O20   C50   1.285662 A    
C21   C23   1.392986 A    
C61   C71   1.425389 A    
H1    C19   1.083800 S    
C79   H42   1.112345 S    
O21   Zn5   2.011670 S    
C63   C65   1.406159 A    
O8    C4    1.280426 A    
H2    C20   1.083866 S    
C30   O26   1.396230 S    
O12   C46   1.278741 A    
O23   C51   1.276635 A    
O20   Zn5   2.015399 S    
C10   C12   1.393613 A    
C82   H51   1.110760 S    
C7    H5    1.082527 S    
C74   H29   1.110655 S    
C8    H6    1.082523 S    
C31   C33   1.416627 A    
C78   H41   1.110540 S    
O4    C2    1.278361 A    
O1    Zn1   2.025092 S    
C42   C44   1.395589 A    
C66   C68   1.393542 A    
C26   C28   1.391481 A    
N2    O33   1.300877 A    
C33   C43   1.417733 A    
C68   C70   1.386088 A    
C77   H37   1.114399 S    
C54   C56   1.386060 A    
C84   H56   1.110765 S    
C60   N2    1.435545 S    
C53   C55   1.387130 A    
C70   C72   1.415727 A    
N2    O34   1.301434 A    
C15   C17   1.414862 A    
C6    C8    1.394116 A    
C79   H43   1.114981 S    
O14   C48   1.277820 A    
O17   Zn5   2.022345 S    
O3    C1    1.278671 A    
O8    Zn1   2.016001 S    
C58   C60   1.413507 A    
O15   Zn4   2.008178 S    
C26   C36   1.411128 A    
C75   H33   1.111023 S    
O3    Zn2   2.006347 S    
C80   H46   1.110174 S    
C5    C15   1.416333 A    
O26   C75   1.413656 S    
O11   C45   1.278766 A    
C85   C86   1.526654 S    
C32   C34   1.416859 A    
C87   H62   1.116241 S    
C78   H40   1.110400 S    
C73   H27   1.110496 S    
O25   C73   1.414292 S    
C86   H59   1.109723 S    
C11   H9    1.080953 S    
C76   H34   1.109287 S    
C18   C20   1.394340 A    
O19   C49   1.285702 A    
C54   H24   1.081811 S    
C25   C27   1.391744 A    
C83   C84   1.521533 S    
C16   C18   1.415075 A    
C13   C15   1.406410 A    
C14   C16   1.406379 A    
C85   H58   1.116179 S    
C6    H4    1.080987 S    
C4    C18   1.432279 S    
C70   O36   1.386324 S    
O2    Zn2   2.025092 S    
C56   H26   1.082963 S    
C65   C67   1.394130 A    
C67   C69   1.386147 A    
C75   H32   1.114771 S    
O18   Zn6   2.022345 S    
C57   O29   1.381951 S    
C88   H64   1.108851 S    
C73   C74   1.520187 S    
O5    Zn1   2.008486 S    
C80   H45   1.110557 S    
N1    O31   1.301338 A    
C8    C10   1.390341 A    
C43   C51   1.437149 S    
C74   H30   1.110557 S    
C53   C63   1.411304 A    
C83   H53   1.112978 S    
C88   H65   1.110318 S    
O28   C79   1.412949 S    
C78   H39   1.110681 S    
C6    C16   1.416356 A    
O22   Zn6   2.011670 S    
O21   C51   1.278746 A    
C34   C36   1.406247 A    
C57   C59   1.412870 A    
C9    H7    1.082530 S    
