data_mof_unit_8572.cif
_audit_creation_date              2012-12-10T18:58:44-0500
_audit_creation_method            fapswitch 2.2
_symmetry_space_group_name_H-M    P1
_symmetry_Int_Tables_number       1
_space_group_crystal_system       triclinic
_cell_length_a                    13.005514
_cell_length_b                    10.834319
_cell_length_c                    9.544446
_cell_angle_alpha                 90.440174
_cell_angle_beta                  95.989531
_cell_angle_gamma                 90.358953
_cell_volume                      1337.45373163

loop_
_atom_site_label
_atom_site_type_symbol
_atom_type_description
_atom_site_fract_x
_atom_site_fract_y
_atom_site_fract_z
_atom_type_partial_charge
C1    C     C_R   0.497494 0.262382 0.499034 0.806894
C2    C     C_R   0.027987 0.496654 0.567574 0.173798
C3    C     C_R   0.972136 0.495144 0.432451 0.173545
C4    C     C_R   0.864756 0.494359 0.420295 -0.263793
C5    C     C_R   0.868152 0.496276 0.675224 -0.198695
C6    C     C_R   0.975606 0.496547 0.688372 -0.204832
C7    C     C_R   0.466765 0.064953 0.615641 0.077675
C8    C     C_R   0.486027 0.129448 0.495134 -0.105156
C9    C     C_R   0.489821 0.063399 0.368476 -0.198445
C10   C     C_R   0.490411 0.934756 0.369374 -0.183009
C11   C     C_R   0.487124 0.870997 0.496906 -0.151786
C12   C     C_R   0.300537 0.499605 0.473838 0.813875
C13   C     C_R   0.466979 0.937855 0.616732 0.146821
C14   C     C_3   0.517119 0.935146 0.764855 0.075189
C15   C     C_3   0.516430 0.075386 0.763302 -0.477485
C16   C     C_R   0.588462 0.525618 0.086488 0.252607
C17   C     C_R   0.415559 0.462165 0.062030 -0.057671
C18   C     C_R   0.415508 0.462276 0.913366 -0.037925
C19   C     C_R   0.588883 0.524105 0.939192 0.248497
C20   C     C_3   0.652815 0.638811 0.942818 -0.485937
C21   C     C_3   0.650412 0.642053 0.101356 -0.473304
C22   C     C_R   0.497933 0.737808 0.499942 0.814508
C23   C     C_R   0.699482 0.498850 0.526156 0.799408
C24   C     C_R   0.812279 0.496510 0.541222 -0.048642
C25   C     C_R   0.187788 0.498283 0.458767 -0.050976
C26   C     C_R   0.024493 0.494905 0.311598 -0.209616
C27   C     C_R   0.131962 0.496561 0.324684 -0.185067
C28   C     C_R   0.135366 0.498171 0.579788 -0.248992
Cu1   Cu    Cu3+1 0.499990 0.499980 0.640670 0.964396
Cu2   Cu    Cu3+1 0.500010 0.500020 0.359330 0.953877
H1    H     H_    0.822366 0.492045 0.316437 0.144810
H2    H     H_    0.596389 0.896581 0.772882 0.113488
H3    H     H_    0.464109 0.118019 0.834633 0.228271
H4    H     H_    0.595212 0.116963 0.769786 0.175857
H5    H     H_    0.346707 0.432784 0.107103 0.134077
H6    H     H_    0.346572 0.432833 0.848510 0.132964
H7    H     H_    0.731260 0.621944 0.911117 0.178126
H8    H     H_    0.611306 0.716000 0.888115 0.241095
H9    H     H_    0.727781 0.628829 0.159942 0.182074
H10   H     H_    0.605961 0.721038 0.138453 0.230612
H11   H     H_    0.829036 0.495703 0.769801 0.147980
H12   H     H_    0.982442 0.493763 0.207374 0.132436
H13   H     H_    0.017613 0.496934 0.792617 0.134828
H14   H     H_    0.171193 0.496481 0.230015 0.153693
H15   H     H_    0.177837 0.499411 0.683781 0.151427
H16   H     H_    0.498369 0.110362 0.270535 0.177261
H17   H     H_    0.499163 0.886165 0.271785 0.191897
N1    N     N_R   0.500660 0.500930 0.148010 -0.183154
N2    N     N_R   0.500660 0.500890 0.852110 -0.174606
O1    O     O_R   0.500000 0.319640 0.618810 -0.582140
O2    O     O_R   0.500010 0.319680 0.381230 -0.588145
O3    O     O_R   0.348990 0.499960 0.599490 -0.586236
O4    O     O_R   0.349000 0.500000 0.361910 -0.592651
O5    O     O_R   0.499990 0.680320 0.618770 -0.555311
O6    O     O_R   0.500000 0.680360 0.381190 -0.577715
O7    O     O_R   0.651000 0.500000 0.638090 -0.592427
O8    O     O_R   0.651010 0.500040 0.400510 -0.588685
Br1   Br    Br    0.424943 0.866294 0.892300 -0.549584

loop_
_geom_bond_atom_site_label_1
_geom_bond_atom_site_label_2
_ccdc_geom_bond_type
C23   C24   S    
C15   H4    S    
C16   C21   S    
Cu1   O7    S    
C25   C27   A    
C1    C8    S    
C20   H8    S    
C9    C10   A    
C19   N2    A    
C11   C22   S    
C12   O4    A    
C21   H9    S    
C17   N1    A    
C12   C25   S    
Cu2   O2    S    
C10   C11   A    
C16   N1    A    
C19   C20   S    
C7    C15   S    
C2    C3    A    
C23   O7    A    
C22   O5    A    
Cu1   N2    S    
C13   C14   S    
C25   C28   A    
C20   H7    S    
C11   C13   A    
C26   C27   A    
C22   O6    A    
C5    C24   A    
Cu1   O1    S    
C16   C19   A    
C4    C24   A    
Cu2   N1    S    
C12   O3    A    
C1    O1    A    
C17   C18   A    
C9    H16   S    
C6    H13   S    
C5    C6    A    
C14   Br1   S    
Cu2   O4    S    
C28   H15   S    
C4    H1    S    
C7    C8    A    
Cu1   O5    S    
Cu1   Cu2   S    
C3    C4    A    
Cu2   O8    S    
C7    C13   A    
C20   C21   S    
C26   H12   S    
Cu2   O6    S    
C10   H17   S    
C23   O8    A    
C5    H11   S    
C14   C15   S    
C2    C28   A    
C1    O2    A    
C17   H5    S    
C18   H6    S    
C27   H14   S    
C15   H3    S    
C3    C26   A    
C2    C6    A    
C18   N2    A    
C14   H2    S    
C8    C9    A    
Cu1   O3    S    
C21   H10   S    
