data_mof_unit_40821.cif
_audit_creation_date              2012-12-10T20:43:30-0500
_audit_creation_method            fapswitch 2.2
_symmetry_space_group_name_H-M    P1
_symmetry_Int_Tables_number       1
_space_group_crystal_system       triclinic
_cell_length_a                    18.726889
_cell_length_b                    18.714799
_cell_length_c                    18.804739
_cell_angle_alpha                 109.612468
_cell_angle_beta                  109.608859
_cell_angle_gamma                 109.367179
_cell_volume                      5062.36655135

loop_
_atom_site_label
_atom_site_type_symbol
_atom_type_description
_atom_site_fract_x
_atom_site_fract_y
_atom_site_fract_z
_atom_type_partial_charge
C1    C     C_R   0.381684 0.501885 0.380018 0.872538
C2    C     C_R   0.304780 0.455486 0.029436 0.274049
C3    C     C_R   0.120334 0.118760 0.499018 0.896065
C4    C     C_R   0.002061 0.379995 0.881815 0.872946
C5    C     C_R   0.120072 0.498255 0.118495 0.864038
C6    C     C_R   0.998665 0.620422 0.118541 0.856918
C7    C     C_R   0.879670 0.501149 0.881151 0.874449
C8    C     C_R   0.064748 0.750985 0.539277 0.263257
C9    C     C_R   0.067042 0.767327 0.472282 -0.102706
C10   C     C_R   0.992019 0.719419 0.389113 0.053513
C11   C     C_R   0.916356 0.650645 0.371867 -0.203304
C12   C     C_R   0.913673 0.634315 0.438434 -0.177123
C13   C     C_R   0.335017 0.536224 0.032078 -0.099622
C14   C     C_R   0.792118 0.722820 0.776508 -0.118536
C15   C     C_R   0.987338 0.684608 0.522073 -0.105055
C16   C     C_R   0.991350 0.673092 0.250237 -0.243292
C17   C     C_R   0.997943 0.687038 0.183739 -0.083479
C18   C     C_R   0.007214 0.764836 0.183144 -0.008709
C19   C     C_R   0.005355 0.825636 0.248316 -0.270784
C20   C     C_R   0.999242 0.811747 0.314977 -0.077030
C21   C     C_R   0.994699 0.736105 0.318029 -0.001581
C22   C     C_R   0.096631 0.861805 0.145127 -0.154913
C23   C     C_R   0.112266 0.879974 0.083803 -0.141721
C24   C     C_R   0.077764 0.251943 0.758607 -0.247641
C25   C     C_R   0.053114 0.821977 0.994630 -0.123436
C26   C     C_3   0.403987 0.233612 0.501083 -0.872675
C27   C     C_3   0.735105 0.512286 0.907365 -0.893645
C28   C     C_3   0.144965 0.804441 0.628244 -0.981798
C29   C     C_3   0.897557 0.908457 0.672745 -0.899007
C30   C     C_3   0.358789 0.444830 0.100420 -0.934538
C31   C     C_3   0.639322 0.103937 0.428388 -0.955234
C32   C     C_R   0.823068 0.827728 0.585439 0.137878
C33   C     C_R   0.996793 0.183436 0.686107 -0.078115
C34   C     C_R   0.917781 0.180695 0.677034 0.010025
C35   C     C_R   0.922131 0.245438 0.744420 -0.281191
C36   C     C_R   0.003032 0.314296 0.816212 -0.087878
C37   C     C_R   0.082172 0.319667 0.822861 -0.002234
C38   C     C_R   0.778053 0.139478 0.552505 -0.158737
C39   C     C_R   0.768294 0.777888 0.821548 -0.106508
C40   C     C_R   0.695679 0.076655 0.477615 0.263447
C41   C     C_R   0.666127 0.987390 0.448391 -0.130831
C42   C     C_R   0.717801 0.961332 0.494057 -0.166222
C43   C     C_R   0.798920 0.023981 0.569468 -0.123336
C44   C     C_R   0.813223 0.817277 0.503588 -0.093285
C45   C     C_R   0.830503 0.113455 0.598405 0.085113
C46   C     C_R   0.739025 0.744761 0.423776 -0.048739
C47   C     C_R   0.680014 0.679340 0.426269 -0.273905
C48   C     C_R   0.690404 0.687264 0.505567 -0.128412
C49   C     C_R   0.760287 0.761479 0.585733 -0.027037
C50   C     C_R   0.977720 0.746459 0.966818 -0.105325
C51   C     C_R   0.639193 0.725382 0.282191 -0.168558
C52   C     C_R   0.618467 0.713514 0.198876 -0.141265
C53   C     C_R   0.676680 0.710331 0.168608 -0.118036
C54   C     C_R   0.622285 0.620238 0.502523 0.887165
C55   C     C_R   0.755852 0.719384 0.221773 -0.124505
C56   C     C_R   0.776834 0.731633 0.305221 -0.098548
C57   C     C_R   0.718899 0.734842 0.336301 0.149639
C58   C     C_R   0.445059 0.811702 0.512751 -0.142839
C59   C     C_R   0.377190 0.728862 0.442553 -0.153557
C60   C     C_R   0.395799 0.669602 0.393912 0.132231
C61   C     C_R   0.960777 0.729168 0.027948 -0.112295
C62   C     C_R   0.483119 0.694996 0.415820 -0.118779
C63   C     C_R   0.550787 0.777653 0.486580 -0.127138
C64   C     C_R   0.531873 0.835979 0.534922 -0.117114
C65   C     C_R   0.258222 0.577617 0.252294 -0.246433
C66   C     C_R   0.617460 0.497547 0.620038 0.891442
C67   C     C_R   0.186133 0.496664 0.183294 -0.066967
C68   C     C_R   0.177156 0.417455 0.180155 -0.004122
C69   C     C_R   0.244833 0.422010 0.244921 -0.282305
C70   C     C_R   0.316760 0.502944 0.313757 -0.073106
C71   C     C_R   0.323282 0.582026 0.319404 -0.006262
C72   C     C_R   0.021090 0.785664 0.117642 0.131883
C73   C     C_R   0.056962 0.272500 0.135853 -0.157669
C74   C     C_R   0.985904 0.188508 0.072043 -0.137680
C75   C     C_R   0.956830 0.160371 0.983641 -0.126523
C76   C     C_R   0.998608 0.216314 0.958964 -0.119829
C77   C     C_R   0.069468 0.300403 0.022662 -0.101172
C78   C     C_R   0.380212 0.379564 0.500120 0.892355
C79   C     C_R   0.099454 0.329451 0.111695 0.129779
C80   C     C_R   0.215960 0.519428 0.567531 -0.152099
C81   C     C_R   0.230311 0.451247 0.569586 -0.139188
C82   C     C_R   0.228445 0.392371 0.498057 0.154256
C83   C     C_R   0.284288 0.545213 0.965372 -0.207591
C84   C     C_R   0.210994 0.401920 0.424119 -0.141020
C85   C     C_R   0.196009 0.469840 0.422103 -0.122065
C86   C     C_R   0.198892 0.528759 0.493869 -0.102608
C87   C     C_R   0.179106 0.254234 0.499080 -0.262125
C88   C     C_R   0.187594 0.183162 0.498612 -0.125033
C89   C     C_R   0.260182 0.175149 0.500014 -0.025302
C90   C     C_R   0.742922 0.828510 0.790359 -0.151664
C91   C     C_R   0.325047 0.240404 0.500639 0.132564
C92   C     C_R   0.314834 0.312103 0.500059 -0.086204
C93   C     C_R   0.242150 0.319280 0.499918 -0.045628
C94   C     C_R   0.202341 0.474403 0.896678 -0.090939
C95   C     C_R   0.314975 0.099776 0.573692 -0.117932
C96   C     C_R   0.319905 0.025828 0.570204 -0.146541
C97   C     C_R   0.276096 0.948854 0.489855 -0.117731
C98   C     C_R   0.226986 0.945589 0.412913 -0.127194
C99   C     C_R   0.221336 0.019205 0.416164 -0.161290
C100  C     C_R   0.265648 0.096784 0.496548 0.147733
C101  C     C_R   0.507575 0.552482 0.798198 -0.140525
C102  C     C_R   0.741335 0.824018 0.714094 -0.119287
C103  C     C_R   0.584841 0.562036 0.798089 -0.100544
C104  C     C_R   0.592307 0.487811 0.761743 0.138969
C105  C     C_R   0.169854 0.394236 0.894920 0.066232
C106  C     C_R   0.522852 0.404396 0.728244 -0.189783
C107  C     C_R   0.445746 0.395089 0.728585 -0.125106
C108  C     C_R   0.437905 0.469032 0.763058 -0.096243
C109  C     C_R   0.740731 0.502947 0.826149 0.136672
C110  C     C_R   0.812567 0.502177 0.816503 -0.104465
C111  C     C_R   0.818782 0.500179 0.743148 -0.056717
C112  C     C_R   0.752892 0.497602 0.679208 -0.269998
C113  C     C_R   0.681137 0.495826 0.686655 -0.121339
C114  C     C_R   0.766607 0.769772 0.669340 0.158953
C115  C     C_R   0.673041 0.496967 0.758746 -0.021166
C116  C     C_R   0.222878 0.384190 0.959719 -0.215961
C117  C     C_R   0.950859 0.572182 0.733098 -0.149171
C118  C     C_R   0.019333 0.571175 0.719017 -0.144773
C119  C     C_R   0.029367 0.497475 0.701223 -0.122189
C120  C     C_R   0.970870 0.424634 0.697357 -0.133319
C121  C     C_R   0.902610 0.425568 0.711983 -0.125754
C122  C     C_R   0.892399 0.499535 0.730182 0.159741
C123  C     C_R   0.998360 0.877903 0.380184 0.878509
C124  C     C_R   0.879693 0.881298 0.501354 0.867541
C125  C     C_R   0.998159 0.118470 0.619967 0.857890
C126  C     C_R   0.791732 0.718866 0.700812 -0.159721
H1    H     H_    0.660508 0.700993 0.104054 0.123299
H2    H     H_    0.723652 0.870550 0.824773 0.118495
H3    H     H_    0.078689 0.293242 0.204095 0.123566
H4    H     H_    0.901970 0.095271 0.934301 0.124981
H5    H     H_    0.187495 0.581383 0.492228 0.123691
H6    H     H_    0.217755 0.564836 0.622918 0.121740
H7    H     H_    0.243196 0.444459 0.626891 0.115085
H8    H     H_    0.208393 0.356471 0.368092 0.101205
H9    H     H_    0.181811 0.476727 0.364858 0.141215
H10   H     H_    0.719736 0.862068 0.689378 0.112339
H11   H     H_    0.122804 0.258994 0.498828 0.162454
H12   H     H_    0.801060 0.717149 0.198436 0.140129
H13   H     H_    0.349351 0.159240 0.636187 0.114494
H14   H     H_    0.280175 0.891737 0.487208 0.112675
H15   H     H_    0.193268 0.885928 0.350845 0.140736
H16   H     H_    0.501635 0.609741 0.825349 0.114193
H17   H     H_    0.638339 0.626876 0.825153 0.116988
H18   H     H_    0.809465 0.675223 0.665973 0.107427
H19   H     H_    0.528519 0.346774 0.701906 0.132608
H20   H     H_    0.392002 0.330564 0.701943 0.134174
H21   H     H_    0.757750 0.497438 0.623222 0.162800
H22   H     H_    0.943430 0.629481 0.746471 0.111892
H23   H     H_    0.838589 0.739950 0.346245 0.111809
H24   H     H_    0.064394 0.627382 0.721548 0.121044
H25   H     H_    0.082228 0.496648 0.690051 0.116815
H26   H     H_    0.978343 0.367397 0.682676 0.141399
H27   H     H_    0.857402 0.368698 0.708503 0.103194
H28   H     H_    0.984181 0.671119 0.572962 0.123362
H29   H     H_    0.809357 0.682061 0.799427 0.127469
H30   H     H_    0.127161 0.817493 0.484996 0.144460
H31   H     H_    0.858966 0.610634 0.307147 0.146555
H32   H     H_    0.986870 0.614057 0.251046 0.162673
H33   H     H_    0.010786 0.885225 0.248352 0.153074
H34   H     H_    0.584499 0.899957 0.589489 0.124633
H35   H     H_    0.144202 0.906188 0.213857 0.118338
H36   H     H_    0.170845 0.938417 0.105418 0.130241
H37   H     H_    0.065896 0.835273 0.947097 0.123413
H38   H     H_    0.933161 0.700654 0.897916 0.121416
H39   H     H_    0.901851 0.670976 0.005529 0.102134
H40   H     H_    0.397957 0.591996 0.085327 0.117316
H41   H     H_    0.308373 0.607286 0.967095 0.128731
H42   H     H_    0.163669 0.482273 0.845398 0.137066
H43   H     H_    0.199772 0.321392 0.956788 0.143429
H44   H     H_    0.138033 0.254508 0.763287 0.158992
H45   H     H_    0.430333 0.856948 0.550082 0.122916
H46   H     H_    0.862135 0.243620 0.739802 0.155248
H47   H     H_    0.801812 0.208555 0.574750 0.126583
H48   H     H_    0.623534 0.622697 0.365559 0.162287
H49   H     H_    0.603132 0.938060 0.390275 0.137012
H50   H     H_    0.695159 0.892465 0.470601 0.140893
H51   H     H_    0.837520 0.002963 0.604889 0.114529
H52   H     H_    0.557272 0.706756 0.157760 0.120506
H53   H     H_    0.768733 0.780699 0.880136 0.113869
H54   H     H_    0.498582 0.650790 0.378231 0.096304
H55   H     H_    0.953520 0.145158 0.091175 0.130605
H56   H     H_    0.310200 0.710633 0.426454 0.118171
H57   H     H_    0.976099 0.194509 0.890484 0.142612
H58   H     H_    0.100656 0.343146 0.002783 0.103196
H59   H     H_    0.414536 0.186839 0.520726 0.232944
H60   H     H_    0.395445 0.211958 0.434699 0.255754
H61   H     H_    0.465041 0.297789 0.548100 0.232947
H62   H     H_    0.357840 0.028241 0.629746 0.120398
H63   H     H_    0.182768 0.016104 0.356408 0.111884
H64   H     H_    0.378042 0.461694 0.762934 0.116703
H65   H     H_    0.796478 0.531101 0.963187 0.243062
H66   H     H_    0.720109 0.565172 0.931474 0.224768
H67   H     H_    0.617979 0.796541 0.504265 0.130183
H68   H     H_    0.682274 0.449797 0.891281 0.252086
H69   H     H_    0.133362 0.784134 0.674300 0.237169
H70   H     H_    0.199568 0.796179 0.623585 0.235603
H71   H     H_    0.164185 0.874721 0.654830 0.246694
H72   H     H_    0.854444 0.582440 0.425111 0.149304
H73   H     H_    0.870989 0.937317 0.711501 0.221215
H74   H     H_    0.940365 0.889653 0.709984 0.251288
H75   H     H_    0.938580 0.962872 0.668244 0.248649
H76   H     H_    0.421125 0.506945 0.151542 0.237486
H77   H     H_    0.321387 0.424472 0.131688 0.258675
H78   H     H_    0.262753 0.637868 0.254858 0.153890
H79   H     H_    0.374498 0.393775 0.072156 0.242000
H80   H     H_    0.671219 0.176385 0.459135 0.244232
H81   H     H_    0.626617 0.076147 0.360301 0.243251
H82   H     H_    0.575954 0.079164 0.427151 0.245817
H83   H     H_    0.593345 0.727553 0.304722 0.120335
H84   H     H_    0.240593 0.362040 0.242931 0.155364
O1    O     O_R   0.408360 0.551710 0.460090 -0.604222
O2    O     O_R   0.948290 0.356630 0.908390 -0.623106
O3    O     O_R   0.143340 0.551690 0.091580 -0.618056
O4    O     O_R   0.408400 0.448280 0.356670 -0.627670
O5    O     O_R   0.039900 0.448270 0.091610 -0.615302
O6    O     O_R   0.051710 0.643320 0.091560 -0.611077
O7    O     O_R   0.948270 0.539900 0.091590 -0.630666
O8    O     O_R   0.960100 0.551680 0.908340 -0.613276
O9    O     O_R   0.856660 0.448270 0.908370 -0.617578
O10   O     O_R   0.591600 0.643340 0.551710 -0.608784
O11   O     O_R   0.591630 0.539900 0.448290 -0.626942
O12   O     O_R   0.948280 0.908380 0.356650 -0.623452
O13   O     O_R   0.591600 0.551720 0.643330 -0.613404
O14   O     O_R   0.591640 0.448290 0.539910 -0.628383
O15   O     O_R   0.408370 0.460100 0.551710 -0.606438
O16   O     O_R   0.408400 0.356660 0.448290 -0.627439
O17   O     O_R   0.051730 0.908360 0.460060 -0.616083
O18   O     O_R   0.960110 0.908350 0.551690 -0.611480
O19   O     O_R   0.856660 0.908370 0.448270 -0.614334
O20   O     O_R   0.051720 0.091580 0.643310 -0.634381
O21   O     O_R   0.948270 0.091600 0.539890 -0.609329
O22   O     O_R   0.143340 0.091590 0.551680 -0.618769
O23   O     O_R   0.039890 0.091610 0.448270 -0.624290
O24   O     O_R   0.051730 0.460050 0.908360 -0.612904
Zn1   Zn    Zn3+2 0.499980 0.569060 0.569060 0.982544
Zn2   Zn    Zn3+2 0.500020 0.430940 0.430940 0.939487
Zn3   Zn    Zn3+2 0.069070 0.999960 0.569030 0.947443
Zn4   Zn    Zn3+2 0.930930 0.999990 0.430930 0.967993
Zn5   Zn    Zn3+2 0.069070 0.569030 0.999960 0.969134
Zn6   Zn    Zn3+2 0.930930 0.430930 0.000000 0.953290

loop_
_geom_bond_atom_site_label_1
_geom_bond_atom_site_label_2
_ccdc_geom_bond_type
C78   O16   A    
C87   C88   A    
C4    C36   S    
C94   C105  A    
C16   C21   A    
C80   H6    S    
C66   C113  S    
C14   H29   S    
C1    O1    A    
C26   H60   S    
C41   C42   A    
C96   H62   S    
C105  C116  A    
C95   C96   A    
C5    C67   S    
C77   H58   S    
C104  C106  A    
C97   C98   A    
C74   H55   S    
C85   C86   A    
C31   C40   S    
C48   C54   S    
C30   H77   S    
C84   H8    S    
C106  H19   S    
C121  H27   S    
C38   C45   A    
C117  H22   S    
C36   C37   A    
C34   C35   A    
C29   C32   S    
C62   H54   S    
C114  C126  A    
C26   H59   S    
C86   H5    S    
C123  O17   A    
C106  C107  A    
C60   C71   S    
C5    O5    A    
C28   H69   S    
O16   Zn2   S    
C56   C57   A    
C60   C62   A    
C18   C19   A    
C26   H61   S    
C118  H24   S    
C2    C13   A    
C110  C111  A    
C90   C102  A    
C20   C123  S    
C75   C76   A    
O23   Zn4   S    
O10   Zn1   S    
C14   C39   A    
C118  C119  A    
C7    O8    A    
C2    C116  A    
C6    O7    A    
C7    C110  S    
C111  C112  A    
C9    H30   S    
O1    Zn1   S    
C8    C9    A    
C65   C67   A    
C80   C86   A    
C107  C108  A    
C63   H67   S    
C70   C71   A    
C51   C57   A    
C89   C91   A    
C76   H57   S    
C24   H44   S    
C9    C10   A    
C97   H14   S    
C124  O19   A    
C75   H4    S    
C23   H36   S    
C7    O9    A    
C101  C108  A    
C77   C79   A    
C49   C114  S    
C41   H49   S    
C59   C60   A    
C101  C103  A    
C82   C93   S    
O3    Zn5   S    
C111  C122  S    
C18   C72   S    
C35   H46   S    
C108  H64   S    
C27   H65   S    
O8    Zn5   S    
C87   H11   S    
C22   C72   A    
C112  C113  A    
C124  O18   A    
C44   C46   A    
C33   C34   A    
C52   H52   S    
C53   C55   A    
C10   C21   S    
C119  H25   S    
C30   H76   S    
C123  O12   A    
C73   H3    S    
C120  H26   S    
C29   H75   S    
C74   C75   A    
C89   C100  S    
C16   H32   S    
C67   C68   A    
O15   Zn1   S    
C84   C85   A    
C31   H80   S    
C66   O14   A    
C125  O20   A    
C31   H81   S    
C94   H42   S    
C91   C92   A    
C99   H63   S    
C22   H35   S    
C95   C100  A    
C68   C69   A    
C38   H47   S    
C78   O15   A    
C58   C64   A    
C78   C92   S    
C26   C91   S    
C65   C71   A    
C83   C94   A    
C50   H38   S    
C46   C57   S    
C15   H28   S    
C81   C82   A    
C51   C52   A    
C35   C36   A    
O9    Zn6   S    
C59   H56   S    
C117  C122  A    
C34   C45   S    
C37   C105  S    
C62   C63   A    
C102  C114  A    
C104  C115  S    
C43   C45   A    
C101  H16   S    
C51   H83   S    
C47   C48   A    
C12   C15   A    
C119  C120  A    
C29   H74   S    
C5    O3    A    
C96   C97   A    
C64   H34   S    
C55   C56   A    
C33   C125  S    
C17   C18   A    
C32   C44   A    
C27   H68   S    
C56   H23   S    
C52   C53   A    
C76   C77   A    
C81   H7    S    
C55   H12   S    
O7    Zn6   S    
C121  C122  A    
O2    Zn6   S    
O13   Zn1   S    
C85   H9    S    
C61   C72   A    
C40   C41   A    
C8    C15   A    
C82   C84   A    
O21   Zn4   S    
O11   Zn2   S    
O22   Zn3   S    
C8    C28   S    
C27   H66   S    
C73   C74   A    
C103  C104  A    
C120  C121  A    
C11   H31   S    
C24   C37   A    
C107  H20   S    
C6    C17   S    
C46   C47   A    
C43   H51   S    
C12   H72   S    
C39   C90   A    
C3    C88   S    
O6    Zn5   S    
C4    O24   A    
C25   C50   A    
O4    Zn2   S    
C24   C33   A    
C80   C81   A    
C54   O11   A    
C103  H17   S    
C3    O22   A    
C39   H53   S    
C11   C12   A    
C112  H21   S    
C54   O10   A    
C69   H84   S    
C73   C79   A    
C13   C83   A    
C95   H13   S    
C1    C70   S    
C14   C126  A    
C99   C100  A    
C2    C30   S    
C19   H33   S    
C19   C20   A    
C58   H45   S    
C58   C59   A    
O18   Zn3   S    
C98   H15   S    
C42   H50   S    
C109  C110  A    
C3    O23   A    
C28   H71   S    
C38   C40   A    
C30   H79   S    
C29   H73   S    
C53   H1    S    
C13   H40   S    
C16   C17   A    
C65   H78   S    
C83   H41   S    
C25   H37   S    
C48   C49   A    
C4    O2    A    
C87   C93   A    
C126  H18   S    
C92   C93   A    
C28   H70   S    
O12   Zn4   S    
C116  H43   S    
C61   H39   S    
O24   Zn5   S    
C23   C25   A    
O14   Zn2   S    
C69   C70   A    
C102  H10   S    
C32   C49   A    
C47   H48   S    
C10   C11   A    
C109  C115  A    
C63   C64   A    
C31   H82   S    
C6    O6    A    
C88   C89   A    
C27   C109  S    
C68   C79   S    
C20   C21   A    
C98   C99   A    
C42   C43   A    
C44   C124  S    
C1    O4    A    
C50   C61   A    
C90   H2    S    
C22   C23   A    
C66   O13   A    
O20   Zn3   S    
O5    Zn6   S    
O19   Zn4   S    
C117  C118  A    
C125  O21   A    
C113  C115  A    
O17   Zn3   S    
