data_mof_unit_67191.cif
_audit_creation_date              2013-03-05T15:59:20-0500
_audit_creation_method            fapswitch 2.2
_symmetry_space_group_name_H-M    P1
_symmetry_Int_Tables_number       1
_space_group_crystal_system       triclinic
_cell_length_a                    8.171209
_cell_length_b                    12.721392
_cell_length_c                    16.418666
_cell_angle_alpha                 109.780629
_cell_angle_beta                  97.789119
_cell_angle_gamma                 81.423969
_cell_volume                      1581.39594847

loop_
_atom_site_label
_atom_site_type_symbol
_atom_site_description
_atom_site_fract_x
_atom_site_fract_y
_atom_site_fract_z
_atom_type_partial_charge
P1    P     P_3+3 0.593410 0.640600 0.698510 0.465532
O1    O     O_2   0.429050 0.611890 0.712090 -0.353597
O2    O     O_3   0.649820 0.584130 0.603850 -0.415040
O3    O     O_3   0.201480 0.401240 0.659120 -0.378992
O4    O     O_2   0.360011 0.515669 0.809623 -0.404967
O5    O     O_3   0.558382 0.786499 0.721914 -0.562526
O6    O     O_3   0.282409 0.320879 0.802285 -0.520640
H1    H     H_    0.276487 0.176869 0.696219 0.130282
C1    C     C_3   0.157711 0.162780 0.801183 -1.050293
H2    H     H_    0.089602 0.091353 0.759171 0.258017
H3    H     H_    0.274683 0.129989 0.831798 0.275214
P2    P     P_3+3 0.154920 0.233850 0.431950 0.472852
P3    P     P_3+3 0.654494 0.195794 0.613048 0.449468
O7    O     O_2   0.337150 0.224350 0.458110 -0.393418
O8    O     O_3   0.611620 0.334620 0.615460 -0.387927
O9    O     O_2   0.507086 0.132677 0.559997 -0.383258
O10   O     O_3   0.149199 0.176147 0.318073 -0.580985
O11   O     O_3   0.651711 0.189295 0.717773 -0.534749
C2    C     C_3   0.700485 0.289580 0.779104 0.506556
H4    H     H_    0.609681 0.362166 0.775207 0.156890
H5    H     H_    0.825363 0.304239 0.768851 0.010737
C3    C     C_3   0.706587 0.281870 0.870001 -1.005173
H6    H     H_    0.581331 0.271818 0.883478 0.294463
H7    H     H_    0.794032 0.208624 0.875957 0.248795
C4    C     C_3   0.582339 0.165007 0.321961 0.321234
H8    H     H_    0.647035 0.167893 0.386567 0.026208
C5    C     C_3   0.574816 0.043842 0.264082 0.086887
H9    H     H_    0.703601 0.000669 0.258733 0.113231
H10   H     H_    0.503697 0.002749 0.295378 0.076715
Ba1   Ba    Ba6+2 0.363950 0.459210 0.542370 1.546480
C6    C     C_3   0.498719 0.811366 0.645829 0.395837
H11   H     H_    0.380814 0.774971 0.619074 0.096025
C7    C     C_3   0.469579 0.938179 0.667638 -0.941948
H12   H     H_    0.370186 0.972391 0.712252 0.262032
H13   H     H_    0.431284 0.960814 0.607854 0.238973
H14   H     H_    0.585590 0.975963 0.699315 0.286303
C8    C     C_3   0.135021 0.262366 0.281328 0.461749
H15   H     H_    0.245777 0.307770 0.301135 -0.090006
H16   H     H_    0.029683 0.324796 0.303425 0.141217
C9    C     C_3   0.111230 0.214164 0.182528 0.047467
H17   H     H_    0.224648 0.158650 0.158515 0.136704
H18   H     H_    0.094693 0.285490 0.156455 0.020670
P4    P     P_3+3 0.596300 0.359310 0.301480 0.503643
O12   O     O_2   0.760640 0.388070 0.287860 -0.340807
O13   O     O_3   0.539890 0.415780 0.396140 -0.399171
O14   O     O_3   0.988230 0.598670 0.340870 -0.375759
O15   O     O_3   0.670037 0.217041 0.282155 -0.509621
P5    P     P_3+3 0.534482 0.799645 0.376056 0.426233
O16   O     O_3   0.122980 0.641570 0.544110 -0.394156
O17   O     O_3   0.578090 0.665290 0.384530 -0.394328
O18   O     O_2   0.685021 0.863307 0.424451 -0.388314
O19   O     O_3   0.538590 0.785864 0.266114 -0.565718
Ba2   Ba    Ba6+2 0.825880 0.540700 0.457630 1.555362
P6    P     P_3+3 0.217058 0.440964 0.772242 0.446808
C10   C     C_3   0.196263 0.231108 0.747386 0.480621
H19   H     H_    0.076949 0.257639 0.714648 0.025587
O20   O     O_3   0.066730 0.358340 0.455880 -0.395858
C11   C     C_3   0.018271 0.773150 0.722342 0.457998
H20   H     H_    0.892654 0.746691 0.697243 0.092515
H21   H     H_    0.112104 0.698044 0.710157 0.118989
C12   C     C_3   0.020441 0.831429 0.820062 -1.016873
H22   H     H_    0.926052 0.906198 0.834355 0.268388
H23   H     H_    0.991660 0.772930 0.851918 0.224246
H24   H     H_    0.145194 0.858590 0.847103 0.272850
P7    P     P_3+3 0.042660 0.783713 0.570678 0.415374
O21   O     O_2   0.852540 0.775600 0.541830 -0.381171
O22   O     O_3   0.056070 0.848406 0.683608 -0.582536
H25   H     H_    0.748691 0.359710 0.918892 0.221156
C13   C     C_3   0.491709 0.679372 0.214806 0.496943
H26   H     H_    0.576556 0.611596 0.231250 0.173332
H27   H     H_    0.362571 0.672778 0.224403 0.018901
C14   C     C_3   0.502158 0.659389 0.118665 -1.028217
H28   H     H_    0.394351 0.705956 0.092357 0.227370
H29   H     H_    0.619660 0.684858 0.108427 0.296297
P8    P     P_3+3 0.976247 0.563027 0.227906 0.440101
C15   C     C_3   0.993500 0.773908 0.255220 0.459255
H30   H     H_    0.115315 0.746891 0.285451 0.032942
O23   O     O_2   0.837876 0.484661 0.188355 -0.414059
O24   O     O_3   0.907892 0.684180 0.199559 -0.511104
H31   H     H_    0.914965 0.825331 0.308008 0.127033
H32   H     H_    0.113159 0.798518 0.154055 0.255333
C16   C     C_3   0.026282 0.846891 0.203717 -1.016486
H33   H     H_    0.082674 0.922526 0.248060 0.252073
H34   H     H_    0.908422 0.873947 0.170345 0.269683
C17   C     C_2   0.295587 0.469342 0.246006 -0.537872
C18   C     C_R   0.895899 0.539365 0.752394 -0.534268
C19   C     C_2   0.469279 0.345693 0.132851 -0.292342
C20   C     C_2   0.449223 0.396088 0.217912 0.276696
C21   C     C_2   0.177249 0.493235 0.188158 0.190116
C22   C     C_3   0.222089 0.470845 0.096944 -0.031751
C23   C     C_3   0.333849 0.360012 0.063747 0.032949
C24   C     C_2   0.082903 0.487165 0.031310 -0.137355
C25   C     C_2   0.115324 0.520777 0.966677 -0.128702
C26   C     C_R   0.829357 0.597543 0.925286 0.034484
C27   C     C_R   0.985654 0.542334 0.900447 -0.041798
C28   C     C_R   0.708780 0.625100 0.864567 -0.280714
C29   C     C_R   0.742486 0.595997 0.777790 0.324368
C30   C     C_R   0.018988 0.514590 0.813120 0.205189
H35   H     H_    0.590723 0.670296 0.885563 0.171374
H36   H     H_    0.273669 0.495338 0.314069 0.183313
H37   H     H_    0.921393 0.517898 0.685377 0.182276
H38   H     H_    0.958775 0.469288 0.034965 0.160064
H39   H     H_    0.242763 0.531292 0.961789 0.171432
C31   C     C_R   0.258822 0.810643 0.463726 -0.501208
C32   C     C_R   0.926802 0.194431 0.526428 -0.478849
C33   C     C_R   0.915221 0.025735 0.560294 -0.210470
C34   C     C_R   0.848239 0.133406 0.562879 0.210056
C35   C     C_R   0.069018 0.146787 0.482886 0.295434
C36   C     C_R   0.134294 0.033596 0.475217 -0.061855
C37   C     C_R   0.057082 0.973565 0.516148 -0.058743
C38   C     C_R   0.122197 0.862243 0.510836 0.269265
C39   C     C_R   0.339077 0.868993 0.425566 0.217816
C40   C     C_R   0.274916 0.978925 0.429518 -0.213882
H40   H     H_    0.852280 0.983627 0.591912 0.189077
H41   H     H_    0.337122 0.020821 0.397846 0.163684
H42   H     H_    0.307862 0.725541 0.460240 0.169160
H43   H     H_    0.874118 0.278962 0.530018 0.183752
O25   O     O_3   0.497347 0.042414 0.181362 -0.617322
C41   C     C_3   0.472845 0.931148 0.130261 0.328014
H44   H     H_    0.388001 0.897703 0.160681 0.142214
H45   H     H_    0.593944 0.877296 0.122031 0.123003
C42   C     C_3   0.391573 0.927994 0.040526 -0.961075
H46   H     H_    0.466873 0.966213 0.008934 0.269676
H47   H     H_    0.380631 0.839476 0.999088 0.226066
H48   H     H_    0.265256 0.974255 0.045879 0.259443
H49   H     H_    0.589519 0.778099 0.596484 0.139025
O26   O     O_3   0.972156 0.152641 0.156981 -0.545835
C43   C     C_3   0.923008 0.134670 0.067879 0.326276
H50   H     H_    0.029711 0.099713 0.027434 0.072100
H51   H     H_    0.866121 0.215042 0.057866 0.098841
C44   C     C_3   0.794285 0.051545 0.037116 -0.878701
H52   H     H_    0.686413 0.084681 0.076360 0.290553
H53   H     H_    0.751249 0.038966 0.967690 0.207691
H54   H     H_    0.848851 0.969475 0.044356 0.258469
H55   H     H_    0.079859 0.216876 0.853404 0.263135
H56   H     H_    0.500089 0.568604 0.081673 0.244383
H57   H     H_    0.578243 0.286852 0.112959 0.168698
H58   H     H_    0.455025 0.204067 0.329510 0.096781

loop_
_geom_bond_atom_site_label_1
_geom_bond_atom_site_label_2
_geom_bond_distance
_ccdc_geom_bond_type
C10   H19   1.111738 S    
C28   H35   1.081926 S    
C19   C23   1.511479 S    
C5    H10   1.108322 S    
Ba1   O13   2.817317 S    
C2    H4    1.109081 S    
C15   O24   1.409341 S    
O6    C10   1.408261 S    
C19   C20   1.346471 D    
C44   H54   1.110754 S    
C43   H50   1.113712 S    
C25   H39   1.086359 S    
H32   C16   1.111067 S    
C27   C30   1.410397 A    
C32   C34   1.392920 A    
O16   P7    1.755158 S    
P3    O11   1.752490 S    
C33   H40   1.078741 S    
P4    C20   1.834575 S    
C24   C25   1.340247 D    
C2    H5    1.108552 S    
O7    Ba1   2.864240 S    
O11   C2    1.404908 S    
C8    C9    1.523822 S    
C13   H26   1.107024 S    
C17   C20   1.474559 S    
C33   C34   1.385955 A    
C11   H21   1.111087 S    
Ba1   O20   2.884924 S    
C7    H14   1.110498 S    
C35   C36   1.428367 A    
C13   H27   1.107139 S    
P1    O1    1.506448 D    
C12   H23   1.109803 S    
C18   C29   1.390438 A    
O25   C41   1.408089 S    
C39   C40   1.401418 A    
O19   C13   1.409450 S    
C31   H42   1.082034 S    
O12   Ba2   2.840174 S    
P4    Ba2   3.376396 S    
P5    O18   1.548226 D    
P7    C38   1.848487 S    
P7    O22   1.751058 S    
P2    O10   1.759100 S    
C6    C7    1.518228 S    
C1    C10   1.520423 S    
P4    O15   1.754193 S    
C1    H2    1.110719 S    
C4    O15   1.392870 S    
C24   H38   1.085639 S    
P2    Ba1   3.395056 S    
C11   C12   1.521608 S    
P5    O17   1.741694 S    
O5    C6    1.398107 S    
O13   Ba2   2.896183 S    
C25   C27   1.477561 S    
C32   H43   1.082164 S    
C12   H22   1.110775 S    
C19   H57   1.083660 S    
H1    C10   1.110682 S    
O14   P8    1.746416 S    
C32   C35   1.396680 A    
C41   H45   1.112725 S    
Ba1   Ba2   4.563353 S    
O17   Ba2   2.779193 S    
P1    O5    1.750177 S    
O4    P6    1.544760 D    
C2    C3    1.522124 S    
C15   H30   1.111212 S    
C14   H29   1.108367 S    
P1    C29   1.834157 S    
C31   C39   1.394608 A    
Ba2   O20   2.804344 S    
C4    H8    1.110600 S    
C9    O26   1.412004 S    
C37   C38   1.414391 A    
P1    O2    1.575999 S    
O2    Ba1   2.895351 S    
P4    O12   1.506795 D    
C8    H15   1.098818 S    
C1    H3    1.110408 S    
C22   C24   1.498882 S    
C6    H11   1.102810 S    
C28   C29   1.400640 A    
C7    H12   1.107086 S    
O10   C8    1.404087 S    
C26   C28   1.398147 A    
Ba2   O21   2.864387 S    
P4    O13   1.575999 S    
C3    H25   1.109967 S    
P2    O20   1.580176 S    
C1    H55   1.109648 S    
C9    H17   1.108357 S    
P5    C39   1.853332 S    
Ba1   O16   2.804943 S    
P2    O7    1.491453 D    
P7    O21   1.569607 D    
C16   H34   1.109922 S    
P3    O8    1.736425 S    
C3    H7    1.110191 S    
C15   C16   1.521770 S    
O26   C43   1.412616 S    
C43   C44   1.518508 S    
C5    H9    1.112104 S    
C13   C14   1.523831 S    
O8    Ba1   2.778532 S    
P2    C35   1.853821 S    
C33   C37   1.407914 A    
C41   C42   1.521865 S    
C17   C21   1.337267 D    
O3    P6    1.743859 S    
C15   H31   1.110288 S    
C14   H28   1.108117 S    
C44   H53   1.110527 S    
C43   H51   1.113464 S    
C31   C38   1.395467 A    
C41   H44   1.112102 S    
C36   C40   1.417441 A    
C4    C5    1.517804 S    
C6    H49   1.105973 S    
O1    Ba1   2.839641 S    
C42   H48   1.108075 S    
C4    H58   1.087932 S    
C11   H20   1.109593 S    
C8    H16   1.090407 S    
C17   H36   1.084763 S    
C36   C37   1.427895 A    
C12   H24   1.110941 S    
O2    Ba2   2.817761 S    
C22   C23   1.532894 S    
P8    O24   1.749948 S    
O16   Ba2   2.884062 S    
O14   Ba2   2.813670 S    
C9    H18   1.111520 S    
P1    Ba1   3.375777 S    
C7    H13   1.107025 S    
C26   C27   1.403732 A    
C18   C30   1.396905 A    
P8    O23   1.546907 D    
C14   H56   1.109622 S    
P8    C21   1.837172 S    
C11   O22   1.403525 S    
P5    O19   1.758043 S    
C16   H33   1.111457 S    
P3    O9    1.544316 D    
P3    C34   1.830555 S    
C42   H46   1.109245 S    
C3    H6    1.110139 S    
P6    C30   1.834127 S    
C5    O25   1.413973 S    
O6    P6    1.748578 S    
C21   C22   1.512330 S    
C18   H37   1.081897 S    
C42   H47   1.110813 S    
O3    Ba1   2.814123 S    
C44   H52   1.108647 S    
C40   H41   1.073712 S    
