data_mof_unit_41595.cif
_audit_creation_date              2012-12-10T17:13:37-0500
_audit_creation_method            fapswitch 2.2
_symmetry_space_group_name_H-M    P1
_symmetry_Int_Tables_number       1
_space_group_crystal_system       triclinic
_cell_length_a                    10.877046
_cell_length_b                    13.07718
_cell_length_c                    11.869308
_cell_angle_alpha                 98.325125
_cell_angle_beta                  93.736408
_cell_angle_gamma                 94.296044
_cell_volume                      1660.86835554

loop_
_atom_site_label
_atom_site_type_symbol
_atom_type_description
_atom_site_fract_x
_atom_site_fract_y
_atom_site_fract_z
_atom_type_partial_charge
C1    C     C_R   0.505764 0.300439 0.480408 0.811282
C2    C     C_3   0.880580 0.517924 0.499372 -0.076827
C3    C     C_3   0.946890 0.565553 0.620981 -0.251533
C4    C     C_3   0.933434 0.578170 0.402567 0.294169
C5    C     C_R   0.511679 0.813096 0.534146 -0.069967
C6    C     C_R   0.512157 0.187562 0.472557 -0.171655
C7    C     C_R   0.447107 0.019756 0.363148 0.163522
C8    C     C_R   0.464252 0.125876 0.371799 -0.198423
C9    C     C_R   0.560829 0.140755 0.564335 -0.049172
C10   C     C_R   0.543837 0.031298 0.558772 0.016479
C11   C     C_R   0.487119 0.971236 0.455410 0.064041
C12   C     C_R   0.261404 0.504554 0.500536 0.803347
C13   C     C_R   0.473871 0.863399 0.444643 -0.200368
C14   C     C_R   0.559169 0.870695 0.637867 -0.172221
C15   C     C_R   0.577760 0.978048 0.651661 0.176693
C16   C     C_R   0.407695 0.379272 0.025568 -0.270008
C17   C     C_R   0.404460 0.399622 0.145658 0.127043
C18   C     C_R   0.534794 0.553987 0.152665 0.157345
C19   C     C_R   0.537934 0.539232 0.030853 -0.075273
C20   C     C_R   0.465068 0.454566 0.965874 -0.048063
C21   C     C_R   0.448367 0.453164 0.843809 0.338020
C22   C     C_R   0.625675 0.566808 0.853560 0.289836
C23   C     C_R   0.502887 0.700065 0.520682 0.872853
C24   C     C_R   0.616061 0.601718 0.969371 0.073727
C25   C     C_R   0.740520 0.509709 0.500246 0.850961
C26   C     C_3   0.060068 0.401839 0.484578 -0.425362
C27   C     C_3   0.918061 0.404394 0.475391 -0.453135
C28   C     C_3   0.090758 0.571421 0.618138 -0.241797
C29   C     C_3   0.075374 0.566837 0.400394 -0.027397
C30   C     C_3   0.125374 0.513636 0.501513 -0.084059
Cu1   Cu    Cu3+1 0.509350 0.507730 0.615930 1.049614
Cu2   Cu    Cu3+1 0.490650 0.492270 0.384070 1.039332
H1    H     H_    0.087986 0.361562 0.557303 0.217358
H2    H     H_    0.433745 0.817428 0.366660 0.208057
H3    H     H_    0.583327 0.831622 0.709546 0.181663
H4    H     H_    0.438406 0.160223 0.298338 0.241285
H5    H     H_    0.088500 0.354915 0.406143 0.214454
H6    H     H_    0.879486 0.365498 0.389630 0.220338
H7    H     H_    0.878319 0.357451 0.537404 0.217289
H8    H     H_    0.123687 0.525646 0.684848 0.180069
H9    H     H_    0.926928 0.504915 0.674626 0.161312
H10   H     H_    0.088049 0.510773 0.324106 0.215916
N1    N     N_R   0.523430 0.519360 0.790130 -0.226525
N2    N     N_R   0.476570 0.480640 0.209880 -0.257274
O1    O     O_R   0.506640 0.354460 0.582000 -0.544470
O2    O     O_R   0.490840 0.341410 0.386200 -0.586642
O3    O     O_R   0.325590 0.506510 0.597900 -0.564729
O4    O     O_R   0.309790 0.493450 0.402100 -0.563489
O5    O     O_R   0.509160 0.658590 0.613800 -0.561890
O6    O     O_R   0.493360 0.645540 0.418000 -0.575508
O7    O     O_R   0.690210 0.506550 0.597900 -0.572883
O8    O     O_R   0.674410 0.493490 0.402100 -0.551162
I1    I     I_    0.893256 0.740196 0.424551 -0.094335
C31   C     C_2   0.159170 0.678721 0.652572 0.919926
O9    O     O_2   0.244841 0.690964 0.726657 -0.539286
O10   O     O_R   0.123076 0.763810 0.604092 -0.714425
H11   H     H_    0.176314 0.830118 0.635273 0.357924
C32   C     C_2   0.899088 0.660709 0.689160 0.940797
O11   O     O_2   0.948880 0.694743 0.784007 -0.529600
O12   O     O_R   0.795005 0.705328 0.650181 -0.745273
H12   H     H_    0.775552 0.767490 0.705444 0.338402
I2    I     I_    0.348034 0.943653 0.209245 -0.144590
I3    I     I_    0.649761 0.040233 0.821812 -0.121783
C33   C     C_2   0.645485 0.204640 0.653918 0.899665
O13   O     O_2   0.604438 0.254156 0.736410 -0.509057
O14   O     O_R   0.772927 0.206389 0.644256 -0.759514
H13   H     H_    0.822290 0.251366 0.711176 0.353513
I4    I     I_    0.299357 0.354018 0.748002 -0.255004
I5    I     I_    0.779002 0.475660 0.848566 -0.232871
C34   C     C_2   0.373516 0.270561 0.970227 0.967448
O15   O     O_2   0.454276 0.218108 0.933320 -0.455582
O16   O     O_R   0.251319 0.226423 0.960024 -0.668683
H14   H     H_    0.190070 0.278587 0.983897 0.320283
I6    I     I_    0.755747 0.724316 0.035522 -0.124312
C35   C     C_2   0.299564 0.348404 0.194511 0.862072
O17   O     O_2   0.207086 0.394389 0.209070 -0.602455
O18   O     O_R   0.296188 0.243660 0.204793 -0.766754
H15   H     H_    0.216013 0.216965 0.233739 0.346854
C36   C     C_2   0.573211 0.657562 0.212739 0.912192
O19   O     O_2   0.658384 0.670693 0.285818 -0.542061
O20   O     O_R   0.518278 0.742410 0.178941 -0.737964
H16   H     H_    0.563689 0.810649 0.216283 0.347671
I7    I     I_    0.190102 0.693885 0.350707 -0.188773
I8    I     I_    0.858800 0.513623 0.228647 -0.200601

loop_
_geom_bond_atom_site_label_1
_geom_bond_atom_site_label_2
_ccdc_geom_bond_type
C29   H10   S    
C9    C33   S    
C19   C20   A    
C12   O4    A    
C1    O1    A    
C6    C9    A    
O20   H16   S    
C7    C8    A    
O18   H15   S    
C7    C11   A    
C26   C27   S    
Cu1   N1    S    
C3    C28   S    
C29   I7    S    
C10   C15   A    
C4    I1    S    
C1    O2    A    
C23   O5    A    
C28   H8    S    
C27   H6    S    
C32   O12   S    
O10   H11   S    
C18   C19   A    
C8    H4    S    
Cu2   O8    S    
C21   N1    A    
Cu1   Cu2   S    
C27   H7    S    
C16   C17   A    
C4    I8    S    
C34   O15   D    
C9    C10   A    
C22   I5    S    
C5    C13   A    
C4    C29   S    
O14   H13   S    
Cu1   O3    S    
Cu2   O4    S    
Cu1   O5    S    
C12   O3    A    
C31   O10   S    
C1    C6    S    
C16   C34   S    
C14   H3    S    
C36   O20   S    
C28   C31   S    
C18   C36   S    
C23   O6    A    
C6    C8    A    
C32   O11   D    
O12   H12   S    
C33   O14   S    
C2    C4    S    
C35   O17   D    
C25   O7    A    
C7    I2    S    
C29   C30   S    
C18   N2    A    
C26   H1    S    
C22   N1    A    
C5    C23   S    
C16   C20   A    
Cu2   N2    S    
C35   O18   S    
Cu2   O6    S    
C5    C14   A    
C2    C27   S    
C26   C30   S    
C21   I4    S    
C22   C24   A    
C31   O9    D    
C3    H9    S    
C12   C30   S    
Cu2   O2    S    
Cu1   O7    S    
O16   H14   S    
C26   H5    S    
C33   O13   D    
C28   C30   S    
C2    C3    S    
C17   N2    A    
C13   H2    S    
C11   C13   A    
C24   I6    S    
C19   C24   A    
C2    C25   S    
C25   O8    A    
C10   C11   A    
C36   O19   D    
C3    C32   S    
C20   C21   A    
Cu1   O1    S    
C17   C35   S    
C15   I3    S    
C14   C15   A    
C34   O16   S    
