data_mof_unit_47469.cif
_audit_creation_date              2012-12-10T17:18:58-0500
_audit_creation_method            fapswitch 2.2
_symmetry_space_group_name_H-M    P1
_symmetry_Int_Tables_number       1
_space_group_crystal_system       triclinic
_cell_length_a                    10.268518
_cell_length_b                    10.811951
_cell_length_c                    13.59034
_cell_angle_alpha                 93.074122
_cell_angle_beta                  100.502188
_cell_angle_gamma                 95.874487
_cell_volume                      1471.73379588

loop_
_atom_site_label
_atom_site_type_symbol
_atom_type_description
_atom_site_fract_x
_atom_site_fract_y
_atom_site_fract_z
_atom_type_partial_charge
C1    C     C_R   0.051621 0.731830 0.490901 0.930304
C2    C     C_R   0.945790 0.267543 0.503356 0.934214
C3    C     C_R   0.492596 0.640663 0.104837 -0.245525
C4    C     C_R   0.552745 0.467322 0.875828 -0.243225
C5    C     C_R   0.361633 0.664988 0.075674 -0.239714
C6    C     C_R   0.683844 0.443721 0.904613 -0.241843
C7    C     C_2   0.076861 0.862662 0.476876 -0.374339
C8    C     C_2   0.910962 0.134347 0.495986 -0.374740
C9    C     C_2   0.974412 0.930304 0.469213 -0.155578
C10   C     C_2   0.997130 0.062569 0.466782 -0.156838
C11   C     C_2   0.430250 0.520257 0.499854 0.344763
C12   C     C_2   0.569402 0.483335 0.495480 0.352829
C13   C     C_R   0.093053 0.512410 0.685861 0.852686
C14   C     C_R   0.907719 0.489666 0.314272 0.846830
C15   C     C_R   0.145491 0.531204 0.793181 -0.063059
C16   C     C_R   0.862714 0.491827 0.206558 -0.056370
C17   C     C_R   0.156033 0.642824 0.953525 -0.199707
C18   C     C_R   0.873684 0.429187 0.035506 -0.202126
C19   C     C_R   0.086135 0.603449 0.857299 -0.206026
C20   C     C_R   0.929908 0.438326 0.137234 -0.197165
C21   C     C_R   0.268897 0.491497 0.827737 -0.273395
C22   C     C_R   0.746842 0.545596 0.173594 -0.274834
C23   C     C_R   0.347598 0.542748 0.918126 0.090963
C24   C     C_R   0.684320 0.531543 0.072962 0.094661
C25   C     C_R   0.287955 0.616253 0.983217 0.170801
C26   C     C_R   0.748323 0.469708 0.003656 0.171219
C27   C     C_R   0.483939 0.524201 0.944384 0.069624
C28   C     C_R   0.554798 0.566929 0.041613 0.067957
H1    H     H_    0.318026 0.722737 0.125714 0.151204
H2    H     H_    0.732403 0.398770 0.850253 0.152574
H3    H     H_    0.702684 0.590849 0.229472 0.144069
H4    H     H_    0.303679 0.424372 0.780088 0.145471
H5    H     H_    0.022517 0.399514 0.161823 0.158832
H6    H     H_    0.988926 0.633409 0.831910 0.160823
H7    H     H_    0.109819 0.699364 0.002595 0.144914
H8    H     H_    0.924236 0.383986 0.982624 0.147120
H9    H     H_    0.543694 0.684812 0.176318 0.146675
H10   H     H_    0.508937 0.440686 0.798622 0.131608
H11   H     H_    0.090447 0.101357 0.447452 0.189258
H12   H     H_    0.873768 0.889571 0.471726 0.189888
H13   H     H_    0.817959 0.095075 0.515375 0.163042
H14   H     H_    0.177282 0.903868 0.474485 0.163019
H15   H     H_    0.667544 0.644174 0.560795 0.141321
H16   H     H_    0.334331 0.355069 0.442679 0.142645
N1    N     N_2   0.322180 0.446120 0.460900 -0.223173
N2    N     N_2   0.677820 0.553880 0.539100 -0.223766
O1    O     O_R   0.935190 0.693030 0.507870 -0.624973
O2    O     O_R   0.064810 0.306970 0.492130 -0.624873
O3    O     O_R   0.142080 0.658430 0.482770 -0.548008
O4    O     O_R   0.857920 0.341570 0.517230 -0.550319
O5    O     O_R   0.969700 0.527180 0.651960 -0.613480
O6    O     O_R   0.030300 0.472820 0.348040 -0.614285
O7    O     O_R   0.176600 0.492580 0.626860 -0.608524
O8    O     O_R   0.823400 0.507420 0.373140 -0.605379
Zn1   Zn    Zn3+2 0.861850 0.523100 0.516760 0.959623
Zn2   Zn    Zn3+2 0.138150 0.476900 0.483240 0.959522
O9    O     O_3   0.582481 0.369070 0.448746 -0.592669
C29   C     C_3   0.545456 0.371602 0.343203 0.131212
H17   H     H_    0.580387 0.461758 0.315922 0.144210
H18   H     H_    0.435898 0.356007 0.318018 0.102894
C30   C     C_3   0.603398 0.266993 0.292153 -0.773713
H19   H     H_    0.559971 0.175265 0.311659 0.238040
H20   H     H_    0.579678 0.271597 0.209448 0.202590
H21   H     H_    0.713203 0.275189 0.316646 0.255300
O10   O     O_3   0.416887 0.638309 0.539813 -0.594649
C31   C     C_3   0.446849 0.643400 0.646086 0.130542
H22   H     H_    0.555429 0.660541 0.675309 0.102258
H23   H     H_    0.410197 0.556020 0.675906 0.146120
C32   C     C_3   0.384746 0.750950 0.689267 -0.763364
H24   H     H_    0.274754 0.737034 0.666246 0.251421
H25   H     H_    0.410365 0.756552 0.772518 0.203299
H26   H     H_    0.423376 0.840171 0.662418 0.239314

loop_
_geom_bond_atom_site_label_1
_geom_bond_atom_site_label_2
_ccdc_geom_bond_type
N2    Zn1   S    
C11   O10   S    
C32   H26   S    
C31   H23   S    
C11   C12   S    
C23   C27   A    
C30   H21   S    
O3    Zn2   S    
C24   C28   A    
C9    C10   S    
C5    H1    S    
O4    Zn1   S    
C18   C26   A    
C16   C20   A    
C17   C25   A    
O7    Zn2   S    
C29   C30   S    
C13   C15   S    
C31   H22   S    
O1    Zn1   S    
C32   H25   S    
C13   O5    A    
C23   C25   A    
H16   N1    S    
C15   C19   A    
O9    C29   S    
C6    C26   A    
C1    O3    A    
C5    C25   A    
C12   O9    S    
C22   C24   A    
C4    C6    A    
C3    C28   A    
C14   O8    A    
C24   C26   A    
C13   O7    A    
C32   H24   S    
C21   C23   A    
C2    O4    A    
C30   H19   S    
C8    C10   D    
C21   H4    S    
C14   C16   S    
H15   N2    S    
C31   C32   S    
C11   N1    D    
C22   H3    S    
C20   H5    S    
C29   H18   S    
C17   C19   A    
C7    C9    D    
C15   C21   A    
C4    C27   A    
C8    H13   S    
C3    H9    S    
C18   C20   A    
C30   H20   S    
O10   C31   S    
C7    H14   S    
C2    C8    S    
C27   C28   A    
O2    Zn2   S    
O8    Zn1   S    
C1    O1    A    
C12   N2    D    
C16   C22   A    
C17   H7    S    
O5    Zn1   S    
C2    O2    A    
C29   H17   S    
C1    C7    S    
C18   H8    S    
C6    H2    S    
C9    H12   S    
C14   O6    A    
O6    Zn2   S    
N1    Zn2   S    
C4    H10   S    
C10   H11   S    
C3    C5    A    
C19   H6    S    
