data_mof_unit_47283.cif
_audit_creation_date              2013-03-05T15:52:05-0500
_audit_creation_method            fapswitch 2.2
_symmetry_space_group_name_H-M    P1
_symmetry_Int_Tables_number       1
_space_group_crystal_system       triclinic
_cell_length_a                    19.414454
_cell_length_b                    10.906814
_cell_length_c                    9.551428
_cell_angle_alpha                 89.290321
_cell_angle_beta                  88.919046
_cell_angle_gamma                 92.264619
_cell_volume                      2020.39953088

loop_
_atom_site_label
_atom_site_type_symbol
_atom_site_description
_atom_site_fract_x
_atom_site_fract_y
_atom_site_fract_z
_atom_type_partial_charge
O1    O     O_R   0.499990 0.319640 0.618810 -0.613249
O2    O     O_R   0.500000 0.319660 0.381240 -0.525409
C1    C     C_R   0.500019 0.261361 0.501968 0.835081
O3    O     O_R   0.400140 0.499970 0.618820 -0.548958
O4    O     O_R   0.400150 0.500000 0.381250 -0.540981
C2    C     C_R   0.367039 0.500099 0.501394 0.868924
Cu1   Cu    Cu3+1 0.500000 0.499990 0.640660 0.964048
Cu2   Cu    Cu3+1 0.500000 0.500010 0.359340 1.019637
O5    O     O_R   0.500000 0.680340 0.618760 -0.614417
O6    O     O_R   0.500010 0.680360 0.381190 -0.608000
O7    O     O_R   0.599850 0.500000 0.618750 -0.608688
O8    O     O_R   0.599860 0.500030 0.381180 -0.554093
C3    C     C_R   0.493704 0.736193 0.499758 0.804906
C4    C     C_R   0.632817 0.500792 0.498515 0.831099
C5    C     C_R   0.254079 0.529345 0.631505 0.227553
C6    C     C_R   0.182628 0.542917 0.632172 0.362532
C7    C     C_R   0.144992 0.520532 0.510221 -0.273557
C8    C     C_R   0.179556 0.490336 0.384890 0.212422
C9    C     C_R   0.251889 0.485780 0.381189 0.226447
C10   C     C_R   0.290223 0.504716 0.504822 -0.397140
N1    N     N_R   0.037584 0.589312 0.410156 -0.178580
N2    N     N_R   0.969244 0.592264 0.409439 -0.142062
C11   C     C_R   0.930389 0.535592 0.512476 0.445408
N3    N     N_R   0.962512 0.478913 0.618842 -0.196645
N4    N     N_R   0.030968 0.475861 0.619595 -0.135123
C12   C     C_R   0.069585 0.529345 0.513990 0.496676
C13   C     C_R   0.815028 0.531864 0.628120 -0.148233
H1    H     H_    0.839521 0.542556 0.728475 0.208751
C14   C     C_R   0.743479 0.521932 0.624044 -0.202107
H2    H     H_    0.714795 0.525997 0.722127 0.203861
C15   C     C_R   0.709418 0.507187 0.496353 -0.193829
C16   C     C_R   0.749392 0.502920 0.370337 0.283737
C17   C     C_R   0.821801 0.514955 0.375042 0.284826
C18   C     C_R   0.854700 0.529154 0.504589 -0.107087
C19   C     C_R   0.473830 0.107413 0.769643 -0.152926
H3    H     H_    0.495979 0.194716 0.798156 0.167916
C20   C     C_R   0.443304 0.040930 0.881604 -0.162067
H4    H     H_    0.438978 0.082390 0.983701 0.177959
C21   C     C_R   0.418177 0.921960 0.862405 -0.094806
H5    H     H_    0.392364 0.871585 0.947942 0.178233
C22   C     C_R   0.428537 0.866162 0.734289 -0.112540
H6    H     H_    0.407355 0.773910 0.723121 0.195096
C23   C     C_R   0.463966 0.929343 0.622389 0.073137
C24   C     C_R   0.478980 0.056741 0.633149 0.060012
C25   C     C_R   0.497724 0.125556 0.507407 -0.212776
C26   C     C_R   0.508657 0.062032 0.380714 0.419259
H7    H     H_    0.514488 0.888597 0.282627 0.173742
C27   C     C_R   0.503204 0.935076 0.379560 -0.250613
C28   C     C_R   0.484704 0.868354 0.500148 -0.163383
H8    H     H_    0.424421 0.357641 0.134492 0.188111
C29   C     C_R   0.589955 0.665222 0.139233 -0.190237
H9    H     H_    0.594302 0.668442 0.249101 0.221984
C30   C     C_R   0.634426 0.747617 0.065116 0.355367
C31   C     C_R   0.633556 0.747461 0.920074 -0.255424
H10   H     H_    0.667788 0.809236 0.859280 0.201762
C32   C     C_R   0.590031 0.665936 0.850521 -0.210226
H11   H     H_    0.595742 0.672675 0.740140 0.220008
C33   C     C_R   0.544104 0.581845 0.922475 0.215747
C34   C     C_R   0.544041 0.581788 0.072144 0.158234
N5    N     N_R   0.500660 0.501210 0.147910 -0.203289
C35   C     C_R   0.458297 0.421944 0.076764 0.051526
H12   H     H_    0.423697 0.359042 0.875293 0.170400
C36   C     C_R   0.458087 0.422398 0.928632 -0.020391
N6    N     N_R   0.500680 0.501290 0.852040 -0.206689
N7    N     N_R   0.288621 0.537964 0.762325 0.187415
O9    O     O_R   0.300398 0.644666 0.818176 -0.372303
O10   O     O_R   0.294781 0.439297 0.838143 -0.274898
N8    N     N_R   0.682145 0.828084 0.137348 0.130312
O11   O     O_R   0.687625 0.821061 0.272830 -0.383269
O12   O     O_R   0.721538 0.907793 0.067932 -0.327357
O13   O     O_3   0.149479 0.572192 0.756269 -0.493046
C37   C     C_3   0.139581 0.699928 0.756925 0.076750
H13   H     H_    0.099654 0.724632 0.680644 0.133973
H14   H     H_    0.188230 0.753948 0.731101 0.158897
C38   C     C_3   0.115050 0.736637 0.902033 -0.554140
H15   H     H_    0.155444 0.718804 0.979655 0.280317
H16   H     H_    0.104541 0.835978 0.902285 0.191297
H17   H     H_    0.067005 0.683346 0.932290 0.271541
N9    N     N_R   0.141171 0.458213 0.262371 0.179907
O14   O     O_R   0.157005 0.509449 0.141718 -0.249229
O15   O     O_R   0.092279 0.373127 0.269893 -0.268541
N10   N     N_R   0.285330 0.453414 0.252730 0.176253
O16   O     O_R   0.306876 0.539092 0.164608 -0.279878
O17   O     O_R   0.284914 0.339232 0.214951 -0.315539
N11   N     N_R   0.717951 0.477631 0.238590 0.140645
O18   O     O_R   0.686408 0.372018 0.220457 -0.383846
O19   O     O_R   0.733151 0.546854 0.129672 -0.303045
N12   N     N_R   0.861812 0.500947 0.249068 0.162272
O20   O     O_R   0.874258 0.594455 0.165234 -0.258036
O21   O     O_R   0.890665 0.397550 0.224360 -0.269307
O22   O     O_3   0.521344 0.123368 0.254533 -0.591270
C39   C     C_3   0.591980 0.117689 0.218580 0.097378
H18   H     H_    0.609617 0.022002 0.220004 0.176447
H19   H     H_    0.623387 0.172770 0.292988 0.196637
C40   C     C_3   0.604119 0.168588 0.070782 -0.636677
H20   H     H_    0.584427 0.262555 0.062036 0.252216
H21   H     H_    0.660132 0.171867 0.044602 0.257841
H22   H     H_    0.577277 0.108272 0.994799 0.209406

loop_
_geom_bond_atom_site_label_1
_geom_bond_atom_site_label_2
_geom_bond_distance
_ccdc_geom_bond_type
N1    C12   1.355242 A    
C13   C14   1.390333 A    
C22   H6    1.079118 S    
C40   H20   1.110668 S    
C4    C15   1.485787 S    
C38   H15   1.110387 S    
C40   H22   1.109084 S    
Cu1   Cu2   2.687005 S    
C21   C22   1.388189 A    
C30   C31   1.385798 A    
Cu1   O7    1.945861 S    
H12   C36   1.080698 S    
C7    C12   1.470716 S    
C19   C20   1.394107 A    
C17   N12   1.432893 S    
O3    Cu1   1.953820 S    
N11   O18   1.298108 A    
O4    C2    1.304743 A    
O7    C4    1.303907 A    
C5    C6    1.400763 A    
C5    N7    1.431576 S    
C32   H11   1.059371 S    
C8    C9    1.406934 A    
C35   C36   1.414907 A    
C30   N8    1.441998 S    
O5    C3    1.293041 A    
N8    O11   1.301967 A    
C9    C10   1.420576 A    
C8    N9    1.438751 S    
N7    O10   1.300361 A    
C11   N3    1.357229 A    
C9    N10   1.431906 S    
C34   N5    1.381365 A    
N1    N2    1.328588 A    
C14   C15   1.406245 A    
C22   C23   1.416647 A    
C6    O13   1.384886 S    
C37   C38   1.520530 S    
C7    C8    1.410213 A    
C26   C27   1.384741 A    
N11   O19   1.300285 A    
C13   C18   1.398086 A    
C33   N6    1.383030 A    
C5    C10   1.421118 A    
C31   C32   1.386528 A    
C29   H9    1.055280 S    
H7    C27   1.083939 S    
N3    N4    1.330916 A    
C37   H14   1.115210 S    
O22   C39   1.411329 S    
N9    O15   1.301358 A    
C23   C28   1.410848 A    
C26   O22   1.384388 S    
N4    C12   1.357252 A    
C25   C26   1.418495 A    
C1    C25   1.480347 S    
C39   C40   1.521275 S    
C36   N6    1.365546 A    
N5    C35   1.365686 A    
C29   C30   1.397884 A    
C19   H3    1.069687 S    
C23   C24   1.413826 A    
C20   H4    1.083200 S    
C15   C16   1.422034 A    
Cu2   O8    1.953818 S    
C11   C18   1.471755 S    
C39   H19   1.111657 S    
C17   C18   1.410588 A    
C19   C24   1.425629 A    
C38   H16   1.110456 S    
C3    C28   1.458891 S    
O3    C2    1.303140 A    
C27   C28   1.388582 A    
N12   O21   1.301075 A    
N7    O9    1.300068 A    
N10   O17   1.300627 A    
C29   C34   1.416036 A    
C21   H5    1.082672 S    
C24   C25   1.441449 A    
Cu1   O5    1.975557 S    
C31   H10   1.083140 S    
O1    Cu1   1.980646 S    
O2    Cu2   1.975557 S    
O8    C4    1.300905 A    
C37   H13   1.112323 S    
O6    C3    1.298505 A    
O4    Cu2   1.945865 S    
C40   H21   1.110316 S    
C2    C10   1.493938 S    
C16   C17   1.408338 A    
O2    C1    1.309914 A    
C33   C34   1.429522 A    
O13   C37   1.413950 S    
C20   C21   1.383686 A    
Cu2   N5    2.019134 S    
C6    C7    1.405462 A    
C16   N11   1.434025 S    
C39   H18   1.111157 S    
C32   C33   1.416047 A    
C38   H17   1.110953 S    
Cu1   N6    2.019495 S    
C14   H2    1.083069 S    
N9    O14   1.300739 A    
H8    C35   1.081078 S    
N12   O20   1.301044 A    
Cu2   O6    1.980646 S    
N10   O16   1.301152 A    
C13   H1    1.083555 S    
N8    O12   1.301687 A    
N2    C11   1.356370 A    
O1    C1    1.291162 A    
