data_mof_unit_43523.cif
_audit_creation_date              2012-12-11T15:54:46-0500
_audit_creation_method            fapswitch 2.2
_symmetry_space_group_name_H-M    P1
_symmetry_Int_Tables_number       1
_space_group_crystal_system       triclinic
_cell_length_a                    6.918997
_cell_length_b                    14.189732
_cell_length_c                    16.483995
_cell_angle_alpha                 90.29119
_cell_angle_beta                  89.896599
_cell_angle_gamma                 90.047118
_cell_volume                      1618.35334547

loop_
_atom_site_label
_atom_site_type_symbol
_atom_type_description
_atom_site_fract_x
_atom_site_fract_y
_atom_site_fract_z
_atom_type_partial_charge
O1    O     O_R   0.638180 0.333920 0.163320 -0.553064
O2    O     O_R   0.361820 0.666080 0.836680 -0.553659
O3    O     O_R   0.308470 0.344960 0.336080 -0.551226
O4    O     O_R   0.691530 0.655040 0.663920 -0.551260
O5    O     O_R   0.138140 0.166110 0.336680 -0.529390
O6    O     O_R   0.861860 0.833890 0.663320 -0.529240
C1    C     C_R   0.477328 0.367184 0.365111 0.675485
C2    C     C_R   0.522672 0.632812 0.634891 0.675043
O7    O     O_R   0.308460 0.344950 0.163930 -0.553886
O8    O     O_R   0.691540 0.655050 0.836070 -0.554021
O9    O     O_R   0.138140 0.166100 0.163310 -0.525865
O10   O     O_R   0.861860 0.833900 0.836690 -0.525813
C3    C     C_R   0.477528 0.367287 0.134928 0.659327
C4    C     C_R   0.522470 0.632706 0.865067 0.657595
O11   O     O_R   0.638180 0.333930 0.336700 -0.550262
O12   O     O_R   0.361820 0.666070 0.663300 -0.550331
O13   O     O_3   0.471670 0.191340 0.250000 -0.335572
O14   O     O_3   0.528330 0.808660 0.750000 -0.335098
V1    V     V_3+5 0.196830 0.260900 0.250000 1.474190
V2    V     V_3+5 0.803170 0.739100 0.750000 1.474595
O15   O     O_R   0.808420 0.155070 0.163920 -0.525500
O16   O     O_R   0.191580 0.844930 0.836080 -0.525906
C5    C     C_R   0.976799 0.136675 0.132217 0.814124
C6    C     C_R   0.023141 0.863728 0.867556 0.810073
O17   O     O_R   0.808420 0.155080 0.336070 -0.527612
O18   O     O_R   0.191580 0.844920 0.663930 -0.527393
C7    C     C_R   0.978854 0.120810 0.354510 0.862606
C8    C     C_R   0.021123 0.879177 0.645478 0.863933
V3    V     V_3+5 0.696830 0.239130 0.250000 1.521875
V4    V     V_3+5 0.303170 0.760870 0.750000 1.517481
O19   O     O_3   0.971850 0.308690 0.250010 -0.398050
O20   O     O_3   0.028150 0.691310 0.749990 -0.398485
H1    H     H_    0.028565 0.757507 0.293782 0.183384
H2    H     H_    0.968985 0.242198 0.706512 0.165224
C9    C     C_R   0.967355 0.199923 0.507973 -0.139506
C10   C     C_R   0.033486 0.800174 0.492114 -0.138987
C11   C     C_R   0.962704 0.248564 0.580024 -0.212897
C12   C     C_R   0.037456 0.751467 0.420132 -0.226839
C13   C     C_R   0.973826 0.200479 0.651502 -0.152377
C14   C     C_R   0.024577 0.799432 0.348676 -0.128084
C15   C     C_R   0.990111 0.102102 0.653084 0.434795
C16   C     C_R   0.007650 0.897819 0.346995 0.457649
C17   C     C_R   0.995530 0.047086 0.578592 -0.043448
C18   C     C_R   0.003637 0.952937 0.421447 -0.053898
C19   C     C_R   0.983845 0.099752 0.504232 0.024732
C20   C     C_R   0.016189 0.900314 0.495810 0.023531
C21   C     C_R   0.011681 0.945095 0.573509 -0.150510
C22   C     C_R   0.988122 0.054948 0.426516 -0.149774
H3    H     H_    0.957285 0.244329 0.455185 0.115311
H4    H     H_    0.044580 0.755805 0.544886 0.116858
H5    H     H_    0.950105 0.324684 0.580374 0.137465
H6    H     H_    0.050596 0.675367 0.419815 0.140103
C23   C     C_R   0.179440 0.976890 0.966174 -0.125216
C24   C     C_R   0.820280 0.024778 0.032660 -0.082702
H7    H     H_    0.320187 0.959923 0.941311 0.137597
H8    H     H_    0.679537 0.041673 0.057567 0.128576
C25   C     C_R   0.167577 0.043528 0.028997 -0.145848
C26   C     C_R   0.832134 0.958231 0.969777 -0.082087
H9    H     H_    0.299917 0.075399 0.050908 0.132239
H10   H     H_    0.699786 0.926352 0.947881 0.118566
C27   C     C_R   0.987911 0.068078 0.063446 -0.025168
C28   C     C_R   0.011881 0.933251 0.935658 -0.006607
C29   C     C_R   0.320137 0.475292 0.467548 -0.156593
C30   C     C_R   0.679862 0.524696 0.532461 -0.156361
H11   H     H_    0.179109 0.457311 0.443641 0.109158
H12   H     H_    0.820890 0.542676 0.556368 0.108826
C31   C     C_R   0.331532 0.538991 0.532571 -0.151180
C32   C     C_R   0.668466 0.460996 0.467439 -0.149742
H13   H     H_    0.198635 0.568324 0.556534 0.109070
H14   H     H_    0.801363 0.431660 0.443477 0.108974
C33   C     C_R   0.511542 0.564530 0.566024 -0.032590
C34   C     C_R   0.488457 0.435461 0.433983 -0.032245
C35   C     C_R   0.320408 0.475020 0.032491 -0.146104
C36   C     C_R   0.679588 0.524958 0.967493 -0.143186
H15   H     H_    0.179406 0.456907 0.056382 0.113576
H16   H     H_    0.820590 0.543070 0.943602 0.112160
C37   C     C_R   0.331527 0.538416 0.967496 -0.144071
C38   C     C_R   0.668468 0.461563 0.032489 -0.138035
H17   H     H_    0.198520 0.567211 0.943628 0.112724
H18   H     H_    0.801476 0.432767 0.056356 0.112565
C39   C     C_R   0.511291 0.564384 0.933916 -0.042374
C40   C     C_R   0.488705 0.435599 0.066072 -0.042298
S1    S     S_3+6 0.000531 0.057716 0.751715 -0.061148
O21   O     O_2   0.828842 0.994775 0.763399 -0.342151
O22   O     O_2   0.187444 0.005489 0.761017 -0.374602
O23   O     O_3   0.990813 0.142933 0.823152 -0.510418
H19   H     H_    0.126251 0.163844 0.830762 0.339845
S2    S     S_3+6 0.994588 0.941789 0.248248 -0.067125
O24   O     O_2   0.808274 0.994526 0.239474 -0.351472
O25   O     O_2   0.167549 0.003827 0.235667 -0.376025
O26   O     O_3   0.998211 0.855045 0.178013 -0.521803
H20   H     H_    0.075633 0.879799 0.132276 0.355847

loop_
_geom_bond_atom_site_label_1
_geom_bond_atom_site_label_2
_ccdc_geom_bond_type
C7    C22   S    
C26   C28   A    
V4    O20   S    
C29   H11   S    
C8    C21   S    
O13   V3    S    
O4    C2    A    
V1    O19   S    
C13   C15   A    
O9    V1    S    
C36   H16   S    
C30   C32   A    
C9    C11   A    
O3    C1    A    
C24   C26   A    
C11   H5    S    
C38   H18   S    
C25   H9    S    
C12   H6    S    
C26   H10   S    
C15   S1    S    
C30   C33   A    
O7    C3    A    
O5    C7    A    
O7    V1    S    
O6    C8    A    
O8    V2    S    
C9    H3    S    
O3    V1    S    
O14   V4    S    
C31   C33   A    
C37   H17   S    
C2    O12   A    
V3    O19   S    
C15   C17   A    
C16   C18   A    
C18   C20   A    
O11   V3    S    
C24   H8    S    
C23   H7    S    
O17   V3    S    
C29   C31   A    
H1    C14   S    
H2    C13   S    
O8    C4    A    
O26   H20   S    
C23   C25   A    
O23   H19   S    
C1    O11   A    
O15   V3    S    
C3    C40   S    
C31   H13   S    
C30   H12   S    
C23   C28   A    
C38   C40   A    
S1    O21   D    
S2    O26   S    
C37   C39   A    
C32   C34   A    
O10   V2    S    
O1    V3    S    
C29   C34   A    
C10   C20   A    
C17   C19   A    
S1    O22   D    
S2    O25   D    
O18   V4    S    
O15   C5    A    
O16   C6    A    
O1    C3    A    
C35   H15   S    
C36   C39   A    
C9    C19   A    
C35   C40   A    
C1    C34   S    
C10   H4    S    
V2    O20   S    
C19   C22   A    
C20   C21   A    
C2    C33   S    
C6    C28   S    
O16   V4    S    
C14   C16   A    
C25   C27   A    
O5    V1    S    
C24   C27   A    
O17   C7    A    
O6    V2    S    
O10   C6    A    
O18   C8    A    
O2    V4    S    
C10   C12   A    
C11   C13   A    
C12   C14   A    
C17   C21   A    
O9    C5    A    
O13   V1    S    
O14   V2    S    
O2    C4    A    
O4    V2    S    
C5    C27   S    
S1    O23   S    
C16   S2    S    
S2    O24   D    
C32   H14   S    
C36   C38   A    
C35   C37   A    
C4    C39   S    
O12   V4    S    
C18   C22   A    
