data_mof_unit_58804.cif
_audit_creation_date              2012-12-11T14:17:47-0500
_audit_creation_method            fapswitch 2.2
_symmetry_space_group_name_H-M    P1
_symmetry_Int_Tables_number       1
_space_group_crystal_system       triclinic
_cell_length_a                    11.109476
_cell_length_b                    11.087155
_cell_length_c                    18.895226
_cell_angle_alpha                 89.998668
_cell_angle_beta                  90.022687
_cell_angle_gamma                 120.230218
_cell_volume                      2010.8709625

loop_
_atom_site_label
_atom_site_type_symbol
_atom_type_description
_atom_site_fract_x
_atom_site_fract_y
_atom_site_fract_z
_atom_type_partial_charge
C1    C     C_R   0.518391 0.455173 0.146853 0.572210
C2    C     C_R   0.544900 0.063258 0.146910 0.563530
C3    C     C_R   0.936813 0.481882 0.146908 0.570894
C4    C     C_R   0.456230 0.524171 0.854166 0.591977
C5    C     C_R   0.068164 0.543810 0.854197 0.591822
C6    C     C_R   0.475698 0.931509 0.854231 0.593282
C7    C     C_R   0.391789 0.942846 0.456419 -0.160738
C8    C     C_R   0.991215 0.412603 0.463091 -0.135557
C9    C     C_R   0.561368 0.579023 0.459351 -0.145915
C10   C     C_R   0.030267 0.428485 0.533435 -0.149415
C11   C     C_R   0.378839 0.924911 0.529340 -0.137545
C12   C     C_R   0.548609 0.601979 0.530081 -0.141336
C13   C     C_R   0.753571 0.109814 0.584314 -0.079011
C14   C     C_R   0.865777 0.627233 0.601836 -0.081682
C15   C     C_R   0.372780 0.238007 0.601020 -0.083911
C16   C     C_R   0.873950 0.675876 0.457889 -0.113049
C17   C     C_R   0.765881 0.041382 0.444593 -0.093504
C18   C     C_R   0.324042 0.193045 0.457297 -0.099582
C19   C     C_R   0.875693 0.121376 0.558255 -0.121340
C20   C     C_R   0.849949 0.736138 0.577466 -0.111977
C21   C     C_R   0.264494 0.111233 0.577254 -0.113736
C22   C     C_R   0.859904 0.763462 0.505607 -0.156102
C23   C     C_R   0.881912 0.087284 0.488360 -0.158697
C24   C     C_R   0.235871 0.091402 0.505446 -0.151282
C25   C     C_R   0.540717 0.423409 0.361838 0.537046
C26   C     C_R   0.545721 0.061141 0.353856 0.526640
C27   C     C_R   0.880543 0.457635 0.361749 0.540509
C28   C     C_R   0.457564 0.517490 0.647494 0.535910
C29   C     C_R   0.058965 0.541361 0.647768 0.536402
C30   C     C_R   0.480442 0.936402 0.645923 0.534714
C31   C     C_R   0.485191 0.984520 0.926054 0.016311
C32   C     C_R   0.015099 0.500165 0.926035 0.017059
C33   C     C_R   0.500125 0.514704 0.925897 0.017385
C34   C     C_R   0.984974 0.505181 0.073048 0.017002
C35   C     C_R   0.519818 0.014953 0.073055 0.018406
C36   C     C_R   0.495667 0.480088 0.072917 0.017038
C37   C     C_R   0.366298 0.939764 0.970964 -0.023415
C38   C     C_R   0.060034 0.426615 0.971150 -0.023124
C39   C     C_R   0.574894 0.633864 0.970829 -0.022823
C40   C     C_R   0.058702 0.443549 0.045446 -0.021117
C41   C     C_R   0.384184 0.941179 0.045288 -0.021126
C42   C     C_R   0.558384 0.615963 0.045148 -0.020902
C43   C     C_R   0.634976 0.082819 0.026118 0.071210
C44   C     C_R   0.916878 0.551640 0.025961 0.069902
C45   C     C_R   0.448030 0.364726 0.025970 0.069320
C46   C     C_R   0.932884 0.549569 0.952979 0.067337
C47   C     C_R   0.617109 0.066734 0.953146 0.066931
C48   C     C_R   0.449811 0.382558 0.952972 0.066986
C49   C     C_R   0.234541 0.911615 0.945583 -0.093339
C50   C     C_R   0.088395 0.323035 0.945985 -0.093933
C51   C     C_R   0.678909 0.766062 0.945428 -0.093481
C52   C     C_R   0.111972 0.379929 0.090466 -0.087657
C53   C     C_R   0.266890 0.888106 0.090140 -0.086817
C54   C     C_R   0.623097 0.733591 0.089999 -0.087658
C55   C     C_R   0.125663 0.880962 0.992219 -0.139684
C56   C     C_R   0.119364 0.245307 0.992799 -0.138981
C57   C     C_R   0.757464 0.875434 0.992055 -0.139186
C58   C     C_R   0.136941 0.277558 0.064424 -0.112796
C59   C     C_R   0.139841 0.863515 0.063901 -0.112216
C60   C     C_R   0.725837 0.861168 0.063738 -0.112626
C61   C     C_R   0.497524 0.985754 0.573199 0.000940
C62   C     C_R   0.986518 0.496069 0.580442 -0.005142
C63   C     C_R   0.496504 0.491507 0.578480 0.005153
C64   C     C_R   0.923674 0.480042 0.436167 0.005058
C65   C     C_R   0.522977 0.003045 0.425893 0.003828
C66   C     C_R   0.511332 0.443753 0.434791 0.010932
C67   C     C_R   0.631015 0.048684 0.542611 0.021540
C68   C     C_R   0.911603 0.558542 0.555311 0.025027
C69   C     C_R   0.438210 0.352893 0.554116 0.022682
C70   C     C_R   0.899522 0.569249 0.481651 0.020774
C71   C     C_R   0.640638 0.032060 0.469672 0.038602
C72   C     C_R   0.427620 0.328330 0.480675 0.024242
Cr1   Cr    Cr6+3 0.768550 0.541320 0.250660 0.998756
Cr2   Cr    Cr6+3 0.458680 0.227230 0.250660 1.000372
Cr3   Cr    Cr6+3 0.772770 0.231450 0.250660 1.007319
Cr4   Cr    Cr6+3 0.541320 0.768550 0.749340 1.001709
Cr5   Cr    Cr6+3 0.227230 0.458680 0.749340 1.002885
Cr6   Cr    Cr6+3 0.231450 0.772770 0.749340 0.999439
H1    H     H_    0.216893 0.928924 0.891455 0.154732
H2    H     H_    0.071084 0.287666 0.891898 0.154413
H3    H     H_    0.713744 0.783736 0.891267 0.153567
H4    H     H_    0.123434 0.400152 0.146804 0.123037
H5    H     H_    0.275238 0.876596 0.146501 0.120335
H6    H     H_    0.603293 0.725220 0.146361 0.120875
H7    H     H_    0.030650 0.873148 0.972780 0.092768
H8    H     H_    0.127260 0.157942 0.973548 0.092709
H9    H     H_    0.844947 0.970889 0.972614 0.092333
H10   H     H_    0.164323 0.219257 0.100397 0.142142
H11   H     H_    0.054035 0.836441 0.099756 0.141763
H12   H     H_    0.784826 0.947312 0.099598 0.140668
H13   H     H_    0.299950 0.909312 0.423942 0.123202
H14   H     H_    0.021981 0.354610 0.428770 0.147971
H15   H     H_    0.609400 0.667460 0.423668 0.128584
H16   H     H_    0.098613 0.390925 0.550611 0.146887
H17   H     H_    0.275157 0.864740 0.551512 0.153178
H18   H     H_    0.580144 0.707299 0.546963 0.147474
H19   H     H_    0.752867 0.139884 0.638776 0.131009
H20   H     H_    0.853956 0.605277 0.658058 0.131505
H21   H     H_    0.395009 0.249426 0.657205 0.132279
H22   H     H_    0.867489 0.700236 0.403703 0.161622
H23   H     H_    0.774281 0.004617 0.392956 0.138476
H24   H     H_    0.299976 0.162225 0.403014 0.163764
H25   H     H_    0.965597 0.156799 0.592369 0.121195
H26   H     H_    0.826697 0.797052 0.613885 0.126239
H27   H     H_    0.203911 0.027844 0.614326 0.124540
H28   H     H_    0.842039 0.843538 0.485726 0.114854
H29   H     H_    0.976536 0.094797 0.468045 0.109011
H30   H     H_    0.151754 0.992398 0.486594 0.112080
O1    O     O_R   0.910960 0.572410 0.171010 -0.485045
O2    O     O_R   0.427590 0.338550 0.171010 -0.483514
O3    O     O_R   0.661450 0.089040 0.171010 -0.488274
O4    O     O_R   0.572410 0.910960 0.828990 -0.488310
O5    O     O_R   0.338550 0.427590 0.828990 -0.490823
O6    O     O_R   0.089040 0.661450 0.828990 -0.490628
O7    O     O_R   0.639750 0.528530 0.175600 -0.486117
O8    O     O_R   0.471470 0.111220 0.175600 -0.488816
O9    O     O_R   0.888780 0.360250 0.175600 -0.484638
O10   O     O_R   0.528530 0.639750 0.824400 -0.535248
O11   O     O_R   0.111220 0.471470 0.824400 -0.534945
O12   O     O_R   0.360250 0.888780 0.824400 -0.534493
O13   O     O_R   0.909330 0.572400 0.331540 -0.547868
O14   O     O_R   0.427600 0.336930 0.331540 -0.538128
O15   O     O_R   0.663070 0.090670 0.331540 -0.544098
O16   O     O_R   0.572400 0.909330 0.668460 -0.526520
O17   O     O_R   0.336930 0.427600 0.668460 -0.526262
O18   O     O_R   0.090670 0.663070 0.668460 -0.528555
O19   O     O_R   0.638240 0.528520 0.324410 -0.528990
O20   O     O_R   0.471480 0.109720 0.324410 -0.527361
O21   O     O_R   0.890280 0.361760 0.324410 -0.503919
O22   O     O_R   0.528520 0.638240 0.675590 -0.509923
O23   O     O_R   0.109720 0.471480 0.675590 -0.507774
O24   O     O_R   0.361760 0.890280 0.675590 -0.509664
O25   O     O_3   0.666667 0.333333 0.250630 -0.275209
O26   O     O_3   0.333333 0.666667 0.749370 -0.257333
N1    N     N_3   0.768116 0.183797 0.052346 -0.572925
H31   H     H_    0.842379 0.159897 0.034565 0.234764
H32   H     H_    0.786972 0.277688 0.030809 0.225915
N2    N     N_3   0.816069 0.583407 0.052098 -0.574401
H33   H     H_    0.839979 0.681848 0.034206 0.235103
H34   H     H_    0.722158 0.507687 0.030694 0.226055
N3    N     N_3   0.415264 0.231506 0.052246 -0.573828
H35   H     H_    0.316576 0.156951 0.034574 0.235120
H36   H     H_    0.490031 0.212629 0.030720 0.226328
N4    N     N_3   0.854140 0.583385 0.904642 -0.623931
H37   H     H_    0.748250 0.512089 0.911334 0.225329
H38   H     H_    0.873529 0.684075 0.914196 0.227553
N5    N     N_3   0.730259 0.145715 0.904927 -0.622419
H39   H     H_    0.765260 0.251747 0.911461 0.225523
H40   H     H_    0.811433 0.126704 0.914668 0.227602
N6    N     N_3   0.414642 0.269160 0.904733 -0.624000
H41   H     H_    0.485035 0.233868 0.911350 0.225418
H42   H     H_    0.313860 0.187949 0.914431 0.227350

loop_
_geom_bond_atom_site_label_1
_geom_bond_atom_site_label_2
_ccdc_geom_bond_type
C2    C35   S    
C39   C51   A    
C55   C59   A    
C5    O6    A    
Cr6   O12   S    
N5    H39   S    
Cr3   O9    S    
C54   H6    S    
C53   C59   A    
N1    H31   S    
C54   C60   A    
C7    C11   A    
C17   C23   A    
C5    O11   A    
C37   C41   A    
C34   C40   A    
N5    H40   S    
C48   N6    S    
N3    H36   S    
C18   H24   S    
C10   H16   S    
Cr2   O25   S    
Cr5   O23   S    
C17   H23   S    
C9    C66   A    
Cr6   O24   S    
C3    O9    A    
C4    C33   S    
C19   H25   S    
C66   C72   A    
C63   C69   A    
C65   C71   A    
C16   C22   A    
C51   C57   A    
C64   C70   A    
C35   C43   A    
C25   O14   A    
C51   H3    S    
C28   O22   A    
C5    C32   S    
C6    C31   S    
C23   H29   S    
C31   C47   A    
C29   O18   A    
C33   C48   A    
C45   N3    S    
C4    O10   A    
C10   C62   A    
C32   C46   A    
Cr5   O5    S    
C6    O12   A    
C44   C46   A    
C14   H20   S    
C39   C42   A    
C31   C37   A    
C18   C72   A    
C24   H30   S    
C15   C69   A    
C47   N5    S    
C2    O3    A    
C38   C50   A    
C13   C19   A    
Cr4   O16   S    
C14   C20   A    
C4    O5    A    
C16   C70   A    
C18   C24   A    
N4    H38   S    
C27   C64   S    
C15   H21   S    
C12   C63   A    
Cr4   O26   S    
C16   H22   S    
C57   C60   A    
C46   N4    S    
C3    C34   S    
C11   C61   A    
C40   C52   A    
Cr4   O10   S    
C49   H1    S    
C50   H2    S    
C59   H11   S    
C55   H7    S    
C69   C72   A    
C19   C23   A    
C43   N1    S    
N6    H42   S    
C1    O2    A    
C7    C65   A    
C37   C49   A    
C61   C67   A    
C56   H8    S    
Cr4   O4    S    
Cr2   O8    S    
C34   C44   A    
C36   C45   A    
C33   C39   A    
C26   O20   A    
C52   H4    S    
Cr6   O26   S    
C41   C53   A    
C52   C58   A    
C8    C64   A    
C8    H14   S    
C22   H28   S    
Cr2   O14   S    
Cr1   O25   S    
C17   C71   A    
C32   C38   A    
C27   O21   A    
Cr3   O15   S    
C21   C24   A    
C26   O15   A    
C20   C22   A    
Cr6   O18   S    
C9    H15   S    
C7    H13   S    
Cr2   O20   S    
Cr5   O17   S    
C28   O17   A    
C20   H26   S    
C13   C67   A    
C45   C48   A    
C11   H17   S    
N1    H32   S    
C29   C62   S    
Cr6   O6    S    
C44   N2    S    
C26   C65   S    
C6    O4    A    
C25   C66   S    
C30   O16   A    
N4    H37   S    
Cr5   O11   S    
C49   C55   A    
C58   H10   S    
C36   C42   A    
Cr2   O2    S    
C2    O8    A    
Cr3   O25   S    
Cr1   O1    S    
N2    H34   S    
C60   H12   S    
Cr3   O3    S    
Cr1   O7    S    
C62   C68   A    
C53   H5    S    
C25   O19   A    
Cr1   O19   S    
N3    H35   S    
C42   C54   A    
C38   C40   A    
C29   O23   A    
C3    O1    A    
C30   O24   A    
C56   C58   A    
C67   C71   A    
C13   H19   S    
C35   C41   A    
C9    C12   A    
C50   C56   A    
N2    H33   S    
C28   C63   S    
C57   H9    S    
C15   C21   A    
C8    C10   A    
Cr5   O26   S    
C30   C61   S    
C27   O13   A    
C68   C70   A    
C14   C68   A    
N6    H41   S    
C12   H18   S    
C1    O7    A    
C43   C47   A    
C21   H27   S    
Cr4   O22   S    
Cr3   O21   S    
C1    C36   S    
Cr1   O13   S    
