data_mof_unit_58738.cif
_audit_creation_date              2013-03-05T16:09:50-0500
_audit_creation_method            fapswitch 2.2
_symmetry_space_group_name_H-M    P1
_symmetry_Int_Tables_number       1
_space_group_crystal_system       triclinic
_cell_length_a                    6.954
_cell_length_b                    13.377281
_cell_length_c                    14.691069
_cell_angle_alpha                 98.974154
_cell_angle_beta                  90.03308
_cell_angle_gamma                 90.083277
_cell_volume                      1349.91443947

loop_
_atom_site_label
_atom_site_type_symbol
_atom_site_description
_atom_site_fract_x
_atom_site_fract_y
_atom_site_fract_z
_atom_type_partial_charge
O1    O     O_R   0.354890 0.151580 0.148210 -0.566531
O2    O     O_R   0.645110 0.848420 0.851790 -0.574555
O3    O     O_R   0.682370 0.152980 0.336770 -0.599319
O4    O     O_R   0.317630 0.847020 0.663230 -0.563086
O5    O     O_R   0.854980 0.348430 0.351800 -0.594066
O6    O     O_R   0.145020 0.651570 0.648200 -0.591223
C1    C     C_R   0.513826 0.130760 0.365794 0.934957
C2    C     C_R   0.486214 0.869161 0.634055 0.925090
O7    O     O_R   0.684450 0.139580 0.148000 -0.589712
O8    O     O_R   0.315550 0.860420 0.852000 -0.595451
O9    O     O_R   0.857080 0.334940 0.161680 -0.598885
O10   O     O_R   0.142920 0.665060 0.838320 -0.602860
C3    C     C_R   0.515493 0.112692 0.114066 1.021597
C4    C     C_R   0.484506 0.887304 0.885937 1.003971
O11   O     O_R   0.352790 0.165070 0.338330 -0.616638
O12   O     O_R   0.647210 0.834930 0.661670 -0.573572
O13   O     O_3   0.522170 0.314120 0.254710 -0.273630
O14   O     O_3   0.477830 0.685880 0.745290 -0.284641
V1    V     V_3+5 0.796120 0.238110 0.249130 1.205386
V2    V     V_3+5 0.203880 0.761890 0.750870 1.236818
O15   O     O_R   0.186930 0.347040 0.163240 -0.579326
O16   O     O_R   0.813070 0.652960 0.836760 -0.584089
C5    C     C_R   0.018143 0.368009 0.133312 1.042673
C6    C     C_R   0.981856 0.632010 0.866704 1.027358
O17   O     O_R   0.184850 0.360440 0.352010 -0.597555
O18   O     O_R   0.815150 0.639560 0.647990 -0.598057
C7    C     C_R   0.015897 0.387298 0.385947 0.965562
C8    C     C_R   0.984101 0.612717 0.614043 1.001205
V3    V     V_3+5 0.296410 0.261900 0.250880 1.212905
V4    V     V_3+5 0.703590 0.738100 0.749120 1.232509
O19   O     O_3   0.020490 0.185890 0.245290 -0.275266
O20   O     O_3   0.979510 0.814110 0.754710 -0.249841
C9    C     C_1   0.005223 0.466909 0.466327 -0.223894
C10   C     C_1   0.994775 0.533113 0.533658 -0.234377
C11   C     C_3   0.180241 0.527436 0.979326 -0.214809
C12   C     C_3   0.819759 0.472609 0.020711 -0.214608
C13   C     C_3   0.087724 0.547026 0.077280 -0.252427
C14   C     C_3   0.912279 0.453017 0.922757 -0.265673
H1    H     H_    0.156971 0.586664 0.140969 0.177949
H2    H     H_    0.843029 0.413380 0.859069 0.166835
H3    H     H_    0.329022 0.547993 0.961862 0.170404
H4    H     H_    0.670979 0.452053 0.038175 0.170754
C15   C     C_3   0.008230 0.437520 0.062504 -0.277286
C16   C     C_3   0.991771 0.562522 0.937531 -0.267060
C17   C     C_3   0.098226 0.419177 0.966077 0.445278
C18   C     C_3   0.901778 0.580869 0.033959 0.441200
C19   C     C_3   0.329851 0.000216 0.459298 0.024240
C20   C     C_3   0.670605 0.999480 0.539964 0.041097
C21   C     C_3   0.455537 0.905222 0.459630 -0.074954
C22   C     C_3   0.545043 0.094536 0.539904 -0.262185
H5    H     H_    0.417744 0.827112 0.427084 0.150951
H6    H     H_    0.583542 0.172501 0.572564 0.139260
C23   C     C_3   0.494273 0.939373 0.563445 -0.138542
C24   C     C_3   0.505984 0.060461 0.436180 -0.195113
C25   C     C_3   0.365909 0.033714 0.563446 -0.146815
C26   C     C_3   0.634002 0.966163 0.435940 -0.133325
H7    H     H_    0.258325 0.062432 0.616732 0.143821
H8    H     H_    0.739613 0.937571 0.381906 0.190233
C27   C     C_1   0.504893 0.033101 0.033679 -0.167744
C28   C     C_1   0.495105 0.966891 0.966328 -0.168192
N1    N     N_R   0.207904 0.330562 0.925565 0.223889
O21   O     O_R   0.281194 0.326783 0.843688 -0.423800
O22   O     O_R   0.229591 0.254138 0.969470 -0.428905
N2    N     N_R   0.792123 0.669492 0.074473 0.229777
O23   O     O_R   0.718925 0.673302 0.156373 -0.393330
O24   O     O_R   0.770424 0.745908 0.030560 -0.417668
C29   C     C_2   0.142406 0.999478 0.409565 0.583287
H9    H     H_    0.050472 0.065696 0.420382 -0.019065
O25   O     O_2   0.094198 0.925019 0.355458 -0.575505
C30   C     C_2   0.860925 0.000502 0.587056 0.459262
H10   H     H_    0.910626 0.068868 0.630166 -0.007974
O26   O     O_2   0.958657 0.923976 0.578702 -0.556712

loop_
_geom_bond_atom_site_label_1
_geom_bond_atom_site_label_2
_geom_bond_distance
_ccdc_geom_bond_type
C14   H2    1.110154 S    
O13   V3    1.714730 S    
C12   H4    1.110573 S    
O4    C2    1.298065 A    
V1    O19   1.707801 S    
C19   C21   1.544001 S    
C7    C9    1.463605 S    
O9    V1    2.006570 S    
C22   C24   1.544677 S    
C11   C13   1.561216 S    
O3    C1    1.297297 A    
O12   V4    2.000547 S    
C5    C15   1.501130 S    
C17   N1    1.457472 S    
N1    O22   1.300021 A    
O7    C3    1.304036 A    
C14   C17   1.540338 S    
O5    C7    1.300185 A    
O7    V1    1.983031 S    
O6    C8    1.300177 A    
O8    V2    1.983031 S    
C21   H5    1.110268 S    
C22   H6    1.110223 S    
O3    V1    2.009056 S    
C30   H10   1.084018 S    
O14   V4    1.714728 S    
C20   C22   1.543664 S    
C8    C10   1.463593 S    
C27   C28   1.222487 T    
C2    O12   1.298702 A    
O2    C4    1.300187 A    
C19   C29   1.493188 S    
C16   C18   1.533534 S    
O11   V3    2.000546 S    
C23   C25   1.546860 S    
O15   C5    1.299430 A    
O17   V3    1.984977 S    
C20   C23   1.534041 S    
C24   C26   1.544564 S    
C29   H9    1.084652 S    
O8    C4    1.304034 A    
C1    O11   1.298553 A    
O15   V3    1.998351 S    
C18   N2    1.457483 S    
C29   O25   1.219878 D    
N2    O24   1.299995 A    
C13   C15   1.548204 S    
C14   C16   1.548189 S    
O10   V2    2.006568 S    
O1    V3    1.981509 S    
C9    C10   1.222714 T    
C12   C18   1.539502 S    
C11   C16   1.551065 S    
C15   C17   1.533515 S    
C19   C24   1.532331 S    
O5    V1    1.980812 S    
O18   V4    1.984976 S    
C25   H7    1.108065 S    
C6    C16   1.501128 S    
O16   C6    1.299438 A    
O1    C3    1.300186 A    
C11   C17   1.539492 S    
C4    C28   1.463265 S    
C19   C25   1.545978 S    
V2    O20   1.707802 S    
C20   C26   1.544551 S    
O16   V4    1.998348 S    
C20   C30   1.492103 S    
C2    C23   1.505087 S    
C3    C27   1.463262 S    
O17   C7    1.305401 A    
C21   C26   1.553051 S    
O6    V2    1.980812 S    
O10   C6    1.296324 A    
O18   C8    1.305396 A    
C22   C25   1.555219 S    
O2    V4    1.981510 S    
N2    O23   1.300398 A    
C12   C14   1.561219 S    
V3    O19   2.165716 S    
V4    O20   2.165717 S    
C21   C23   1.545689 S    
O9    C5    1.296329 A    
O13   V1    2.156301 S    
C26   H8    1.105701 S    
O14   V2    2.156301 S    
N1    O21   1.300374 A    
C11   H3    1.110573 S    
O4    V2    2.009055 S    
C13   H1    1.110158 S    
C12   C15   1.551066 S    
C30   O26   1.219772 D    
C1    C24   1.503295 S    
C13   C18   1.540346 S    
