data_mof_unit_12125.cif
_audit_creation_date              2012-12-10T20:39:09-0500
_audit_creation_method            fapswitch 2.2
_symmetry_space_group_name_H-M    P1
_symmetry_Int_Tables_number       1
_space_group_crystal_system       triclinic
_cell_length_a                    18.673889
_cell_length_b                    10.515183
_cell_length_c                    10.001363
_cell_angle_alpha                 88.321454
_cell_angle_beta                  90.082119
_cell_angle_gamma                 93.831683
_cell_volume                      1958.63027475

loop_
_atom_site_label
_atom_site_type_symbol
_atom_type_description
_atom_site_fract_x
_atom_site_fract_y
_atom_site_fract_z
_atom_type_partial_charge
C1    C     C_R   0.513198 0.264402 0.501520 0.873718
C2    C     C_R   0.301459 0.594464 0.501993 -0.211438
C3    C     C_R   0.939115 0.611807 0.510425 0.278994
C4    C     C_R   0.082760 0.667201 0.514699 0.318265
C5    C     C_R   0.822346 0.575624 0.626429 -0.180087
C6    C     C_R   0.748907 0.545536 0.624462 -0.189465
C7    C     C_R   0.714053 0.514904 0.503899 -0.015397
C8    C     C_R   0.754600 0.507730 0.386922 -0.208822
C9    C     C_R   0.828146 0.540190 0.388338 -0.179795
C10   C     C_R   0.862141 0.576245 0.507872 0.097675
C11   C     C_R   0.533362 0.067197 0.624248 -0.116718
C12   C     C_R   0.368974 0.527564 0.499894 0.900190
C13   C     C_R   0.540608 0.138790 0.505651 -0.070444
C14   C     C_R   0.558565 0.078659 0.387268 0.164693
C15   C     C_R   0.541790 0.947077 0.379392 -0.264279
C16   C     C_R   0.520789 0.876854 0.496070 -0.155574
C17   C     C_R   0.526718 0.936518 0.617859 0.016317
C18   C     C_3   0.576272 0.912999 0.732581 0.568383
C19   C     C_3   0.586995 0.059567 0.736913 0.274119
C20   C     C_R   0.437271 0.483910 0.069504 -0.059455
C21   C     C_R   0.561920 0.526451 0.070291 0.535050
C22   C     C_R   0.561490 0.524705 0.927015 -0.216416
C23   C     C_R   0.505403 0.741173 0.498038 0.854372
C24   C     C_R   0.437619 0.482515 0.931061 0.165586
C25   C     C_3   0.370506 0.393212 0.923622 0.509969
C26   C     C_3   0.369628 0.394405 0.081686 0.527938
C27   C     C_R   0.635487 0.501019 0.500496 0.819297
C28   C     C_R   0.277580 0.652207 0.618493 0.511478
C29   C     C_R   0.205541 0.686031 0.627016 0.048633
C30   C     C_R   0.161817 0.674095 0.510838 0.012759
C31   C     C_R   0.194395 0.653193 0.387967 -0.226839
C32   C     C_R   0.264147 0.616558 0.384271 -0.290155
H1    H     H_    0.550834 0.899225 0.287095 0.164239
H2    H     H_    0.567386 0.101245 0.829062 0.082652
H3    H     H_    0.611540 0.539587 0.873007 0.153062
H4    H     H_    0.164654 0.656089 0.295004 0.174879
H5    H     H_    0.288770 0.605688 0.289642 0.262493
H6    H     H_    0.847600 0.602008 0.720094 0.145801
H7    H     H_    0.719296 0.550639 0.716900 0.145498
H8    H     H_    0.729527 0.478644 0.294323 0.201375
H9    H     H_    0.858417 0.536500 0.296400 0.147291
N1    N     N_R   0.044564 0.684805 0.400717 -0.186050
N2    N     N_R   0.973995 0.657844 0.398600 -0.183442
N3    N     N_R   0.976920 0.595870 0.624637 -0.184767
N4    N     N_R   0.047433 0.621778 0.626126 -0.186782
N5    N     N_R   0.499530 0.499140 0.142800 -0.171542
N6    N     N_R   0.499530 0.499180 0.857150 -0.127116
O1    O     O_R   0.500010 0.316790 0.614690 -0.610995
O2    O     O_R   0.500000 0.316760 0.385350 -0.627664
O3    O     O_R   0.398140 0.500000 0.614710 -0.557035
O4    O     O_R   0.398130 0.499970 0.385370 -0.607373
O5    O     O_R   0.500000 0.683240 0.614650 -0.563258
O6    O     O_R   0.499990 0.683210 0.385310 -0.622503
O7    O     O_R   0.601870 0.500030 0.614630 -0.636332
O8    O     O_R   0.601860 0.500000 0.385290 -0.558770
Zn1   Zn    Zn3+2 0.500000 0.500020 0.653130 0.980193
Zn2   Zn    Zn3+2 0.500000 0.499980 0.346870 0.956747
O9    O     O_3   0.324894 0.676616 0.722460 -0.549902
C33   C     C_3   0.354194 0.803393 0.707553 -0.228237
H10   H     H_    0.376833 0.824236 0.605846 0.127052
H11   H     H_    0.398097 0.818031 0.781093 0.243845
H12   H     H_    0.313813 0.872605 0.729458 0.138372
O10   O     O_3   0.532875 0.851112 0.834587 -0.623273
C34   C     C_3   0.554638 0.884104 0.964167 -0.438509
H13   H     H_    0.523707 0.963614 0.995266 0.191136
H14   H     H_    0.613275 0.908122 0.973774 0.146712
H15   H     H_    0.538890 0.802884 0.033087 0.213878
C35   C     C_3   0.644738 0.839323 0.706781 -0.336857
C36   C     C_3   0.680935 0.857737 0.569040 -0.850052
H16   H     H_    0.654238 0.793223 0.495786 0.229315
H17   H     H_    0.681086 0.957040 0.529344 0.301260
H18   H     H_    0.737509 0.831977 0.577132 0.251673
H19   H     H_    0.685219 0.866597 0.784045 0.180171
H20   H     H_    0.631086 0.735772 0.723470 0.215288
O11   O     O_3   0.655755 0.109910 0.694173 -0.601676
C37   C     C_3   0.694405 0.162265 0.802821 -0.324096
H21   H     H_    0.749277 0.194132 0.768250 0.204764
H22   H     H_    0.699526 0.090140 0.885299 0.141044
H23   H     H_    0.668788 0.247220 0.839540 0.172298
O12   O     O_3   0.627002 0.537681 0.135552 -0.597237
C38   C     C_3   0.655071 0.665377 0.125859 -0.351922
H24   H     H_    0.709365 0.671991 0.170944 0.188045
H25   H     H_    0.661547 0.700122 0.020209 0.145310
H26   H     H_    0.621617 0.727712 0.183873 0.171739
O13   O     O_3   0.315331 0.466715 0.868850 -0.518615
C39   C     C_3   0.255853 0.395552 0.814071 -0.255110
H27   H     H_    0.238086 0.309447 0.874273 0.111565
H28   H     H_    0.267986 0.368885 0.710352 0.145515
H29   H     H_    0.209761 0.456645 0.809113 0.178589
C40   C     C_3   0.381280 0.267107 0.848461 -0.462818
C41   C     C_3   0.443880 0.190160 0.889554 -0.960746
H30   H     H_    0.494221 0.250934 0.899706 0.269012
H31   H     H_    0.432612 0.131386 0.980724 0.271252
H32   H     H_    0.449261 0.119447 0.811679 0.268796
H33   H     H_    0.332858 0.200725 0.854465 0.184510
H34   H     H_    0.387304 0.292006 0.740796 0.259638
O14   O     O_3   0.314689 0.467770 0.129619 -0.584618
C42   C     C_3   0.248603 0.397541 0.153708 -0.264242
H35   H     H_    0.246014 0.363256 0.259716 0.168516
H36   H     H_    0.238000 0.316721 0.087263 0.162422
H37   H     H_    0.204655 0.462228 0.137567 0.177012
C43   C     C_3   0.177616 0.733720 0.758418 -0.373106
C44   C     C_3   0.152168 0.868639 0.743032 -0.880305
H38   H     H_    0.195016 0.934761 0.698334 0.247187
H39   H     H_    0.103748 0.870161 0.678857 0.270744
H40   H     H_    0.138261 0.903479 0.842843 0.249991
H41   H     H_    0.134027 0.667718 0.799871 0.212187
H42   H     H_    0.219508 0.735145 0.837221 0.253236
C45   C     C_3   0.383938 0.274651 0.172052 -0.389007
C46   C     C_3   0.332255 0.155279 0.161838 -0.962765
H43   H     H_    0.287398 0.157734 0.234149 0.253773
H44   H     H_    0.361269 0.069272 0.188666 0.267430
H45   H     H_    0.309414 0.143460 0.060988 0.263884
H46   H     H_    0.439085 0.248254 0.156450 0.199708
H47   H     H_    0.381801 0.301710 0.277560 0.264692
C47   C     C_3   0.609815 0.145477 0.286969 -0.332935
C48   C     C_3   0.575055 0.171939 0.152500 -0.896887
H48   H     H_    0.612606 0.154682 0.070141 0.231840
H49   H     H_    0.561928 0.272793 0.144422 0.277986
H50   H     H_    0.525345 0.110284 0.141292 0.247576
H51   H     H_    0.633618 0.236542 0.326733 0.214370
H52   H     H_    0.655359 0.084324 0.272315 0.186435

loop_
_geom_bond_atom_site_label_1
_geom_bond_atom_site_label_2
_ccdc_geom_bond_type
C35   H20   S    
C37   H23   S    
C4    C30   S    
C2    C12   S    
C38   H26   S    
C38   H24   S    
C23   O5    A    
C27   O7    A    
C7    C27   S    
C7    C8    A    
O13   C39   S    
C22   H3    S    
C11   C19   S    
C25   C40   S    
C47   H52   S    
C28   C29   A    
C37   H22   S    
C48   H49   S    
C5    C6    A    
C27   O8    A    
C18   O10   S    
C18   C35   S    
C15   C16   A    
O14   C42   S    
O2    Zn2   S    
C47   C48   S    
C2    C32   A    
C18   C19   S    
C36   H17   S    
C46   H43   S    
C35   C36   S    
C20   C24   A    
C16   C17   A    
C43   H42   S    
O4    Zn2   S    
C9    C10   A    
C22   N6    A    
C33   H10   S    
C13   C14   A    
C43   C44   S    
C38   H25   S    
C23   O6    A    
C4    N4    A    
O7    Zn1   S    
C3    N3    A    
C33   H11   S    
C47   H51   S    
C34   H15   S    
C40   H33   S    
C5    H6    S    
C24   C25   S    
C48   H50   S    
C41   H30   S    
O6    Zn2   S    
C39   H27   S    
C8    C9    A    
C35   H19   S    
C39   H29   S    
O3    Zn1   S    
C34   H14   S    
C36   H18   S    
O11   C37   S    
C29   C30   A    
C41   H31   S    
C31   C32   A    
C46   H45   S    
C3    N2    A    
C25   O13   S    
C17   C18   S    
C43   H41   S    
C44   H39   S    
C25   C26   S    
C32   H5    S    
C37   H21   S    
C26   C45   S    
C45   H46   S    
C16   C23   S    
C42   H36   S    
O8    Zn2   S    
N5    Zn2   S    
C4    N1    A    
C1    C13   S    
N1    N2    A    
C12   O4    A    
N3    N4    A    
C21   N5    A    
O1    Zn1   S    
C11   C17   A    
C33   H12   S    
C14   C15   A    
C24   N6    A    
O12   C38   S    
C19   H2    S    
C12   O3    A    
C1    O1    A    
C40   H34   S    
C6    C7    A    
C6    H7    S    
C28   O9    S    
C42   H37   S    
C9    H9    S    
C34   H13   S    
C19   O11   S    
O9    C33   S    
C5    C10   A    
C3    C10   S    
C48   H48   S    
C41   H32   S    
C11   C13   A    
C40   C41   S    
C30   C31   A    
C20   C26   S    
C14   C47   S    
C21   O12   S    
C29   C43   S    
C44   H40   S    
C39   H28   S    
C36   H16   S    
C46   H44   S    
C45   H47   S    
C26   O14   S    
O10   C34   S    
C42   H35   S    
C45   C46   S    
C44   H38   S    
C31   H4    S    
C2    C28   A    
C8    H8    S    
C21   C22   A    
C1    O2    A    
C15   H1    S    
C20   N5    A    
O5    Zn1   S    
N6    Zn1   S    
