data_mof_unit_54904.cif
_audit_creation_date              2012-10-26T18:30:17-0400
_audit_creation_method            fapswitch 2.2
_symmetry_space_group_name_H-M    P1
_symmetry_Int_Tables_number       1
_space_group_crystal_system       triclinic
_cell_length_a                    10.631461
_cell_length_b                    12.986114
_cell_length_c                    11.672914
_cell_angle_alpha                 100.580201
_cell_angle_beta                  93.863928
_cell_angle_gamma                 90.509203
_cell_volume                      1580.20736099

loop_
_atom_site_label
_atom_site_type_symbol
_atom_type_description
_atom_site_fract_x
_atom_site_fract_y
_atom_site_fract_z
_atom_type_partial_charge
C1    C     C_R   0.500937 0.298808 0.477666 0.566590
C2    C     C_R   0.620055 0.576805 0.855522 0.039447
C3    C     C_R   0.560529 0.533728 0.156546 0.048276
C4    C     C_R   0.439469 0.466274 0.843455 0.048274
C5    C     C_R   0.549537 0.529590 0.033900 0.004838
C6    C     C_R   0.450461 0.470412 0.966100 0.004841
C7    C     C_R   0.259099 0.499835 0.500080 0.551235
C8    C     C_R   0.740901 0.500165 0.499920 0.551234
C9    C     C_3   0.044167 0.418868 0.546339 -0.128421
C10   C     C_3   0.955833 0.581131 0.453661 -0.128421
C11   C     C_3   0.952400 0.409616 0.436134 -0.122236
C12   C     C_R   0.499059 0.701191 0.522334 0.566592
C13   C     C_3   0.047600 0.590384 0.563865 -0.122236
C14   C     C_3   0.877726 0.500150 0.500148 0.046614
C15   C     C_3   0.122274 0.499850 0.499852 0.046614
C16   C     C_3   0.967225 0.509419 0.610510 -0.114409
C17   C     C_3   0.032775 0.490580 0.389490 -0.114407
C18   C     C_R   0.494127 0.815227 0.536649 0.018632
C19   C     C_R   0.505862 0.184771 0.463351 0.018636
C20   C     C_R   0.557816 0.013725 0.356996 -0.124257
C21   C     C_R   0.442167 0.986272 0.643006 -0.124259
C22   C     C_R   0.547917 0.122547 0.360896 0.260979
C23   C     C_R   0.470051 0.138712 0.555817 -0.180022
C24   C     C_R   0.452054 0.877450 0.639102 0.260978
C25   C     C_3   0.427855 0.890531 0.839592 -0.015445
C26   C     C_3   0.424645 0.820971 0.930896 -0.358139
C27   C     C_3   0.572063 0.109452 0.160414 -0.015466
C28   C     C_3   0.575245 0.179007 0.069112 -0.358113
C29   C     C_R   0.529948 0.861287 0.444186 -0.180017
C30   C     C_R   0.477823 0.031340 0.549895 -0.006095
C31   C     C_R   0.522170 0.968659 0.450108 -0.006094
C32   C     C_R   0.365302 0.416932 0.022554 -0.190933
C33   C     C_R   0.634698 0.583069 0.977446 -0.190932
C34   C     C_R   0.379948 0.423194 0.144478 0.039439
Cu1   Cu    Cu3+1 0.509400 0.507730 0.615930 0.953805
Cu2   Cu    Cu3+1 0.490600 0.492270 0.384070 0.953805
H1    H     H_    0.910204 0.335792 0.383904 0.126307
H2    H     H_    0.405187 0.036401 0.717143 0.083027
H3    H     H_    0.364234 0.419969 0.790505 0.111432
H4    H     H_    0.635763 0.580035 0.209495 0.111432
H5    H     H_    0.686354 0.618371 0.813244 0.123978
H6    H     H_    0.313650 0.381627 0.186756 0.123978
H7    H     H_    0.287959 0.370538 0.972962 0.081021
H8    H     H_    0.712042 0.629462 0.027038 0.081023
H9    H     H_    0.349251 0.946328 0.853651 0.124390
H10   H     H_    0.520242 0.933920 0.853314 0.115228
H11   H     H_    0.505653 0.767698 0.923425 0.160844
H12   H     H_    0.089797 0.664208 0.616096 0.126314
H13   H     H_    0.431157 0.870045 0.019746 0.074780
H14   H     H_    0.335479 0.773787 0.918276 0.167204
H15   H     H_    0.479686 0.066063 0.146717 0.115236
H16   H     H_    0.650662 0.053651 0.146341 0.124385
H17   H     H_    0.664420 0.226181 0.081712 0.167220
H18   H     H_    0.568698 0.129927 0.980257 0.074768
H19   H     H_    0.494244 0.232292 0.076609 0.160847
H20   H     H_    0.083537 0.352638 0.584313 0.104101
H21   H     H_    0.916463 0.647362 0.415687 0.104102
H22   H     H_    0.937782 0.517211 0.701129 0.116736
H23   H     H_    0.062218 0.482789 0.298871 0.116736
H24   H     H_    0.563863 0.813120 0.366791 0.120189
H25   H     H_    0.436145 0.186880 0.633213 0.120193
H26   H     H_    0.594794 0.963595 0.282859 0.083023
N1    N     N_R   0.523540 0.519360 0.790140 -0.223413
N2    N     N_R   0.476460 0.480640 0.209860 -0.223413
O1    O     O_R   0.506670 0.354460 0.582000 -0.524205
O2    O     O_3   0.588782 0.172293 0.273199 -0.539197
O3    O     O_R   0.493330 0.645540 0.418000 -0.524204
O4    O     O_R   0.490800 0.341410 0.386200 -0.448847
O5    O     O_R   0.509200 0.658590 0.613800 -0.448855
O6    O     O_R   0.324790 0.506500 0.597880 -0.505367
O7    O     O_R   0.675210 0.493500 0.402120 -0.505368
O8    O     O_R   0.308910 0.493440 0.402080 -0.518681
O9    O     O_R   0.691090 0.506560 0.597920 -0.518681
O10   O     O_3   0.411166 0.827700 0.726792 -0.539188

loop_
_geom_bond_atom_site_label_1
_geom_bond_atom_site_label_2
_ccdc_geom_bond_type
C6    C32   A    
C12   O5    A    
Cu1   Cu2   S    
C34   H6    S    
C7    O6    A    
Cu2   O3    S    
C3    N2    A    
C27   H16   S    
C4    N1    A    
C18   C24   A    
C9    C16   S    
C26   H14   S    
C30   C31   A    
C11   C14   S    
Cu1   O1    S    
C10   C17   S    
C1    O4    A    
C25   O10   S    
C11   H1    S    
C22   O2    S    
C11   C17   S    
C21   H2    S    
Cu1   O6    S    
C5    C33   A    
C1    O1    A    
C29   H24   S    
Cu2   O7    S    
C7    C15   S    
C28   H19   S    
C27   H15   S    
C12   O3    A    
C1    C19   S    
C23   C30   A    
C19   C22   A    
C4    C6    A    
C10   C14   S    
C26   H13   S    
C7    O8    A    
C18   C29   A    
C28   H18   S    
C25   C26   S    
C32   C34   A    
C19   C23   A    
C4    H3    S    
C10   H21   S    
C34   N2    A    
C9    H20   S    
C16   H22   S    
C9    C11   S    
C26   H11   S    
C17   H23   S    
C2    C33   A    
C20   C22   A    
C3    H4    S    
C13   C15   S    
C14   C16   S    
C21   C24   A    
C25   H9    S    
C2    N1    A    
C15   C17   S    
Cu1   O9    S    
C8    O7    A    
C8    C14   S    
C33   H8    S    
C3    C5    A    
C10   C13   S    
C13   H12   S    
C28   H17   S    
Cu2   O4    S    
C21   C30   A    
C9    C15   S    
C29   C31   A    
C27   O2    S    
C24   O10   S    
C5    C6    A    
C8    O9    A    
C32   H7    S    
C20   H26   S    
C23   H25   S    
Cu1   O5    S    
C13   C16   S    
C12   C18   S    
C27   C28   S    
Cu1   N1    S    
C2    H5    S    
Cu2   N2    S    
C25   H10   S    
Cu2   O8    S    
C20   C31   A    
