data_mof_unit_11732.cif
_audit_creation_date              2013-03-05T15:44:23-0500
_audit_creation_method            fapswitch 2.2
_symmetry_space_group_name_H-M    P1
_symmetry_Int_Tables_number       1
_space_group_crystal_system       triclinic
_cell_length_a                    18.962132
_cell_length_b                    10.962527
_cell_length_c                    18.866746
_cell_angle_alpha                 89.952257
_cell_angle_beta                  90.222771
_cell_angle_gamma                 89.915574
_cell_volume                      3921.84962126

loop_
_atom_site_label
_atom_site_type_symbol
_atom_site_description
_atom_site_fract_x
_atom_site_fract_y
_atom_site_fract_z
_atom_type_partial_charge
O1    O     O_R   0.784320 0.290430 0.830510 -0.518492
O2    O     O_R   0.215680 0.290430 0.169490 -0.518325
O3    O     O_R   0.284320 0.790430 0.830510 -0.518504
O4    O     O_R   0.715680 0.790430 0.169490 -0.518142
O5    O     O_R   0.762640 0.040960 0.825200 -0.485851
O6    O     O_R   0.237360 0.040960 0.174800 -0.488503
O7    O     O_R   0.262640 0.540960 0.825200 -0.485949
O8    O     O_R   0.737360 0.540960 0.174800 -0.488548
C1    C     C_R   0.725748 0.958913 0.855175 0.553947
C2    C     C_R   0.274247 0.958933 0.144813 0.544861
C3    C     C_R   0.225747 0.458914 0.855176 0.553396
C4    C     C_R   0.774247 0.458933 0.144812 0.544504
O9    O     O_R   0.667400 0.923970 0.829950 -0.514148
O10   O     O_R   0.332600 0.923970 0.170050 -0.517945
O11   O     O_R   0.167400 0.423970 0.829950 -0.514327
O12   O     O_R   0.832600 0.423970 0.170050 -0.518185
O13   O     O_R   0.553960 0.081340 0.821780 -0.502867
O14   O     O_R   0.446040 0.081340 0.178220 -0.503922
O15   O     O_R   0.053960 0.581340 0.821780 -0.503025
O16   O     O_R   0.946040 0.581340 0.178220 -0.503748
C5    C     C_R   0.529985 0.177914 0.850818 0.547134
C6    C     C_R   0.469981 0.177888 0.149159 0.538970
C7    C     C_R   0.029984 0.677914 0.850818 0.546995
C8    C     C_R   0.969981 0.677888 0.149159 0.539203
O17   O     O_R   0.543180 0.283240 0.826740 -0.499749
O18   O     O_R   0.456820 0.283240 0.173260 -0.506205
O19   O     O_R   0.043180 0.783240 0.826740 -0.499911
O20   O     O_R   0.956820 0.783240 0.173260 -0.506060
O21   O     O_R   0.678360 0.375140 0.822710 -0.493933
O22   O     O_R   0.321640 0.375140 0.177290 -0.498942
O23   O     O_R   0.178360 0.875140 0.822710 -0.494247
O24   O     O_R   0.821640 0.875140 0.177290 -0.499296
C9    C     C_R   0.738980 0.366055 0.852083 0.530956
C10   C     C_R   0.260993 0.366054 0.147923 0.522186
C11   C     C_R   0.238979 0.866055 0.852083 0.530398
C12   C     C_R   0.760993 0.866054 0.147923 0.521900
O25   O     O_R   0.785050 0.289380 0.670560 -0.539258
O26   O     O_R   0.214950 0.289380 0.329440 -0.529846
O27   O     O_R   0.285050 0.789380 0.670560 -0.539186
O28   O     O_R   0.714950 0.789380 0.329440 -0.528632
O29   O     O_R   0.763320 0.039990 0.676930 -0.480707
O30   O     O_R   0.236680 0.039990 0.323070 -0.459369
O31   O     O_R   0.263320 0.539990 0.676930 -0.479227
O32   O     O_R   0.736680 0.539990 0.323070 -0.458799
C13   C     C_R   0.727179 0.957074 0.646322 0.599576
C14   C     C_R   0.271517 0.955820 0.352940 0.568193
C15   C     C_R   0.227269 0.456929 0.646356 0.597288
C16   C     C_R   0.771404 0.455718 0.352851 0.565038
O33   O     O_R   0.668130 0.922920 0.670000 -0.491089
O34   O     O_R   0.331870 0.922920 0.330000 -0.510700
O35   O     O_R   0.168130 0.422920 0.670000 -0.492048
O36   O     O_R   0.831870 0.422920 0.330000 -0.511884
O37   O     O_R   0.554640 0.080370 0.673500 -0.520049
O38   O     O_R   0.445360 0.080370 0.326500 -0.520483
O39   O     O_R   0.054640 0.580370 0.673500 -0.520154
O40   O     O_R   0.945360 0.580370 0.326500 -0.521149
C17   C     C_R   0.533128 0.176742 0.642929 0.553929
C18   C     C_R   0.470430 0.174942 0.354800 0.546085
C19   C     C_R   0.032666 0.676666 0.643240 0.553791
C20   C     C_R   0.970064 0.674950 0.355007 0.546014
O41   O     O_R   0.543920 0.282180 0.666790 -0.467584
O42   O     O_R   0.456080 0.282180 0.333210 -0.447987
O43   O     O_R   0.043920 0.782180 0.666790 -0.463417
O44   O     O_R   0.956080 0.782180 0.333210 -0.443205
O45   O     O_R   0.679040 0.374160 0.674430 -0.452013
O46   O     O_R   0.320960 0.374160 0.325570 -0.433156
O47   O     O_R   0.179040 0.874160 0.674430 -0.451232
O48   O     O_R   0.820960 0.874160 0.325570 -0.434113
C21   C     C_R   0.739446 0.361953 0.645938 0.571110
C22   C     C_R   0.260593 0.364490 0.353275 0.554796
C23   C     C_R   0.239566 0.862501 0.646130 0.568688
C24   C     C_R   0.760688 0.864411 0.353326 0.552879
Cr1   Cr    Cr6+3 0.769270 0.163730 0.750710 1.068432
Cr2   Cr    Cr6+3 0.230730 0.163730 0.249290 1.082971
Cr3   Cr    Cr6+3 0.269270 0.663730 0.750710 1.068802
Cr4   Cr    Cr6+3 0.730730 0.663730 0.249290 1.083243
Cr5   Cr    Cr6+3 0.612620 0.009790 0.748780 1.059904
Cr6   Cr    Cr6+3 0.387380 0.009790 0.251220 1.051600
Cr7   Cr    Cr6+3 0.112620 0.509790 0.748780 1.059705
Cr8   Cr    Cr6+3 0.887380 0.509790 0.251220 1.050972
Cr9   Cr    Cr6+3 0.614160 0.322500 0.747710 1.113501
Cr10  Cr    Cr6+3 0.385840 0.322500 0.252290 1.122159
Cr11  Cr    Cr6+3 0.114160 0.822500 0.747710 1.114807
Cr12  Cr    Cr6+3 0.885840 0.822500 0.252290 1.122551
O49   O     O_3   0.665350 0.165340 0.749070 -0.286126
O50   O     O_3   0.334650 0.165340 0.250930 -0.278544
O51   O     O_3   0.165350 0.665340 0.749070 -0.286064
O52   O     O_3   0.834650 0.665340 0.250930 -0.278826
C25   C     C_2   0.497704 0.170363 0.920912 -0.132801
C26   C     C_2   0.502161 0.170284 0.079017 -0.134040
C27   C     C_2   0.997704 0.670363 0.920911 -0.132586
C28   C     C_2   0.002160 0.670284 0.079017 -0.133956
C29   C     C_2   0.491393 0.072396 0.037883 -0.142277
C30   C     C_2   0.508344 0.072341 0.962092 -0.144218
C31   C     C_2   0.991392 0.572396 0.037883 -0.142298
C32   C     C_2   0.008343 0.572341 0.962092 -0.144189
H1    H     H_    0.469874 0.989467 0.060148 0.199570
H2    H     H_    0.529789 0.989267 0.939880 0.199009
H3    H     H_    0.969874 0.489467 0.060147 0.199571
H4    H     H_    0.029788 0.489267 0.939880 0.199023
H5    H     H_    0.526081 0.252069 0.057174 0.116118
H6    H     H_    0.473835 0.252291 0.942709 0.117304
H7    H     H_    0.026080 0.752070 0.057173 0.116142
H8    H     H_    0.973835 0.752291 0.942709 0.117336
C33   C     C_R   0.692534 0.453638 0.963249 -0.135397
C34   C     C_R   0.307380 0.453559 0.036731 -0.135803
C35   C     C_R   0.192533 0.953637 0.963249 -0.135434
C36   C     C_R   0.807381 0.953556 0.036730 -0.135867
H9    H     H_    0.641604 0.469297 0.938657 0.156281
H10   H     H_    0.358288 0.469118 0.061319 0.156265
H11   H     H_    0.141604 0.969295 0.938657 0.156262
H12   H     H_    0.858289 0.969115 0.061318 0.156218
C37   C     C_R   0.698221 0.463570 0.036640 -0.133416
C38   C     C_R   0.301723 0.463379 0.963334 -0.132594
C39   C     C_R   0.198220 0.963568 0.036640 -0.133383
C40   C     C_R   0.801723 0.963377 0.963333 -0.132550
H13   H     H_    0.653223 0.494269 0.067031 0.155414
H14   H     H_    0.346710 0.493924 0.932922 0.156365
H15   H     H_    0.153222 0.994267 0.067032 0.155474
H16   H     H_    0.846710 0.993921 0.932921 0.156395
C41   C     C_R   0.761527 0.431803 0.070273 -0.004090
C42   C     C_R   0.238457 0.431727 0.929725 -0.003711
C43   C     C_R   0.261527 0.931802 0.070273 -0.004057
C44   C     C_R   0.738457 0.931726 0.929724 -0.003681
C45   C     C_R   0.819825 0.396848 0.029693 -0.097164
C46   C     C_R   0.180165 0.396980 0.970317 -0.097489
C47   C     C_R   0.319825 0.896847 0.029694 -0.097146
C48   C     C_R   0.680166 0.896979 0.970316 -0.097497
H17   H     H_    0.869613 0.375515 0.054968 0.180867
H18   H     H_    0.130404 0.375751 0.945053 0.180549
H19   H     H_    0.369613 0.875515 0.054969 0.180872
H20   H     H_    0.630405 0.875750 0.945052 0.180534
C49   C     C_R   0.816924 0.397366 0.956448 0.004197
C50   C     C_R   0.183032 0.397597 0.043554 0.004198
C51   C     C_R   0.316924 0.897365 0.956448 0.004210
C52   C     C_R   0.683033 0.897596 0.043553 0.004198
C53   C     C_R   0.751046 0.416943 0.922756 -0.011877
C54   C     C_R   0.248882 0.417042 0.077238 -0.013168
C55   C     C_R   0.251046 0.916941 0.922756 -0.011948
C56   C     C_R   0.748883 0.917041 0.077237 -0.013269
C57   C     C_R   0.549562 0.258058 0.524822 -0.089318
C58   C     C_R   0.540372 0.252641 0.452743 -0.094792
C59   C     C_R   0.052886 0.752067 0.524596 -0.085921
C60   C     C_R   0.042764 0.746978 0.452570 -0.092692
H21   H     H_    0.580901 0.331442 0.546371 0.179613
H22   H     H_    0.561339 0.324320 0.419642 0.197202
H23   H     H_    0.088030 0.820570 0.545675 0.170835
H24   H     H_    0.067149 0.814248 0.418716 0.189766
C61   C     C_R   0.499608 0.159675 0.424370 0.025689
C62   C     C_R   0.518574 0.169773 0.568660 0.045449
C63   C     C_R   0.997577 0.659474 0.425140 0.030062
C64   C     C_R   0.017891 0.669530 0.569142 0.049342
C65   C     C_R   0.474117 0.064435 0.467371 -0.133135
C66   C     C_R   0.483754 0.069582 0.539920 -0.139632
C67   C     C_R   0.967420 0.569599 0.468999 -0.130225
C68   C     C_R   0.977813 0.574602 0.541430 -0.136901
H25   H     H_    0.442492 0.990999 0.445773 0.150838
H26   H     H_    0.462506 0.998321 0.573434 0.133422
H27   H     H_    0.932059 0.500824 0.448036 0.150417
H28   H     H_    0.953162 0.507722 0.575635 0.132316
C69   C     C_R   0.796514 0.332282 0.532117 -0.188405
C70   C     C_R   0.187928 0.388333 0.458233 -0.194715
C71   C     C_R   0.298916 0.837731 0.533148 -0.188265
C72   C     C_R   0.687684 0.891538 0.457796 -0.194858
H29   H     H_    0.832967 0.267987 0.556000 0.149564
H30   H     H_    0.142094 0.357842 0.428753 0.148825
H31   H     H_    0.336712 0.776247 0.557424 0.149012
H32   H     H_    0.641618 0.863130 0.427962 0.148518
C73   C     C_R   0.796889 0.341245 0.459802 -0.171552
C74   C     C_R   0.183865 0.392276 0.530746 -0.139991
C75   C     C_R   0.299271 0.845627 0.460824 -0.168525
C76   C     C_R   0.683224 0.895804 0.530298 -0.139302
H33   H     H_    0.836523 0.290043 0.431443 0.202801
H34   H     H_    0.133369 0.370034 0.554082 0.184088
H35   H     H_    0.340089 0.796360 0.432978 0.201834
H36   H     H_    0.632253 0.876039 0.553351 0.181725
C77   C     C_R   0.750787 0.420375 0.424870 -0.007926
C78   C     C_R   0.242142 0.427666 0.572126 0.019188
C79   C     C_R   0.251579 0.921223 0.425277 -0.006965
C80   C     C_R   0.741838 0.928229 0.572050 0.020943
C81   C     C_R   0.699313 0.486778 0.464531 -0.035142
C82   C     C_R   0.306073 0.461061 0.538701 -0.031041
C83   C     C_R   0.198969 0.985643 0.464479 -0.036780
C84   C     C_R   0.806385 0.958990 0.539097 -0.032353
C85   C     C_R   0.701811 0.482173 0.539296 0.148700
C86   C     C_R   0.309093 0.461563 0.463973 0.164111
C87   C     C_R   0.201143 0.981698 0.539276 0.148846
C88   C     C_R   0.809919 0.959255 0.464414 0.162501
C89   C     C_R   0.749090 0.400832 0.572635 0.012520
C90   C     C_R   0.250974 0.415609 0.424296 0.008967
C91   C     C_R   0.249627 0.903037 0.573145 0.012891
C92   C     C_R   0.751355 0.915804 0.424318 0.008158
C93   C     C_2   0.643852 0.562951 0.430363 0.302938
H37   H     H_    0.628509 0.649094 0.453755 0.147408
O53   O     O_2   0.612189 0.527343 0.377869 -0.479945
C94   C     C_2   0.369736 0.495021 0.580375 0.299457
H38   H     H_    0.403840 0.568085 0.562451 0.151592
O54   O     O_2   0.386009 0.438527 0.633818 -0.467273
C95   C     C_2   0.142503 0.058925 0.429799 0.304246
H39   H     H_    0.125466 0.144256 0.453051 0.146904
O55   O     O_2   0.111937 0.021737 0.377021 -0.478899
C96   C     C_2   0.870155 0.990541 0.581269 0.299557
H40   H     H_    0.905292 0.062332 0.563622 0.154406
O56   O     O_2   0.885287 0.933515 0.634854 -0.466944
N1    N     N_R   0.657569 0.560390 0.581420 0.055947
O57   O     O_R   0.589508 0.561944 0.572311 -0.349658
O58   O     O_R   0.685236 0.625496 0.631993 -0.323938
N2    N     N_R   0.370951 0.506908 0.428711 0.066539
O59   O     O_R   0.433248 0.465534 0.445047 -0.317539
O60   O     O_R   0.364799 0.587692 0.378493 -0.346058
N3    N     N_R   0.154924 0.057245 0.580874 0.055723
O61   O     O_R   0.086927 0.053825 0.571435 -0.344979
O62   O     O_R   0.180769 0.124454 0.631486 -0.325102
N4    N     N_R   0.872821 0.001499 0.429701 0.067694
O63   O     O_R   0.934309 0.957553 0.446866 -0.313536
O64   O     O_R   0.868548 0.083300 0.379857 -0.345554
C97   C     C_2   0.883335 0.376461 0.916594 0.244006
H41   H     H_    0.889576 0.414025 0.863743 0.126151
O65   O     O_2   0.931384 0.316246 0.942120 -0.500378
C98   C     C_2   0.116631 0.376851 0.083412 0.244060
H42   H     H_    0.110323 0.414523 0.136201 0.122800
O66   O     O_2   0.068684 0.316606 0.057973 -0.499557
C99   C     C_2   0.383335 0.876460 0.916594 0.244008
H43   H     H_    0.389575 0.914023 0.863743 0.126004
O67   O     O_2   0.431383 0.816246 0.942120 -0.500322
C100  C     C_2   0.616632 0.876850 0.083411 0.244068
H44   H     H_    0.610324 0.914522 0.136201 0.122692
O68   O     O_2   0.568684 0.816605 0.057972 -0.499502

loop_
_geom_bond_atom_site_label_1
_geom_bond_atom_site_label_2
_geom_bond_distance
_ccdc_geom_bond_type
C18   O42   1.272553 A    
Cr11  O51   1.976348 S    
O4    C12   1.263081 A    
C49   C53   1.415419 A    
C29   C30   1.466830 S    
C7    C27   1.461717 S    
O39   C19   1.268779 A    
C25   H6    1.086967 S    
O20   Cr12  2.057895 S    
O29   C13   1.276315 A    
C58   H22   1.080547 S    
O15   C7    1.276386 A    
C31   C32   1.466829 S    
C27   H8    1.086966 S    
C60   H24   1.080792 S    
O29   Cr1   1.947521 S    
O26   C22   1.276305 A    
O1    C9    1.262270 A    
O27   Cr3   2.067561 S    
C5    C25   1.461718 S    
N1    O57   1.301397 A    
C59   H23   1.079884 S    
C93   H37   1.082623 S    
C88   N4    1.439882 S    
O5    C1    1.273687 A    
C96   O56   1.221224 D    
C34   C38   1.392558 A    
C64   C68   1.390690 A    
O24   C12   1.278626 A    
C58   C61   1.386612 A    
C33   C37   1.392781 A    
C47   C51   1.382788 A    
C66   H26   1.083740 S    
C60   C63   1.386365 A    
O25   C21   1.261260 A    
C48   C52   1.382628 A    
C82   C86   1.411276 A    
C77   C81   1.430734 A    
C34   C54   1.407880 A    
O47   C23   1.274005 A    
C76   C80   1.406056 A    
C30   H2    1.082232 S    
C59   C60   1.372831 A    
O21   C9    1.277867 A    
O8    Cr4   1.950976 S    
C1    C44   1.456566 S    
O23   Cr11  1.951223 S    
O30   C14   1.264842 A    
C73   C77   1.394056 A    
C25   C30   1.340068 D    
O32   Cr4   1.945673 S    
C1    O9    1.262864 A    
O44   Cr12  2.069169 S    
O7    C3    1.273686 A    
C61   C65   1.408930 A    
C13   C80   1.464352 S    
C11   C55   1.463098 S    
C27   C32   1.340069 D    
C70   H30   1.083438 S    
C3    O11   1.262863 A    
O11   Cr7   2.071637 S    
C4    C41   1.456928 S    
C99   H43   1.085465 S    
C9    C53   1.463099 S    
N2    O59   1.300573 A    
C93   O53   1.220841 D    
C7    O19   1.266105 A    
C71   C75   1.367233 A    
C40   H16   1.083228 S    
Cr4   O52   1.970773 S    
C83   C95   1.486969 S    
C87   C91   1.410427 A    
O2    Cr2   2.066246 S    
C18   C61   1.432007 S    
C52   C56   1.415378 A    
C44   C48   1.400248 A    
C36   H12   1.083180 S    
Cr9   O49   1.976348 S    
Cr6   O50   1.975468 S    
C85   N1    1.440443 S    
O42   Cr10  2.069169 S    
Cr5   O49   1.978017 S    
C95   H39   1.082939 S    
O18   Cr10  2.057895 S    
O28   C24   1.277309 A    
O17   Cr9   2.058208 S    
C75   C79   1.395190 A    
C68   H28   1.083991 S    
C48   H20   1.081212 S    
Cr7   O51   1.978017 S    
C98   H42   1.085478 S    
C57   C62   1.403609 A    
O6    Cr2   1.950976 S    
C79   C83   1.430195 A    
N1    O58   1.301292 A    
O31   Cr3   1.947521 S    
O24   Cr12  1.949465 S    
O16   Cr8   1.939602 S    
O9    Cr5   2.071637 S    
O30   Cr2   1.945673 S    
C84   C96   1.486299 S    
C96   H40   1.084895 S    
O22   C10   1.278626 A    
C67   H27   1.083692 S    
O48   Cr12  1.938609 S    
C4    O12   1.261864 A    
C72   H32   1.083565 S    
C39   C43   1.399083 A    
C94   O54   1.221223 D    
C2    C43   1.456926 S    
C2    O10   1.261862 A    
C21   C89   1.459085 S    
C36   C56   1.407880 A    
C46   H18   1.081212 S    
C81   C85   1.412028 A    
N4    O63   1.300593 A    
O7    Cr3   1.949614 S    
O26   Cr2   2.068651 S    
C97   H41   1.085466 S    
Cr10  O50   1.978878 S    
C75   H35   1.081282 S    
C10   C54   1.462760 S    
C28   C31   1.340266 D    
C49   C97   1.486779 S    
O40   C20   1.258628 A    
C84   C88   1.410884 A    
O48   C24   1.263629 A    
O12   Cr8   2.074186 S    
C20   C63   1.430299 S    
C42   C46   1.400249 A    
C71   H31   1.083153 S    
C26   H5    1.086950 S    
C41   C45   1.400294 A    
C45   H17   1.081225 S    
O46   Cr10  1.938609 S    
O39   Cr7   1.951443 S    
C52   C100  1.486767 S    
N3    O61   1.301532 A    
C70   C74   1.371269 A    
C81   C93   1.486649 S    
O3    C11   1.262270 A    
O8    C4    1.272796 A    
Cr1   O49   1.970720 S    
C17   C62   1.429205 S    
O13   Cr5   1.939203 S    
C13   O33   1.264239 A    
C6    C26   1.461794 S    
O36   Cr8   2.058338 S    
C78   C82   1.417087 A    
O47   Cr11  1.938994 S    
Cr2   O50   1.970773 S    
O15   Cr7   1.939203 S    
C12   C56   1.462760 S    
O35   Cr7   2.058049 S    
C35   C39   1.392781 A    
C28   H7    1.086950 S    
C38   H14   1.083228 S    
C85   C89   1.409561 A    
C37   H13   1.083222 S    
Cr3   O51   1.970720 S    
O14   Cr6   1.939602 S    
N3    O62   1.301315 A    
C87   N3    1.440201 S    
O21   Cr9   1.951223 S    
C16   C77   1.467264 S    
C100  O68   1.221496 D    
C62   C66   1.391644 A    
O37   Cr5   1.951443 S    
O38   C18   1.259489 A    
C8    C28   1.461795 S    
O23   C11   1.277867 A    
C19   O43   1.257670 A    
C72   C76   1.371655 A    
C3    C42   1.456568 S    
C82   C94   1.486115 S    
C29   H1    1.082231 S    
C43   C47   1.400293 A    
C70   C90   1.391129 A    
C8    O20   1.266409 A    
O3    Cr3   2.068496 S    
C22   C90   1.464780 S    
C26   C29   1.340266 D    
C34   H10   1.083180 S    
O25   Cr1   2.067561 S    
C45   C49   1.382789 A    
O45   C21   1.274098 A    
C5    O17   1.266107 A    
C59   C64   1.403642 A    
O27   C23   1.262181 A    
O22   Cr10  1.949465 S    
C40   C44   1.399041 A    
O14   C6    1.276457 A    
C35   H11   1.083176 S    
C14   C79   1.467285 S    
O5    Cr1   1.949614 S    
Cr12  O52   1.978878 S    
C94   H38   1.084845 S    
O37   C17   1.269299 A    
C50   C54   1.415379 A    
C15   O35   1.265052 A    
C99   O67   1.221495 D    
C17   O41   1.257543 A    
C74   H34   1.083469 S    
C57   H21   1.079667 S    
C15   C78   1.465394 S    
C51   C99   1.486779 S    
C88   C92   1.424064 A    
C14   O34   1.276707 A    
C39   H15   1.083221 S    
C63   C67   1.409418 A    
O40   Cr8   1.953665 S    
C86   N2    1.439703 S    
C98   O66   1.221497 D    
C20   O44   1.272271 A    
C51   C55   1.415419 A    
O1    Cr1   2.068496 S    
C36   C40   1.392558 A    
C69   C89   1.400747 A    
O19   Cr11  2.058208 S    
N4    O64   1.301094 A    
C69   C73   1.367853 A    
Cr8   O52   1.975468 S    
O32   C16   1.263795 A    
O41   Cr9   2.070552 S    
C57   C58   1.371701 A    
C24   C92   1.464758 S    
O2    C10   1.263081 A    
O46   C22   1.264793 A    
C33   H9    1.083178 S    
C50   C98   1.486767 S    
C32   H4    1.082233 S    
O34   Cr6   2.058338 S    
O38   Cr6   1.953665 S    
O33   Cr5   2.058049 S    
C31   H3    1.082232 S    
O10   Cr6   2.074186 S    
C65   H25   1.083420 S    
C97   O65   1.221498 D    
C47   H19   1.081225 S    
O4    Cr4   2.066246 S    
O6    C2    1.272797 A    
C33   C53   1.407943 A    
C38   C42   1.399040 A    
C19   C64   1.426947 S    
C76   H36   1.083497 S    
C16   O36   1.277753 A    
C37   C41   1.399083 A    
C46   C50   1.382626 A    
N2    O60   1.301142 A    
C100  H44   1.085478 S    
C6    O18   1.266409 A    
O28   Cr4   2.068651 S    
O43   Cr11  2.070552 S    
C67   C68   1.381060 A    
C95   O55   1.220864 D    
C73   H33   1.080987 S    
O45   Cr9   1.938994 S    
C71   C91   1.399982 A    
C86   C90   1.422856 A    
C23   C91   1.459874 S    
C65   C66   1.381405 A    
C72   C92   1.390665 A    
O31   C15   1.276246 A    
O16   C8    1.276457 A    
C35   C55   1.407942 A    
C69   H29   1.083152 S    
C83   C87   1.412255 A    
C80   C84   1.416019 A    
C74   C78   1.405788 A    
O13   C5    1.276385 A    
