data_mof_unit_30256.cif
_audit_creation_date              2013-03-05T15:39:28-0500
_audit_creation_method            fapswitch 2.2
_symmetry_space_group_name_H-M    P1
_symmetry_Int_Tables_number       1
_space_group_crystal_system       triclinic
_cell_length_a                    16.859662
_cell_length_b                    16.889249
_cell_length_c                    16.860128
_cell_angle_alpha                 67.548494
_cell_angle_beta                  67.625272
_cell_angle_gamma                 67.548958
_cell_volume                      3942.68334538

loop_
_atom_site_label
_atom_site_type_symbol
_atom_site_description
_atom_site_fract_x
_atom_site_fract_y
_atom_site_fract_z
_atom_type_partial_charge
O1    O     O_R   0.124540 0.978640 0.385460 -0.551489
O2    O     O_R   0.875460 0.021360 0.614540 -0.551444
O3    O     O_R   0.978640 0.385460 0.124540 -0.546034
O4    O     O_R   0.021360 0.614540 0.875460 -0.546048
O5    O     O_R   0.385460 0.124540 0.978640 -0.548272
O6    O     O_R   0.614540 0.875460 0.021360 -0.548443
O7    O     O_R   0.614540 0.021360 0.875460 -0.551322
O8    O     O_R   0.385460 0.978640 0.124540 -0.551225
O9    O     O_R   0.875460 0.614540 0.021360 -0.545967
O10   O     O_R   0.124540 0.385460 0.978640 -0.545988
O11   O     O_R   0.021360 0.875460 0.614540 -0.548202
O12   O     O_R   0.978640 0.124540 0.385460 -0.548264
C1    C     C_R   0.596473 0.019486 0.596534 -0.160614
C2    C     C_R   0.403288 0.980843 0.403509 -0.160413
C3    C     C_R   0.017628 0.595897 0.598623 -0.157627
C4    C     C_R   0.982656 0.404016 0.401282 -0.157672
C5    C     C_R   0.598758 0.596045 0.017171 -0.157597
C6    C     C_R   0.401602 0.404257 0.981802 -0.157458
Cu1   Cu    Cu3+1 0.995180 0.995180 0.424630 1.214591
Cu2   Cu    Cu3+1 0.004820 0.004820 0.575370 1.214686
Cu3   Cu    Cu3+1 0.995180 0.424630 0.995180 1.209705
Cu4   Cu    Cu3+1 0.004820 0.575370 0.004820 1.209668
Cu5   Cu    Cu3+1 0.424630 0.995180 0.995180 1.214694
Cu6   Cu    Cu3+1 0.575370 0.004820 0.004820 1.214627
C7    C     C_R   0.023250 0.829305 0.566831 0.829462
C8    C     C_R   0.976807 0.170683 0.433148 0.829729
C9    C     C_R   0.828630 0.564526 0.028644 0.823668
C10   C     C_R   0.171370 0.435475 0.971339 0.823509
C11   C     C_R   0.565276 0.026855 0.828743 0.826906
C12   C     C_R   0.434640 0.973354 0.171235 0.826654
C13   C     C_R   0.433244 0.170734 0.976563 0.828714
C14   C     C_R   0.566840 0.829313 0.023217 0.829638
C15   C     C_R   0.971328 0.435483 0.171372 0.823627
C16   C     C_R   0.028679 0.564516 0.828627 0.823531
C17   C     C_R   0.171267 0.973042 0.434775 0.827001
C18   C     C_R   0.828740 0.026838 0.565281 0.826924
O13   O     O_R   0.013780 0.867370 0.487190 -0.528064
O14   O     O_R   0.986220 0.132630 0.512810 -0.528016
O15   O     O_R   0.867370 0.487190 0.013780 -0.533020
O16   O     O_R   0.132630 0.512810 0.986220 -0.533006
O17   O     O_R   0.487190 0.013780 0.867370 -0.523677
O18   O     O_R   0.512810 0.986220 0.132630 -0.524084
O19   O     O_R   0.512810 0.132630 0.986220 -0.527969
O20   O     O_R   0.487190 0.867370 0.013780 -0.527885
O21   O     O_R   0.986220 0.512810 0.132630 -0.533009
O22   O     O_R   0.013780 0.487190 0.867370 -0.533003
O23   O     O_R   0.132630 0.986220 0.512810 -0.523664
O24   O     O_R   0.867370 0.013780 0.487190 -0.523707
H1    H     H_    0.586863 0.865468 0.590647 0.158528
H2    H     H_    0.412903 0.134893 0.409362 0.158587
H3    H     H_    0.866522 0.607703 0.566928 0.160890
H4    H     H_    0.133786 0.392191 0.432981 0.160824
H5    H     H_    0.518457 0.473830 0.147566 0.163326
H6    H     H_    0.481877 0.526526 0.851316 0.163351
H7    H     H_    0.503824 0.848947 0.507747 0.163222
H8    H     H_    0.495935 0.151415 0.492277 0.163254
H9    H     H_    0.433349 0.392208 0.132918 0.160946
H10   H     H_    0.567016 0.608149 0.865957 0.160814
H11   H     H_    0.852064 0.526037 0.481734 0.163290
H12   H     H_    0.148241 0.473858 0.518183 0.163288
C19   C     C_R   0.546911 0.009567 0.547018 0.159319
C20   C     C_R   0.452860 0.990794 0.452991 0.159180
C21   C     C_R   0.008415 0.546496 0.548303 0.168271
C22   C     C_R   0.991892 0.453401 0.451604 0.168350
C23   C     C_R   0.548482 0.546697 0.007810 0.168265
C24   C     C_R   0.451885 0.453652 0.991070 0.167935
C25   C     C_R   0.497777 0.085374 0.495765 -0.072151
C26   C     C_R   0.501990 0.914990 0.504248 -0.071885
C27   C     C_R   0.083483 0.485297 0.510518 -0.063266
C28   C     C_R   0.916824 0.514598 0.489394 -0.063289
C29   C     C_R   0.537812 0.561238 0.924381 -0.057957
C30   C     C_R   0.462556 0.439114 0.074491 -0.057937
C31   C     C_R   0.450817 0.076016 0.448848 -0.038476
C32   C     C_R   0.548961 0.924346 0.551150 -0.038078
C33   C     C_R   0.489579 0.514974 0.916085 -0.062981
C34   C     C_R   0.510774 0.485380 0.082789 -0.063229
C35   C     C_R   0.075296 0.439008 0.462242 -0.057719
C36   C     C_R   0.925012 0.560886 0.537667 -0.057670
C37   C     C_R   0.554991 0.024725 0.684401 0.235060
C38   C     C_R   0.444551 0.976284 0.315423 0.234532
C39   C     C_R   0.010040 0.687380 0.562414 0.230806
C40   C     C_R   0.990317 0.312514 0.437436 0.230818
C41   C     C_R   0.683018 0.551773 0.032492 0.229719
C42   C     C_R   0.317091 0.448348 0.967073 0.229912
C43   C     C_R   0.315640 0.974949 0.445219 0.235357
C44   C     C_R   0.684367 0.024665 0.555037 0.235169
C45   C     C_R   0.438056 0.312880 0.988958 0.230760
C46   C     C_R   0.562522 0.687500 0.009705 0.230782
C47   C     C_R   0.967293 0.448289 0.317035 0.229785
C48   C     C_R   0.032836 0.551673 0.682934 0.229823
C49   C     C_R   0.601213 0.038137 0.731132 -0.222906
C50   C     C_R   0.398588 0.962356 0.268793 -0.223486
C51   C     C_R   0.030273 0.732722 0.604956 -0.232425
C52   C     C_R   0.969891 0.267236 0.394983 -0.232422
C53   C     C_R   0.730650 0.599655 0.041842 -0.217580
C54   C     C_R   0.269375 0.400376 0.957981 -0.218115
C55   C     C_R   0.268894 0.961677 0.398907 -0.222685
C56   C     C_R   0.731120 0.038121 0.601219 -0.223109
C57   C     C_R   0.395249 0.267391 0.969255 -0.232465
C58   C     C_R   0.604991 0.732761 0.030133 -0.232400
C59   C     C_R   0.958072 0.400366 0.269363 -0.217618
C60   C     C_R   0.041982 0.599623 0.730630 -0.217778
C61   C     C_R   0.685151 0.054987 0.685151 0.172673
C62   C     C_R   0.314834 0.945080 0.314869 0.172782
C63   C     C_R   0.054142 0.685228 0.685660 0.172777
C64   C     C_R   0.945912 0.314767 0.314338 0.172685
C65   C     C_R   0.685655 0.685228 0.054071 0.172691
C66   C     C_R   0.314352 0.314787 0.945744 0.172968
N1    N     N_R   0.463859 0.021741 0.723337 0.160309
O25   O     O_R   0.400512 0.094481 0.732754 -0.267315
O26   O     O_R   0.443456 0.948733 0.741067 -0.269373
N2    N     N_R   0.535225 0.980658 0.276101 0.160009
O27   O     O_R   0.554167 0.054768 0.257100 -0.270597
O28   O     O_R   0.599577 0.908247 0.267952 -0.266776
N3    N     N_R   0.983712 0.732772 0.481267 0.150538
O29   O     O_R   0.037908 0.716949 0.406401 -0.265917
O30   O     O_R   0.902178 0.782142 0.484033 -0.303271
N4    N     N_R   0.016965 0.267022 0.518408 0.150424
O31   O     O_R   0.098467 0.217413 0.515379 -0.304278
O32   O     O_R   0.963106 0.282893 0.593369 -0.265725
N5    N     N_R   0.718797 0.457944 0.040163 0.153428
O33   O     O_R   0.735313 0.402262 0.114352 -0.274654
O34   O     O_R   0.729884 0.427555 0.975317 -0.282462
N6    N     N_R   0.281193 0.542131 0.959612 0.153545
O35   O     O_R   0.270270 0.572388 0.024492 -0.282685
O36   O     O_R   0.264530 0.597919 0.885520 -0.274480
N7    N     N_R   0.276860 0.977440 0.536511 0.160283
O37   O     O_R   0.266630 0.904668 0.599458 -0.268208
O38   O     O_R   0.260431 0.049786 0.557512 -0.268580
N8    N     N_R   0.723373 0.021363 0.464001 0.160217
O39   O     O_R   0.740101 0.948504 0.443775 -0.269243
O40   O     O_R   0.733230 0.093903 0.400509 -0.267890
N9    N     N_R   0.519881 0.267835 0.014034 0.151009
O41   O     O_R   0.594421 0.283313 0.958445 -0.265910
O42   O     O_R   0.518138 0.219494 0.095714 -0.301150
N10   N     N_R   0.481416 0.732944 0.983305 0.150512
O43   O     O_R   0.484250 0.782392 0.901787 -0.303639
O44   O     O_R   0.406522 0.717108 0.037411 -0.265815
N11   N     N_R   0.959461 0.542151 0.281301 0.153468
O45   O     O_R   0.885275 0.597710 0.264661 -0.274659
O46   O     O_R   0.024167 0.572689 0.270319 -0.282395
N12   N     N_R   0.040611 0.457824 0.718702 0.153497
O47   O     O_R   0.975891 0.427324 0.729650 -0.282351
O48   O     O_R   0.114772 0.402236 0.735378 -0.274554
Br1   Br    Br    0.728716 0.117172 0.728704 -0.342895
Br2   Br    Br    0.271423 0.882759 0.271317 -0.343636
Br3   Br    Br    0.118136 0.728823 0.727134 -0.298498
Br4   Br    Br    0.881810 0.271226 0.272937 -0.299122
Br5   Br    Br    0.727046 0.728735 0.118209 -0.299883
Br6   Br    Br    0.272693 0.271092 0.881993 -0.298542

loop_
_geom_bond_atom_site_label_1
_geom_bond_atom_site_label_2
_geom_bond_distance
_ccdc_geom_bond_type
Cu2   O14   1.966273 S    
C8    C52   1.482333 S    
O6    C14   1.302334 A    
C1    C37   1.398466 A    
C61   Br1   1.941821 S    
C7    C51   1.482430 S    
C40   C52   1.422174 A    
O10   C10   1.306921 A    
C28   C36   1.395197 A    
C5    C46   1.401494 A    
Cu6   O18   1.964781 S    
C22   C35   1.402212 A    
C45   N9    1.434369 S    
C9    C53   1.484158 S    
Cu1   Cu2   2.676350 S    
O3    Cu3   1.961656 S    
C30   C34   1.395101 A    
C17   O23   1.290469 A    
N2    O28   1.301174 A    
H7    C26   1.083208 S    
C3    C39   1.401558 A    
C57   C66   1.411903 A    
O1    C17   1.304856 A    
C16   C60   1.484241 S    
C23   C34   1.402064 A    
C13   O19   1.291145 A    
C15   C59   1.484231 S    
C47   C59   1.418958 A    
N1    O26   1.300858 A    
O9    Cu4   1.961603 S    
O3    C15   1.307021 A    
C26   C32   1.394723 A    
C56   C61   1.410187 A    
C63   Br3   1.941506 S    
O8    Cu5   1.962144 S    
C64   Br4   1.941496 S    
C60   C63   1.406414 A    
C42   C54   1.419044 A    
N4    O31   1.301015 A    
C48   C60   1.418971 A    
Cu1   O13   1.966274 S    
C51   C63   1.411921 A    
C27   C35   1.395238 A    
C24   C30   1.402144 A    
C21   C27   1.402124 A    
C9    O15   1.291990 A    
C47   N11   1.436886 S    
O5    Cu5   1.964698 S    
C1    C44   1.398579 A    
C6    C42   1.401464 A    
Cu5   Cu6   2.676285 S    
C20   C31   1.401759 A    
C25   C31   1.394781 A    
C13   C57   1.482642 S    
C37   C49   1.420554 A    
C7    O13   1.291228 A    
O4    Cu4   1.961657 S    
C54   C66   1.406626 A    
O6    Cu6   1.964699 S    
C4    C47   1.401679 A    
Cu3   Cu4   2.680777 S    
C39   N3    1.434542 S    
N2    O27   1.300940 A    
C45   C57   1.422127 A    
O10   Cu3   1.961603 S    
O4    C16   1.306993 A    
O11   Cu2   1.964697 S    
O1    Cu1   1.962090 S    
C37   N1    1.435323 S    
O2    Cu2   1.962089 S    
Cu2   O23   1.964743 S    
C62   Br2   1.941805 S    
C46   N10   1.434529 S    
N10   O44   1.301046 A    
H2    C31   1.083265 S    
Cu1   O24   1.964743 S    
C8    O14   1.291219 A    
N3    O30   1.300955 A    
C23   C29   1.402261 A    
Cu5   O20   1.966276 S    
C14   C58   1.482309 S    
O12   C8    1.302314 A    
C5    C41   1.401588 A    
C38   C50   1.420657 A    
N8    O40   1.301105 A    
C22   C28   1.402122 A    
N7    O38   1.300906 A    
C15   O21   1.292032 A    
C39   C51   1.422172 A    
C19   C25   1.400718 A    
Cu3   O15   1.964098 S    
Cu4   O16   1.964097 S    
C38   N2    1.435010 S    
C4    C40   1.401604 A    
O7    Cu6   1.962146 S    
C14   O20   1.291151 A    
C48   N12   1.436872 S    
C41   C53   1.418983 A    
C41   N5    1.436878 S    
N5    O33   1.301247 A    
C46   C58   1.422154 A    
C53   C65   1.406380 A    
C16   O22   1.292060 A    
C12   C50   1.483627 S    
C2    C38   1.398343 A    
N9    O41   1.301217 A    
C66   Br6   1.941574 S    
C43   N7    1.435512 S    
H5    C34   1.083191 S    
C42   N6    1.436839 S    
C40   N4    1.434592 S    
O7    C11   1.304701 A    
C11   C49   1.483696 S    
O9    C9    1.307015 A    
N6    O36   1.301228 A    
Cu3   O22   1.964137 S    
O2    C18   1.304778 A    
C59   C64   1.406346 A    
C52   C64   1.411928 A    
C58   C65   1.411882 A    
C3    C21   1.476496 S    
C11   O17   1.290548 A    
N12   O47   1.301308 A    
C44   N8    1.435390 S    
C2    C43   1.398512 A    
C49   C61   1.410154 A    
N10   O43   1.300954 A    
N11   O45   1.301244 A    
N7    O37   1.301126 A    
C19   C32   1.401754 A    
C6    C24   1.476350 S    
H8    C25   1.083205 S    
C5    C23   1.476452 S    
C6    C45   1.401358 A    
Cu5   O17   1.964782 S    
C20   C26   1.400699 A    
C10   C54   1.484210 S    
O8    C12   1.304639 A    
N8    O39   1.300870 A    
H3    C36   1.083077 S    
N1    O25   1.301104 A    
C3    C48   1.401623 A    
C29   C33   1.395269 A    
N11   O46   1.301312 A    
N3    O29   1.301024 A    
H12   C27   1.083185 S    
C24   C33   1.402063 A    
O12   Cu1   1.964697 S    
C18   O24   1.290557 A    
N12   O48   1.301240 A    
H9    C30   1.083077 S    
C44   C56   1.420725 A    
N4    O32   1.301095 A    
N5    O34   1.301314 A    
C55   C62   1.410001 A    
C43   C55   1.420617 A    
H10   C29   1.083072 S    
C50   C62   1.410308 A    
H11   C28   1.083188 S    
H6    C33   1.083182 S    
C65   Br5   1.941496 S    
O11   C7    1.302364 A    
Cu4   O21   1.964136 S    
C1    C19   1.472439 S    
N9    O42   1.301037 A    
Cu6   O19   1.966277 S    
C10   O16   1.292090 A    
H1    C32   1.083268 S    
C12   O18   1.290501 A    
C18   C56   1.483805 S    
C4    C22   1.476507 S    
C17   C55   1.483677 S    
H4    C35   1.083077 S    
N6    O35   1.301295 A    
O5    C13   1.302549 A    
C21   C36   1.402185 A    
C2    C20   1.472419 S    
