data_mof_unit_13791.cif
_audit_creation_date              2012-10-26T21:10:27-0400
_audit_creation_method            fapswitch 2.2
_symmetry_space_group_name_H-M    P1
_symmetry_Int_Tables_number       1
_space_group_crystal_system       triclinic
_cell_length_a                    10.917522
_cell_length_b                    10.912142
_cell_length_c                    9.765591
_cell_angle_alpha                 89.367462
_cell_angle_beta                  91.060591
_cell_angle_gamma                 90.088286
_cell_volume                      1163.13828778

loop_
_atom_site_label
_atom_site_type_symbol
_atom_type_description
_atom_site_fract_x
_atom_site_fract_y
_atom_site_fract_z
_atom_type_partial_charge
C1    C     C_R   0.495660 0.265648 0.500464 0.554772
C2    C     C_R   0.837827 0.533316 0.994724 -0.067240
C3    C     C_R   0.803936 0.412139 0.022779 -0.200569
C4    C     C_R   0.262228 0.501802 0.498545 0.539372
C5    C     C_R   0.812788 0.323159 0.922349 -0.089623
C6    C     C_R   0.856351 0.354499 0.793347 0.377898
C7    C     C_R   0.890035 0.476302 0.763314 0.103683
C8    C     C_2   0.487936 0.934432 0.391498 -0.100246
C9    C     C_2   0.521262 0.865541 0.500230 0.424826
C10   C     C_2   0.501845 0.067557 0.391321 -0.108266
C11   C     C_2   0.478439 0.134259 0.502334 0.424826
C12   C     C_R   0.179799 0.394949 0.977112 -0.112479
C13   C     C_2   0.481473 0.402162 0.924068 0.459110
C14   C     C_2   0.512986 0.403871 0.077088 0.127561
C15   C     C_R   0.504211 0.734287 0.499570 0.532727
C16   C     C_R   0.737453 0.497617 0.501641 0.542713
C17   C     C_R   0.185896 0.515854 0.022648 -0.012869
C18   C     C_R   0.148506 0.544516 0.153995 -0.088498
C19   C     C_R   0.109452 0.451380 0.242725 0.048857
C20   C     C_R   0.108042 0.328641 0.199125 0.292790
C21   C     C_R   0.140880 0.301620 0.064795 -0.121703
C22   C     C_3   0.438356 0.191365 0.941379 -0.102137
C23   C     C_R   0.931178 0.487550 0.380514 -0.125938
C24   C     C_3   0.167675 0.177057 0.345328 -0.071397
C25   C     C_3   0.812759 0.758756 0.813045 -0.033055
C26   C     C_R   0.871326 0.496314 0.504683 -0.019343
C27   C     C_R   0.940922 0.505116 0.627274 0.054717
C28   C     C_R   0.066749 0.521888 0.619757 0.371446
C29   C     C_R   0.127749 0.504240 0.496197 0.007085
C30   C     C_R   0.057678 0.483534 0.375558 -0.050399
C31   C     C_R   0.879449 0.566750 0.864263 0.298432
Cu1   Cu    Cu3+1 0.500020 0.500020 0.638630 1.188538
Cu2   Cu    Cu3+1 0.499980 0.499980 0.361370 1.036237
F1    F     F_    0.866870 0.265913 0.697742 -0.617317
F2    F     F_    0.579368 0.914670 0.611431 -0.580772
F3    F     F_    0.428460 0.082961 0.616071 -0.585415
F4    F     F_    0.571460 0.585531 0.899783 -0.541092
F5    F     F_    0.436261 0.592513 0.096991 -0.516181
F6    F     F_    0.129437 0.552251 0.734967 -0.642940
H1    H     H_    0.205329 0.373091 0.873847 0.218989
H2    H     H_    0.879401 0.478153 0.286383 0.142404
H3    H     H_    0.831511 0.601441 0.073993 0.141189
H4    H     H_    0.385837 0.198591 0.037383 0.068515
H5    H     H_    0.535855 0.167150 0.962559 0.122488
H6    H     H_    0.396977 0.115130 0.882315 0.235838
H7    H     H_    0.223605 0.241562 0.408104 0.124794
H8    H     H_    0.225502 0.132734 0.267320 0.093907
H9    H     H_    0.134231 0.103903 0.415029 0.183133
H10   H     H_    0.755886 0.765469 0.906020 0.172921
H11   H     H_    0.756943 0.723989 0.725119 0.174566
H12   H     H_    0.769833 0.386478 0.122149 0.135406
H13   H     H_    0.843270 0.852776 0.785837 0.179345
H14   H     H_    0.786450 0.229530 0.944917 0.151261
H15   H     H_    0.452368 0.892407 0.298543 0.108623
H16   H     H_    0.529308 0.111315 0.296210 0.073806
H17   H     H_    0.545636 0.320786 0.126972 0.021707
H18   H     H_    0.219084 0.588142 0.956474 0.245001
H19   H     H_    0.149437 0.639103 0.186519 0.141257
H20   H     H_    0.136075 0.208305 0.028563 0.143333
N1    N     N_2   0.498640 0.498660 0.846910 0.087483
N2    N     N_2   0.498610 0.498630 0.153040 0.052643
O1    O     O_R   0.500020 0.321960 0.617040 -0.420062
O2    O     O_3   0.065662 0.236607 0.284260 -0.552168
O3    O     O_3   0.917201 0.685493 0.837917 -0.553826
O4    O     O_R   0.499980 0.321920 0.382900 -0.593927
O5    O     O_R   0.319660 0.500030 0.617070 -0.438442
O6    O     O_R   0.319620 0.499990 0.382930 -0.513790
O7    O     O_R   0.500020 0.678080 0.617100 -0.432659
O8    O     O_R   0.499980 0.678040 0.382960 -0.503404
O9    O     O_R   0.680380 0.500010 0.617070 -0.510959
O10   O     O_R   0.680340 0.499970 0.382930 -0.526287
O11   O     O_3   0.429121 0.299617 0.861698 -0.571200

loop_
_geom_bond_atom_site_label_1
_geom_bond_atom_site_label_2
_ccdc_geom_bond_type
C12   C17   A    
C12   H1    S    
C4    O6    A    
C14   H17   S    
C6    C7    A    
C13   O11   S    
C22   H4    S    
C7    C27   S    
C1    O4    A    
C4    C29   S    
C1    C11   S    
Cu2   O8    S    
Cu1   O7    S    
F5    N2    S    
C24   H7    S    
C1    O1    A    
C20   O2    S    
C17   C18   A    
C9    C15   S    
C25   H13   S    
Cu1   O1    S    
C13   N1    D    
C13   C14   S    
Cu1   Cu2   S    
C4    O5    A    
C10   H16   S    
C19   C30   S    
C26   C27   A    
C29   C30   A    
C16   O10   A    
C8    H15   S    
C2    H3    S    
C15   O7    A    
C31   O3    S    
Cu2   N2    S    
C28   C29   A    
C21   H20   S    
C24   O2    S    
C2    C3    A    
C22   O11   S    
C16   C26   S    
C5    C6    A    
C15   O8    A    
C25   H10   S    
F4    N1    S    
C7    C31   A    
C10   C11   D    
Cu1   N1    S    
Cu2   O10   S    
Cu2   O4    S    
C24   H9    S    
C23   C30   A    
C6    F1    S    
C14   N2    D    
C22   H6    S    
C16   O9    A    
C20   C21   A    
Cu2   O6    S    
C8    C9    D    
Cu1   O5    S    
C18   C19   A    
C23   C26   A    
C5    H14   S    
C27   C28   A    
C9    F2    S    
C3    H12   S    
C25   H11   S    
C11   F3    S    
Cu1   O9    S    
C28   F6    S    
C24   H8    S    
C12   C21   A    
C18   H19   S    
C8    C10   S    
C22   H5    S    
C19   C20   A    
C17   H18   S    
C2    C31   A    
C3    C5    A    
C25   O3    S    
C23   H2    S    
