data_mof_unit_55589.cif
_audit_creation_date              2012-12-10T18:58:43-0500
_audit_creation_method            fapswitch 2.2
_symmetry_space_group_name_H-M    P1
_symmetry_Int_Tables_number       1
_space_group_crystal_system       triclinic
_cell_length_a                    13.022729
_cell_length_b                    10.856763
_cell_length_c                    9.592616
_cell_angle_alpha                 90.458608
_cell_angle_beta                  95.695362
_cell_angle_gamma                 92.187715
_cell_volume                      1348.47548902

loop_
_atom_site_label
_atom_site_type_symbol
_atom_type_description
_atom_site_fract_x
_atom_site_fract_y
_atom_site_fract_z
_atom_type_partial_charge
C1    C     C_R   0.499172 0.262507 0.499549 0.812392
C2    C     C_R   0.024363 0.452777 0.564093 0.125967
C3    C     C_R   0.971892 0.487931 0.435200 0.146934
C4    C     C_R   0.865215 0.496426 0.422767 -0.207694
C5    C     C_R   0.861086 0.441393 0.665946 -0.194911
C6    C     C_R   0.967089 0.427680 0.678479 -0.161186
C7    C     C_R   0.513121 0.064047 0.622823 0.070370
C8    C     C_R   0.498485 0.129015 0.498228 -0.119949
C9    C     C_R   0.476872 0.063868 0.371594 -0.157043
C10   C     C_R   0.462221 0.935548 0.369572 0.003586
C11   C     C_R   0.483153 0.870145 0.496584 -0.151198
C12   C     C_R   0.300623 0.494578 0.474770 0.800026
C13   C     C_R   0.506264 0.936463 0.622318 0.047854
C14   C     C_3   0.447676 0.936484 0.750341 -0.199955
C15   C     C_3   0.456977 0.076153 0.750284 -0.350698
C16   C     C_R   0.526068 0.605239 0.076405 0.152009
C17   C     C_R   0.451639 0.406023 0.065060 0.068950
C18   C     C_R   0.454730 0.405780 0.916770 -0.027082
C19   C     C_R   0.530928 0.602049 0.932041 0.183455
C20   C     C_3   0.626380 0.683253 0.936594 -0.257357
C21   C     C_3   0.611693 0.704435 0.092735 -0.264029
C22   C     C_R   0.492127 0.736772 0.498912 0.768124
C23   C     C_R   0.698786 0.494450 0.525575 0.794920
C24   C     C_R   0.810036 0.478700 0.539099 -0.082093
C25   C     C_R   0.187440 0.485511 0.462447 -0.100647
C26   C     C_R   0.026398 0.516740 0.320811 -0.156859
C27   C     C_R   0.133305 0.517373 0.334986 -0.200579
C28   C     C_R   0.132540 0.446545 0.576302 -0.055149
Cu1   Cu    Cu3+1 0.499990 0.499980 0.640670 0.954387
Cu2   Cu    Cu3+1 0.500010 0.500020 0.359330 0.938188
H1    H     H_    0.825497 0.518265 0.322484 0.200563
H2    H     H_    0.490995 0.897488 0.843836 0.141972
H3    H     H_    0.382599 0.123006 0.729024 0.243166
H4    H     H_    0.508257 0.114998 0.840845 0.199572
H5    H     H_    0.417584 0.331295 0.852797 0.178684
H6    H     H_    0.616946 0.766824 0.872037 0.105364
H7    H     H_    0.577770 0.795400 0.106810 0.144276
H8    H     H_    0.819022 0.420915 0.755023 0.203400
H9    H     H_    0.003530 0.400134 0.779116 0.167522
H10   H     H_    0.173792 0.545061 0.246261 0.163075
H11   H     H_    0.463140 0.113689 0.275076 0.220495
N1    N     N_R   0.500660 0.500930 0.148010 -0.221769
N2    N     N_R   0.500660 0.500890 0.852110 -0.204484
O1    O     O_R   0.500000 0.319640 0.618810 -0.579715
O2    O     O_R   0.500010 0.319680 0.381230 -0.609015
O3    O     O_R   0.348990 0.499960 0.599490 -0.599731
O4    O     O_R   0.349000 0.500000 0.361910 -0.618767
O5    O     O_R   0.499990 0.680320 0.618770 -0.588533
O6    O     O_R   0.500000 0.680360 0.381190 -0.622498
O7    O     O_R   0.651000 0.500000 0.638090 -0.578593
O8    O     O_R   0.651010 0.500040 0.400510 -0.585408
C29   C     C_2   0.385400 0.308862 0.122033 0.347759
H12   H     H_    0.351743 0.322014 0.218805 0.134185
O9    O     O_2   0.363310 0.212711 0.056989 -0.533730
C30   C     C_2   0.719637 0.612701 0.907085 0.578061
H13   H     H_    0.773801 0.652571 0.839532 0.038628
O10   O     O_2   0.735994 0.512326 0.959864 -0.546872
C31   C     C_2   0.702231 0.693732 0.201544 0.469486
H14   H     H_    0.689239 0.696143 0.310878 0.090346
O11   O     O_2   0.790984 0.700391 0.170790 -0.564966
H15   H     H_    0.986443 0.543096 0.221617 0.180762
C32   C     C_2   0.186407 0.396985 0.706258 0.354224
H16   H     H_    0.229075 0.458790 0.782545 0.075073
O12   O     O_2   0.181930 0.286527 0.728831 -0.505479
C33   C     C_2   0.412870 0.875704 0.238260 0.367896
H17   H     H_    0.372596 0.786640 0.240559 0.098719
O13   O     O_2   0.413167 0.927491 0.125694 -0.552200
C34   C     C_2   0.338232 0.884127 0.726049 0.486598
H18   H     H_    0.312717 0.812214 0.794055 0.062158
O14   O     O_2   0.278193 0.920412 0.630554 -0.520958

loop_
_geom_bond_atom_site_label_1
_geom_bond_atom_site_label_2
_ccdc_geom_bond_type
C8    C9    A    
C22   O5    A    
C30   H13   S    
C15   H4    S    
C16   C21   S    
C25   C27   A    
C1    C8    S    
C2    C28   A    
C9    C10   A    
C12   C25   S    
Cu2   O2    S    
C9    H11   S    
C19   C20   S    
C14   C15   S    
C7    C13   A    
Cu1   O3    S    
C23   C24   S    
C32   H16   S    
C7    C15   S    
C17   C18   A    
C21   H7    S    
C21   C31   S    
C2    C6    A    
C13   C14   S    
C29   H12   S    
C25   C28   A    
C11   C13   A    
C1    O2    A    
C26   C27   A    
Cu1   Cu2   S    
C5    C24   A    
C28   C32   S    
C12   O4    A    
C17   C29   S    
C12   O3    A    
Cu2   O6    S    
C19   N2    A    
C2    C3    A    
Cu1   O7    S    
C30   O10   D    
Cu1   O1    S    
C16   C19   A    
C5    C6    A    
C4    C24   A    
C4    H1    S    
C20   C30   S    
C10   C11   A    
Cu1   O5    S    
C31   O11   D    
C3    C4    A    
Cu2   O8    S    
C16   N1    A    
Cu2   O4    S    
C7    C8    A    
C5    H8    S    
C20   C21   S    
C11   C22   S    
C34   O14   D    
C33   H17   S    
C18   H5    S    
C10   C33   S    
C22   O6    A    
C6    H9    S    
C14   C34   S    
C17   N1    A    
Cu2   N1    S    
C23   O7    A    
C32   O12   D    
C1    O1    A    
C27   H10   S    
C33   O13   D    
C31   H14   S    
C18   N2    A    
C14   H2    S    
C26   H15   S    
C3    C26   A    
Cu1   N2    S    
C23   O8    A    
C29   O9    D    
C34   H18   S    
C15   H3    S    
C20   H6    S    
