data_mof_unit_67850.cif
_audit_creation_date              2013-03-05T15:41:50-0500
_audit_creation_method            fapswitch 2.2
_symmetry_space_group_name_H-M    P1
_symmetry_Int_Tables_number       1
_space_group_crystal_system       triclinic
_cell_length_a                    8.0073
_cell_length_b                    8.644173
_cell_length_c                    10.686518
_cell_angle_alpha                 96.116505
_cell_angle_beta                  86.097399
_cell_angle_gamma                 92.961337
_cell_volume                      733.031331525

loop_
_atom_site_label
_atom_site_type_symbol
_atom_site_description
_atom_site_fract_x
_atom_site_fract_y
_atom_site_fract_z
_atom_type_partial_charge
O1    O     O_R   0.389250 0.738570 0.508410 -0.634600
O2    O     O_R   0.610750 0.261430 0.491590 -0.638949
O3    O     O_R   0.678390 0.711620 0.486450 -0.576268
O4    O     O_R   0.321610 0.288380 0.513550 -0.596831
C1    C     C_R   0.543500 0.793672 0.501227 0.947252
C2    C     C_R   0.456522 0.206334 0.498704 0.946087
O5    O     O_R   0.355460 0.513510 0.697030 -0.624950
O6    O     O_R   0.644540 0.486490 0.302970 -0.615061
O7    O     O_R   0.644600 0.486560 0.675070 -0.647889
O8    O     O_R   0.355400 0.513440 0.324930 -0.640496
C3    C     C_R   0.501739 0.499355 0.741093 1.010051
C4    C     C_R   0.498147 0.499529 0.258714 1.004189
Zn1   Zn    Zn3+2 0.306940 0.517990 0.514670 1.020522
Zn2   Zn    Zn3+2 0.693060 0.482010 0.485330 1.025846
N1    N     N_2   0.950320 0.457950 0.465730 0.023307
N2    N     N_2   0.049680 0.542050 0.534270 0.002475
C5    C     C_3   0.444498 0.631158 0.970472 0.188105
C6    C     C_3   0.555618 0.365786 0.028938 0.185428
C7    C     C_3   0.597724 0.618150 0.047057 0.212573
C8    C     C_3   0.402764 0.378684 0.952016 0.212093
C9    C     C_3   0.495639 0.501309 0.124482 -0.330594
C10   C     C_3   0.504320 0.495813 0.874966 -0.327656
C11   C     C_3   0.342499 0.514351 0.046959 0.027555
C12   C     C_3   0.657409 0.482302 0.952163 0.030020
C13   C     C_2   0.558994 0.958746 0.522242 0.024748
C14   C     C_2   0.441149 0.041287 0.477680 0.014467
N3    N     N_R   0.698641 0.753286 0.097277 0.246838
O9    O     O_R   0.750032 0.859707 0.024722 -0.260563
O10   O     O_R   0.735578 0.770484 0.214605 -0.345369
N4    N     N_R   0.303819 0.242925 0.900549 0.243812
O11   O     O_R   0.255828 0.133972 0.971566 -0.258209
O12   O     O_R   0.260429 0.230321 0.784755 -0.353865
N5    N     N_R   0.384785 0.775929 0.935606 0.254779
O13   O     O_R   0.236811 0.821051 0.976371 -0.307336
O14   O     O_R   0.477198 0.857980 0.860024 -0.306543
N6    N     N_R   0.615123 0.220946 0.063930 0.254038
O15   O     O_R   0.762601 0.174999 0.022663 -0.307950
O16   O     O_R   0.522797 0.139433 0.139946 -0.308534
N7    N     N_2   0.174214 0.541755 0.098408 -0.284838
H1    H     H_    0.166296 0.624204 0.175425 0.312733
C15   C     C_3   0.067771 0.404286 0.108659 -0.583571
H2    H     H_    0.132687 0.319164 0.155858 0.253534
H3    H     H_    0.040810 0.349110 0.014036 0.299895
H4    H     H_    0.946958 0.436022 0.159474 0.257779
N8    N     N_2   0.824302 0.453034 0.898782 -0.283095
H5    H     H_    0.829557 0.366711 0.824424 0.311858
C16   C     C_3   0.929655 0.589251 0.880833 -0.625680
H6    H     H_    0.045529 0.555163 0.824195 0.247978
H7    H     H_    0.964988 0.646724 0.972907 0.308348
H8    H     H_    0.860431 0.673120 0.835832 0.245192
N9    N     N_2   0.019403 0.347804 0.377485 -0.276786
H9    H     H_    0.144004 0.331076 0.374778 0.285689
C17   C     C_3   0.912450 0.213557 0.340569 -0.458629
H10   H     H_    0.977566 0.136883 0.264815 0.263079
H11   H     H_    0.798073 0.248858 0.301152 0.250051
H12   H     H_    0.881848 0.145916 0.421762 0.286179
N10   N     N_2   0.981819 0.677679 0.590831 -0.217166
H13   H     H_    0.865205 0.663586 0.634056 0.259891
C18   C     C_3   0.092534 0.789010 0.659081 -0.432381
H14   H     H_    0.021761 0.855635 0.738118 0.249625
H15   H     H_    0.145066 0.875381 0.596562 0.283511
H16   H     H_    0.192666 0.732485 0.700165 0.233318
N11   N     N_R   0.670870 0.026393 0.615439 0.207677
O17   O     O_R   0.826443 0.989284 0.607356 -0.376300
O18   O     O_R   0.614273 0.114179 0.714148 -0.322746
N12   N     N_R   0.328577 0.973547 0.385044 0.209956
O19   O     O_R   0.172019 0.007629 0.395614 -0.382418
O20   O     O_R   0.384387 0.886118 0.285868 -0.315206

loop_
_geom_bond_atom_site_label_1
_geom_bond_atom_site_label_2
_geom_bond_distance
_ccdc_geom_bond_type
C1    C13   1.420972 S    
O1    Zn1   1.991437 S    
N12   O20   1.301485 A    
O7    Zn2   2.034946 S    
N11   O18   1.301465 A    
C7    C9    1.540645 S    
N9    H9    1.013547 S    
N1    N9    1.376192 S    
N3    O10   1.299191 A    
C6    C9    1.543380 S    
C7    N3    1.460638 S    
C15   H2    1.104684 S    
C3    C10   1.435796 S    
O5    C3    1.307980 A    
C5    C10   1.541693 S    
O1    C1    1.300922 A    
C8    C11   1.541381 S    
O6    C4    1.308027 A    
N3    O9    1.298539 A    
Zn1   N2    2.075284 S    
N6    O16   1.299739 A    
N5    O13   1.298889 A    
C2    C14   1.420703 S    
N12   O19   1.297261 A    
C18   H14   1.109566 S    
N7    C15   1.435586 S    
C8    N4    1.460503 S    
N8    H5    1.030702 S    
N4    O12   1.299890 A    
C15   H3    1.101310 S    
O7    C3    1.305831 A    
N10   H13   1.020619 S    
C5    C11   1.534419 S    
O3    Zn2   1.993029 S    
C5    N5    1.455664 S    
O2    C2    1.300722 A    
C6    C12   1.533671 S    
C12   N8    1.440732 S    
O8    C4    1.306771 A    
O4    C2    1.314164 A    
N6    O15   1.298845 A    
N5    O14   1.299807 A    
C8    C10   1.538126 S    
C7    C12   1.540771 S    
C16   H8    1.102819 S    
C6    C8    1.535186 S    
N2    N10   1.380300 S    
C17   H11   1.103677 S    
C9    C11   1.541167 S    
N4    O11   1.298413 A    
O2    Zn2   1.991437 S    
C15   H4    1.109120 S    
C10   C12   1.539433 S    
C18   H15   1.102872 S    
N10   C18   1.447179 S    
N1    N2    1.266515 D    
C14   N12   1.441812 S    
O3    C1    1.314044 A    
O5    Zn1   2.017658 S    
N8    C16   1.434707 S    
C16   H7    1.101917 S    
C13   N11   1.442074 S    
C17   H12   1.104144 S    
N7    H1    1.030507 S    
Zn2   N1    2.075284 S    
C18   H16   1.099307 S    
O6    Zn2   2.017656 S    
C5    C7    1.535703 S    
C13   C14   1.352554 D    
C17   H10   1.109244 S    
C6    N6    1.456055 S    
C4    C9    1.437702 S    
C11   N7    1.441717 S    
C16   H6    1.108085 S    
O4    Zn1   1.993029 S    
N11   O17   1.297270 A    
N9    C17   1.442727 S    
O8    Zn1   2.034946 S    
