data_mof_unit_64812.cif
_audit_creation_date              2013-03-05T16:04:21-0500
_audit_creation_method            fapswitch 2.2
_symmetry_space_group_name_H-M    P1
_symmetry_Int_Tables_number       1
_space_group_crystal_system       triclinic
_cell_length_a                    18.336245
_cell_length_b                    18.339092
_cell_length_c                    18.331316
_cell_angle_alpha                 119.963096
_cell_angle_beta                  59.977276
_cell_angle_gamma                 120.03701
_cell_volume                      4358.04318341

loop_
_atom_site_label
_atom_site_type_symbol
_atom_site_description
_atom_site_fract_x
_atom_site_fract_y
_atom_site_fract_z
_atom_type_partial_charge
Zn1   Zn    Zn3+2 0.206570 0.293400 0.880180 0.992923
Zn2   Zn    Zn3+2 0.793430 0.706600 0.119820 0.992917
Zn3   Zn    Zn3+2 0.380110 0.293420 0.706660 0.964963
Zn4   Zn    Zn3+2 0.619890 0.706580 0.293340 0.964962
Zn5   Zn    Zn3+2 0.206560 0.293420 0.706670 0.970070
Zn6   Zn    Zn3+2 0.793440 0.706580 0.293330 0.970074
Zn7   Zn    Zn3+2 0.206610 0.119900 0.706640 0.984666
Zn8   Zn    Zn3+2 0.793390 0.880100 0.293360 0.984648
O1    O     O_3   0.249960 0.250040 0.750040 -0.482389
O2    O     O_3   0.750040 0.749960 0.249960 -0.482386
O3    O     O_R   0.305100 0.073510 0.634200 -0.642096
O4    O     O_R   0.694900 0.926490 0.365800 -0.642098
O5    O     O_R   0.134110 0.365830 0.926590 -0.641573
O6    O     O_R   0.865890 0.634170 0.073410 -0.641577
O7    O     O_R   0.426490 0.365840 0.805130 -0.651111
O8    O     O_R   0.573510 0.634160 0.194870 -0.651112
O9    O     O_R   0.134150 0.194970 0.634230 -0.647987
O10   O     O_R   0.865850 0.805030 0.365770 -0.647985
O11   O     O_R   0.426480 0.365860 0.634240 -0.647952
O12   O     O_R   0.573520 0.634140 0.365760 -0.647953
O13   O     O_R   0.134190 0.073490 0.805100 -0.637348
O14   O     O_R   0.865810 0.926510 0.194900 -0.637355
O15   O     O_R   0.305020 0.365860 0.634250 -0.647409
O16   O     O_R   0.694980 0.634140 0.365750 -0.647407
O17   O     O_R   0.134160 0.194930 0.926560 -0.619067
O18   O     O_R   0.865840 0.805070 0.073440 -0.619068
O19   O     O_R   0.305030 0.365830 0.926580 -0.640386
O20   O     O_R   0.694970 0.634170 0.073420 -0.640384
O21   O     O_R   0.134180 0.073510 0.634210 -0.645267
O22   O     O_R   0.865820 0.926490 0.365790 -0.645273
O23   O     O_R   0.426530 0.194970 0.634210 -0.649081
O24   O     O_R   0.573470 0.805030 0.365790 -0.649082
O25   O     O_R   0.134110 0.365840 0.805150 -0.648522
O26   O     O_R   0.865890 0.634160 0.194850 -0.648521
C1    C     C_R   0.390182 0.109913 0.609871 0.788657
C2    C     C_R   0.609818 0.890087 0.390128 0.788657
C3    C     C_R   0.109776 0.390157 0.890202 0.791311
C4    C     C_R   0.890223 0.609843 0.109798 0.791309
C5    C     C_R   0.390113 0.390159 0.890182 0.785157
C6    C     C_R   0.609887 0.609841 0.109818 0.785157
C7    C     C_R   0.109831 0.109909 0.609893 0.788147
C8    C     C_R   0.890168 0.890090 0.390107 0.788149
C9    C     C_R   0.390094 0.390192 0.609921 0.790067
C10   C     C_R   0.609906 0.609808 0.390079 0.790068
C11   C     C_R   0.110946 0.110042 0.890140 0.796367
C12   C     C_R   0.889054 0.889958 0.109860 0.796353
H1    H     H_    0.336101 0.358973 0.136029 0.156734
H2    H     H_    0.663846 0.641067 0.864021 0.156741
C13   C     C_R   0.298674 0.234575 0.034300 -0.114813
C14   C     C_R   0.701298 0.765445 0.965757 -0.114823
H3    H     H_    0.366835 0.235774 0.994337 0.138097
H4    H     H_    0.633140 0.764245 0.005745 0.138090
C15   C     C_R   0.228161 0.163033 0.006461 -0.192561
C16   C     C_R   0.771823 0.836977 0.993583 -0.192510
H5    H     H_    0.242717 0.108694 0.945207 0.136529
H6    H     H_    0.757279 0.891307 0.054851 0.136515
C17   C     C_R   0.139292 0.160606 0.057752 0.010731
C18   C     C_R   0.860689 0.839405 0.942261 0.010731
C19   C     C_R   0.121594 0.232222 0.138076 0.350876
C20   C     C_R   0.878371 0.767802 0.861916 0.350844
C21   C     C_R   0.193609 0.303059 0.165582 -0.205492
C22   C     C_R   0.806344 0.696975 0.834424 -0.205487
H7    H     H_    0.181961 0.358499 0.226551 0.176483
H8    H     H_    0.817980 0.641545 0.773440 0.176482
C23   C     C_R   0.281353 0.304003 0.114117 -0.174096
C24   C     C_R   0.718603 0.696029 0.885922 -0.174094
C25   C     C_R   0.009558 0.025734 0.081317 -0.173119
C26   C     C_R   0.990437 0.974267 0.918685 -0.173069
H9    H     H_    0.018336 0.044536 0.143433 0.156350
H10   H     H_    0.981658 0.955467 0.856570 0.156356
C27   C     C_R   0.943795 0.945964 0.053579 -0.046603
C28   C     C_R   0.056202 0.054037 0.946422 -0.046591
C29   C     C_R   0.933555 0.919831 0.971643 0.063737
C30   C     C_R   0.066438 0.080171 0.028360 0.063733
C31   C     C_R   0.027048 0.473602 0.907038 -0.182206
C32   C     C_R   0.972952 0.526398 0.092962 -0.182200
H11   H     H_    0.047405 0.453781 0.835149 0.168828
H12   H     H_    0.952595 0.546219 0.164851 0.168831
C33   C     C_R   0.973643 0.527064 0.960461 -0.174152
C34   C     C_R   0.026357 0.472937 0.039539 -0.174137
H13   H     H_    0.953853 0.547431 0.928736 0.175282
H14   H     H_    0.046148 0.452568 0.071264 0.175286
C35   C     C_R   0.946321 0.553730 0.053695 -0.001742
C36   C     C_R   0.053679 0.446269 0.946305 -0.001746
C37   C     C_R   0.027323 0.092932 0.526086 -0.184210
C38   C     C_R   0.972677 0.907068 0.473914 -0.184207
H15   H     H_    0.047902 0.164792 0.545651 0.167187
H16   H     H_    0.952098 0.835208 0.454349 0.167192
C39   C     C_R   0.973893 0.039447 0.472604 -0.182664
C40   C     C_R   0.026107 0.960553 0.527396 -0.182655
H17   H     H_    0.954312 0.071110 0.451968 0.171315
H18   H     H_    0.045688 0.928890 0.548032 0.171326
C41   C     C_R   0.946293 0.946242 0.446248 0.001854
C42   C     C_R   0.053707 0.053758 0.553752 0.001852
C43   C     C_R   0.539597 0.092944 0.526553 -0.183976
C44   C     C_R   0.460403 0.907056 0.473446 -0.183979
H19   H     H_    0.571375 0.164808 0.546499 0.167814
H20   H     H_    0.428625 0.835192 0.453501 0.167813
C45   C     C_R   0.593006 0.039457 0.473090 -0.176484
C46   C     C_R   0.406994 0.960543 0.526909 -0.176484
H21   H     H_    0.664934 0.071139 0.452857 0.174558
H22   H     H_    0.335066 0.928861 0.547143 0.174562
C47   C     C_R   0.553689 0.946230 0.446260 -0.001312
C48   C     C_R   0.446311 0.053770 0.553740 -0.001313
C49   C     C_R   0.407003 0.472879 0.526386 -0.183504
C50   C     C_R   0.592997 0.527121 0.473614 -0.183500
H23   H     H_    0.335087 0.452457 0.546201 0.166921
H24   H     H_    0.664913 0.547543 0.453799 0.166924
C51   C     C_R   0.460497 0.526316 0.472869 -0.184829
C52   C     C_R   0.539503 0.473684 0.527131 -0.184826
H25   H     H_    0.428811 0.546081 0.452443 0.166150
H26   H     H_    0.571189 0.453919 0.547557 0.166152
C53   C     C_R   0.553752 0.553697 0.446227 0.003628
C54   C     C_R   0.446248 0.446303 0.553773 0.003628
C55   C     C_R   0.407885 0.483938 0.038602 -0.195071
C56   C     C_R   0.592115 0.516065 0.961397 -0.195066
H27   H     H_    0.336667 0.472327 0.069528 0.169979
H28   H     H_    0.663333 0.527677 0.930472 0.169983
C57   C     C_R   0.461313 0.537173 0.092112 -0.211653
C58   C     C_R   0.538687 0.462829 0.907887 -0.211650
H29   H     H_    0.430316 0.565668 0.163306 0.164325
H30   H     H_    0.569685 0.434335 0.836693 0.164329
C59   C     C_R   0.553722 0.553640 0.053734 0.014311
C60   C     C_R   0.446278 0.446362 0.946266 0.014313
N1    N     N_R   0.032169 0.234917 0.191193 0.194446
O27   O     O_R   0.972658 0.200950 0.153700 -0.384001
O28   O     O_R   0.012552 0.280016 0.276273 -0.395832
N2    N     N_R   0.967791 0.765106 0.808765 0.194437
O29   O     O_R   0.027317 0.799038 0.846231 -0.383997
O30   O     O_R   0.987392 0.720044 0.723677 -0.395832

loop_
_geom_bond_atom_site_label_1
_geom_bond_atom_site_label_2
_geom_bond_distance
_ccdc_geom_bond_type
C45   C47   1.402003 A    
Zn7   O21   1.937940 S    
C56   C59   1.401308 A    
C4    C35   1.455568 S    
O11   C9    1.279607 A    
C8    C41   1.455643 S    
C34   C36   1.401683 A    
N2    O29   1.301358 A    
Zn7   O3    1.938665 S    
C49   H23   1.083161 S    
C14   C16   1.395251 A    
C13   C23   1.393481 A    
C2    C47   1.456362 S    
O24   C2    1.279865 A    
C32   H12   1.083159 S    
C51   H25   1.083170 S    
C9    C54   1.454364 S    
C16   C18   1.406210 A    
C38   H16   1.083149 S    
C31   C36   1.401805 A    
C17   C19   1.419569 A    
C25   C27   1.399022 A    
Zn5   O9    1.937935 S    
O20   C6    1.279463 A    
C18   C20   1.419573 A    
C46   C48   1.402003 A    
O15   C9    1.279515 A    
C20   C22   1.407179 A    
C21   H7    1.082558 S    
C22   H8    1.082554 S    
O19   C5    1.279466 A    
C55   H27   1.083243 S    
Zn5   O25   1.938869 S    
C14   H4    1.082382 S    
C3    C36   1.455555 S    
Zn3   O11   1.936885 S    
Zn8   O4    1.938663 S    
C39   H17   1.083161 S    
C56   C58   1.386569 A    
C52   C54   1.401515 A    
O5    C3    1.279623 A    
C51   C53   1.401515 A    
O21   C7    1.279996 A    
C57   H29   1.083141 S    
C11   C28   1.454985 S    
Zn1   O17   1.936612 S    
C32   C35   1.401782 A    
O12   C10   1.279607 A    
C58   H30   1.083141 S    
C40   C42   1.401787 A    
O13   C11   1.280033 A    
C15   H5    1.083410 S    
Zn6   O10   1.937937 S    
C16   H6    1.083409 S    
C19   C21   1.407183 A    
O9    C7    1.280157 A    
C22   C24   1.395864 A    
C37   H15   1.083149 S    
C49   C54   1.401596 A    
C20   N2    1.440328 S    
Zn1   O1    1.948254 S    
C28   C30   1.412078 A    
C1    C48   1.456362 S    
C38   C40   1.386240 A    
C33   H13   1.083179 S    
C37   C39   1.386240 A    
C50   C53   1.401596 A    
C13   H3    1.082384 S    
C26   C29   1.392617 A    
Zn7   O13   1.936499 S    
Zn8   O14   1.936494 S    
O25   C3    1.279586 A    
C5    C60   1.455434 S    
Zn6   O26   1.938871 S    
C44   H20   1.083142 S    
C25   H9    1.084895 S    
C17   C30   1.484717 S    
Zn4   O8    1.938090 S    
Zn5   O1    1.948578 S    
Zn3   O1    1.947479 S    
C38   C41   1.401701 A    
O6    C4    1.279625 A    
C14   C24   1.393479 A    
C37   C42   1.401703 A    
C40   H18   1.083161 S    
C7    C42   1.455642 S    
Zn5   O15   1.936196 S    
C26   C28   1.399024 A    
Zn6   O16   1.936195 S    
C46   H22   1.083148 S    
Zn2   O18   1.936611 S    
C25   C30   1.392608 A    
Zn3   O23   1.939121 S    
C31   H11   1.083152 S    
O7    C5    1.279546 A    
C12   C27   1.454984 S    
Zn4   O24   1.939124 S    
O8    C6    1.279545 A    
C34   H14   1.083205 S    
O14   C12   1.280033 A    
C10   C53   1.454364 S    
C55   C57   1.386570 A    
N1    O27   1.301356 A    
O16   C10   1.279517 A    
O23   C1    1.279866 A    
O4    C2    1.279431 A    
Zn4   O2    1.947477 S    
Zn2   O2    1.948255 S    
O17   C11   1.277981 A    
Zn3   O7    1.938091 S    
C43   C48   1.401677 A    
C27   C29   1.412084 A    
C50   C52   1.385640 A    
Zn7   O1    1.948802 S    
C6    C59   1.455434 S    
C49   C51   1.385641 A    
C15   C17   1.406197 A    
C55   C60   1.401306 A    
C45   H21   1.083148 S    
O26   C4    1.279581 A    
Zn8   O2    1.948802 S    
C32   C34   1.386240 A    
N2    O30   1.301460 A    
Zn6   O2    1.948577 S    
C43   H19   1.083142 S    
C57   C59   1.401544 A    
C19   N1    1.440337 S    
Zn8   O22   1.937944 S    
O10   C8    1.280156 A    
Zn1   O19   1.937682 S    
C33   C35   1.401689 A    
C50   H24   1.083160 S    
C13   C15   1.395249 A    
C44   C46   1.386613 A    
O3    C1    1.279429 A    
C56   H28   1.083243 S    
C43   C45   1.386613 A    
C39   C41   1.401786 A    
Zn2   O6    1.939160 S    
C52   H26   1.083171 S    
O18   C12   1.277983 A    
Zn4   O12   1.936885 S    
C21   C23   1.395860 A    
Zn1   O5    1.939162 S    
C26   H10   1.084894 S    
C44   C47   1.401677 A    
N1    O28   1.301466 A    
O22   C8    1.279993 A    
Zn2   O20   1.937684 S    
H2    C24   1.082245 S    
C31   C33   1.386239 A    
H1    C23   1.082249 S    
C58   C60   1.401544 A    
C18   C29   1.484730 S    
