data_mof_unit_66053.cif
_audit_creation_date              2012-10-26T17:43:27-0400
_audit_creation_method            fapswitch 2.2
_symmetry_space_group_name_H-M    P1
_symmetry_Int_Tables_number       1
_space_group_crystal_system       monoclinic
_cell_length_a                    18.369772
_cell_length_b                    18.369772
_cell_length_c                    21.835706
_cell_angle_alpha                 90.0
_cell_angle_beta                  90.0
_cell_angle_gamma                 90.124744
_cell_volume                      7368.40928181

loop_
_atom_site_label
_atom_site_type_symbol
_atom_type_description
_atom_site_fract_x
_atom_site_fract_y
_atom_site_fract_z
_atom_type_partial_charge
C1    C     C_R   0.999946 0.360082 0.999947 0.607800
C2    C     C_1   0.282511 0.999852 0.000008 -0.013179
C3    C     C_1   0.000148 0.717489 0.999992 -0.013179
C4    C     C_1   0.717489 0.000148 0.000008 -0.013180
C5    C     C_1   0.499852 0.782511 0.499992 -0.013180
C6    C     C_1   0.782511 0.499852 0.500008 -0.013179
C7    C     C_1   0.500147 0.217489 0.499992 -0.013179
C8    C     C_1   0.217489 0.500147 0.500008 -0.013180
C9    C     C_R   0.000000 0.500000 0.881162 0.684997
C10   C     C_R   0.500000 1.000000 0.881163 0.566003
C11   C     C_R   0.000000 0.500000 0.118836 0.566003
C12   C     C_R   0.360082 0.999946 0.000053 0.607800
C13   C     C_R   0.500000 0.000000 0.118838 0.684997
C14   C     C_R   0.500000 0.000000 0.381162 0.684997
C15   C     C_R   1.000000 0.500000 0.381163 0.566003
C16   C     C_R   0.500000 0.000000 0.618836 0.566003
C17   C     C_R   1.000000 0.500000 0.618838 0.684996
C18   C     C_R   0.077376 0.612471 0.810825 0.254184
C19   C     C_R   0.613844 0.924459 0.809969 0.254335
C20   C     C_R   0.922625 0.387529 0.810825 0.254184
C21   C     C_R   0.386155 0.075541 0.809969 0.254335
C22   C     C_R   0.075541 0.386155 0.190031 0.254335
C23   C     C_R   0.000054 0.639918 0.999947 0.607800
C24   C     C_R   0.612471 0.077375 0.189175 0.254184
C25   C     C_R   0.924459 0.613844 0.190031 0.254335
C26   C     C_R   0.387529 0.922624 0.189175 0.254184
C27   C     C_R   0.577376 0.112471 0.310825 0.254184
C28   C     C_R   0.113844 0.424459 0.309969 0.254335
C29   C     C_R   0.422625 0.887529 0.310825 0.254185
C30   C     C_R   0.886155 0.575541 0.309969 0.254335
C31   C     C_R   0.575541 0.886155 0.690031 0.254335
C32   C     C_R   0.112471 0.577375 0.689175 0.254184
C33   C     C_R   0.424459 0.113844 0.690031 0.254335
C34   C     C_R   0.639918 0.000054 0.000053 0.607800
C35   C     C_R   0.887529 0.422624 0.689175 0.254184
C36   C     C_R   0.131617 0.651282 0.779440 -0.136889
C37   C     C_R   0.651141 0.869431 0.779307 -0.101403
C38   C     C_R   0.868384 0.348717 0.779440 -0.136889
C39   C     C_R   0.348859 0.130569 0.779307 -0.101403
C40   C     C_R   0.130569 0.348859 0.220693 -0.101403
C41   C     C_R   0.651283 0.131616 0.220559 -0.136889
C42   C     C_R   0.869431 0.651141 0.220693 -0.101403
C43   C     C_R   0.348718 0.868383 0.220559 -0.136889
C44   C     C_R   0.631617 0.151282 0.279440 -0.136889
C45   C     C_R   0.499946 0.860082 0.499947 0.607800
C46   C     C_R   0.151141 0.369431 0.279307 -0.101403
C47   C     C_R   0.368383 0.848717 0.279440 -0.136889
C48   C     C_R   0.848859 0.630569 0.279307 -0.101403
C49   C     C_R   0.630569 0.848859 0.720693 -0.101404
C50   C     C_R   0.151283 0.631616 0.720559 -0.136889
C51   C     C_R   0.369431 0.151141 0.720693 -0.101403
C52   C     C_R   0.848718 0.368383 0.720559 -0.136889
C53   C     C_R   0.139630 0.999956 0.999999 0.553111
C54   C     C_R   0.000044 0.860370 0.000001 0.553111
C55   C     C_R   0.860370 0.000044 0.999999 0.553111
C56   C     C_R   0.860082 0.499946 0.500053 0.607800
C57   C     C_R   0.999956 0.139630 0.000001 0.553111
C58   C     C_R   0.639630 0.499956 0.499999 0.553111
C59   C     C_R   0.500044 0.360370 0.500001 0.553111
C60   C     C_R   0.360370 0.500044 0.499999 0.553111
C61   C     C_R   0.499956 0.639630 0.500001 0.553111
C62   C     C_R   0.052066 0.542694 0.718141 -0.010403
C63   C     C_R   0.541669 0.947532 0.718319 -0.038944
C64   C     C_R   0.947934 0.457306 0.718141 -0.010403
C65   C     C_R   0.458331 0.052468 0.718319 -0.038944
C66   C     C_R   0.052468 0.458331 0.281681 -0.038944
C67   C     C_R   0.500054 0.139918 0.499947 0.607800
C68   C     C_R   0.542694 0.052066 0.281859 -0.010403
C69   C     C_R   0.947532 0.541669 0.281681 -0.038944
C70   C     C_R   0.457306 0.947934 0.281859 -0.010403
C71   C     C_R   0.552066 0.042694 0.218141 -0.010403
C72   C     C_R   0.041669 0.447532 0.218319 -0.038944
C73   C     C_R   0.447934 0.957306 0.218141 -0.010404
C74   C     C_R   0.958331 0.552468 0.218319 -0.038944
C75   C     C_R   0.552468 0.958331 0.781681 -0.038944
C76   C     C_R   0.042694 0.552066 0.781859 -0.010403
C77   C     C_R   0.447532 0.041669 0.781681 -0.038944
C78   C     C_R   0.139918 0.500054 0.500053 0.607800
C79   C     C_R   0.957306 0.447934 0.781859 -0.010403
C80   C     C_R   1.000000 0.500000 0.685813 0.007424
C81   C     C_R   0.500000 1.000000 0.685819 -0.031366
C82   C     C_R   1.000000 0.500000 0.314181 -0.031366
C83   C     C_R   0.500000 0.000000 0.314186 0.007424
C84   C     C_R   0.500000 0.000000 0.185813 0.007424
C85   C     C_R   0.000000 0.500000 0.185819 -0.031366
C86   C     C_R   0.500000 1.000000 0.814181 -0.031366
C87   C     C_R   0.000000 0.500000 0.814187 0.007424
C88   C     C_1   0.999874 0.217201 0.000003 -0.037242
C89   C     C_1   0.999852 0.282511 0.999992 -0.013179
C90   C     C_1   0.217201 0.999874 0.999997 -0.037242
C91   C     C_1   0.000126 0.782798 0.000003 -0.037241
C92   C     C_1   0.782798 0.000126 0.999997 -0.037242
C93   C     C_1   0.499874 0.717201 0.500003 -0.037242
C94   C     C_1   0.717201 0.499874 0.499997 -0.037241
C95   C     C_1   0.500126 0.282799 0.500003 -0.037241
C96   C     C_1   0.282799 0.500126 0.499997 -0.037242
Cu1   Cu    Cu3+1 0.927460 0.500000 0.000000 1.020541
Cu2   Cu    Cu3+1 1.000000 1.000000 0.061780 0.974538
Cu3   Cu    Cu3+1 0.500000 0.500000 0.438220 0.974538
Cu4   Cu    Cu3+1 0.500000 0.500000 0.561780 0.974538
Cu5   Cu    Cu3+1 0.500000 0.072540 0.000000 1.020541
Cu6   Cu    Cu3+1 0.072540 0.500000 0.000000 1.020540
Cu7   Cu    Cu3+1 0.500000 0.927460 0.000000 1.020540
Cu8   Cu    Cu3+1 0.427460 1.000000 0.500000 1.020541
Cu9   Cu    Cu3+1 1.000000 0.572540 0.500000 1.020541
Cu10  Cu    Cu3+1 0.572540 1.000000 0.500000 1.020539
Cu11  Cu    Cu3+1 0.000000 0.427460 0.500000 1.020540
Cu12  Cu    Cu3+1 0.000000 0.000000 0.938220 0.974538
H1    H     H_    0.840167 0.303780 0.801154 0.108207
H2    H     H_    0.803450 0.657606 0.301205 0.149885
H3    H     H_    0.659835 0.196219 0.301154 0.108206
H4    H     H_    0.196550 0.342394 0.301205 0.149885
H5    H     H_    0.342394 0.196550 0.698795 0.149885
H6    H     H_    0.803781 0.340165 0.698845 0.108207
H7    H     H_    0.657606 0.803450 0.698795 0.149885
H8    H     H_    0.196220 0.659833 0.698846 0.108207
H9    H     H_    0.083643 0.678966 0.880333 0.316688
H10   H     H_    0.637003 0.000740 0.866915 0.311517
H11   H     H_    0.916359 0.321032 0.880333 0.316688
H12   H     H_    0.303450 0.157606 0.801205 0.149885
H13   H     H_    0.362997 0.999260 0.866915 0.311517
H14   H     H_    0.999260 0.362997 0.133085 0.311517
H15   H     H_    0.678968 0.083641 0.119667 0.316688
H16   H     H_    0.000740 0.637003 0.133085 0.311517
H17   H     H_    0.321033 0.916357 0.119667 0.316688
H18   H     H_    0.583644 0.178966 0.380333 0.316688
H19   H     H_    0.137003 0.500740 0.366915 0.311517
H20   H     H_    0.416359 0.821032 0.380333 0.316687
H21   H     H_    0.862997 0.499260 0.366915 0.311517
H22   H     H_    0.499260 0.862997 0.633085 0.311517
H23   H     H_    0.159834 0.696219 0.801154 0.108207
H24   H     H_    0.178968 0.583641 0.619667 0.316688
H25   H     H_    0.500740 0.137003 0.633085 0.311517
H26   H     H_    0.821034 0.416357 0.619667 0.316688
H27   H     H_    0.696550 0.842394 0.801205 0.149885
H28   H     H_    0.842394 0.696550 0.198795 0.149885
H29   H     H_    0.303781 0.840166 0.198845 0.108207
H30   H     H_    0.157606 0.303450 0.198795 0.149885
H31   H     H_    0.696220 0.159833 0.198846 0.108207
H32   H     H_    0.340167 0.803780 0.301154 0.108207
O1    O     O_R   0.938740 0.394190 0.000020 -0.511770
O2    O     O_R   0.894190 0.561260 0.500020 -0.472436
O3    O     O_R   0.561260 0.105810 0.500020 -0.511771
O4    O     O_R   0.105810 0.438740 0.500020 -0.472436
O5    O     O_R   0.438740 0.105810 0.499980 -0.472436
O6    O     O_R   0.894190 0.438740 0.499980 -0.511771
O7    O     O_R   0.561260 0.894190 0.499980 -0.472436
O8    O     O_R   0.105810 0.561260 0.499980 -0.511770
O9    O     O_R   0.938740 0.500000 0.909860 -0.479375
O10   O     O_R   0.500000 0.061260 0.909860 -0.492406
O11   O     O_R   0.061260 0.500000 0.909860 -0.479375
O12   O     O_R   0.394190 0.061260 0.000020 -0.472436
O13   O     O_R   0.500000 0.938740 0.909860 -0.492405
O14   O     O_R   0.938740 0.500000 0.090140 -0.492406
O15   O     O_R   0.500000 0.938740 0.090140 -0.479375
O16   O     O_R   0.061260 0.500000 0.090140 -0.492406
O17   O     O_R   0.500000 0.061260 0.090140 -0.479375
O18   O     O_R   0.438740 1.000000 0.409860 -0.479375
O19   O     O_R   1.000000 0.561260 0.409860 -0.492406
O20   O     O_R   0.561260 1.000000 0.409860 -0.479376
O21   O     O_R   0.000000 0.438740 0.409860 -0.492405
O22   O     O_R   0.438740 1.000000 0.590140 -0.492406
O23   O     O_R   0.061260 0.605810 0.000020 -0.511771
O24   O     O_R   1.000000 0.438740 0.590140 -0.479375
O25   O     O_R   0.561260 1.000000 0.590140 -0.492406
O26   O     O_R   1.000000 0.561260 0.590140 -0.479375
O27   O     O_R   0.105780 0.999970 0.947820 -0.499823
O28   O     O_R   0.999970 0.894220 0.947820 -0.504426
O29   O     O_R   0.894220 0.000030 0.947820 -0.499823
O30   O     O_R   0.000030 0.105780 0.947820 -0.504427
O31   O     O_R   0.105780 0.000030 0.052180 -0.504426
O32   O     O_R   0.999970 0.105780 0.052180 -0.499823
O33   O     O_R   0.894220 0.999970 0.052180 -0.504427
O34   O     O_R   0.605810 0.938740 0.000020 -0.472436
O35   O     O_R   0.000030 0.894220 0.052180 -0.499823
O36   O     O_R   0.605780 0.499970 0.447820 -0.499823
O37   O     O_R   0.499970 0.394220 0.447820 -0.504426
O38   O     O_R   0.394220 0.500030 0.447820 -0.499823
O39   O     O_R   0.500030 0.605780 0.447820 -0.504427
O40   O     O_R   0.605780 0.500030 0.552180 -0.504426
O41   O     O_R   0.499970 0.605780 0.552180 -0.499823
O42   O     O_R   0.394220 0.499970 0.552180 -0.504427
O43   O     O_R   0.500030 0.394220 0.552180 -0.499823
O44   O     O_3   0.054639 0.635883 0.867742 -0.696346
O45   O     O_R   0.938740 0.605810 0.999980 -0.472436
O46   O     O_3   0.642587 0.947139 0.864927 -0.682421
O47   O     O_3   0.945361 0.364117 0.867742 -0.696346
O48   O     O_3   0.357413 0.052860 0.864927 -0.682421
O49   O     O_3   0.052861 0.357413 0.135073 -0.682420
O50   O     O_3   0.635883 0.054639 0.132258 -0.696346
O51   O     O_3   0.947139 0.642587 0.135073 -0.682421
O52   O     O_3   0.364117 0.945361 0.132258 -0.696346
O53   O     O_3   0.554639 0.135883 0.367742 -0.696346
O54   O     O_3   0.142587 0.447139 0.364927 -0.682420
O55   O     O_3   0.445361 0.864117 0.367742 -0.696346
O56   O     O_R   0.394190 0.938740 0.999980 -0.511771
O57   O     O_3   0.857413 0.552860 0.364927 -0.682421
O58   O     O_3   0.552861 0.857413 0.635073 -0.682420
O59   O     O_3   0.135883 0.554639 0.632258 -0.696346
O60   O     O_3   0.447139 0.142587 0.635073 -0.682421
O61   O     O_3   0.864117 0.445361 0.632258 -0.696346
O62   O     O_R   0.061260 0.394190 0.999980 -0.472436
O63   O     O_R   0.605810 0.061260 0.999980 -0.511770
O64   O     O_R   0.438740 0.894190 0.500020 -0.511770

loop_
_geom_bond_atom_site_label_1
_geom_bond_atom_site_label_2
_ccdc_geom_bond_type
C20   C38   A    
C48   H2    S    
C3    C91   T    
Cu12  O30   S    
C12   O56   A    
C12   O12   A    
C3    C23   S    
C8    C96   T    
H20   O55   S    
C67   O3    A    
C79   C87   A    
C72   C85   A    
H10   O46   S    
H9    O44   S    
C33   C65   A    
Cu10  O3    S    
Cu9   O19   S    
C31   O58   S    
Cu1   O45   S    
Cu9   Cu11  S    
C13   C84   S    
C9    O9    A    
C51   H5    S    
C29   C47   A    
Cu8   O64   S    
C30   C48   A    
C29   C70   A    
C32   O59   S    
C46   H4    S    
C17   O26   A    
C45   O64   A    
C19   O46   S    
Cu8   O22   S    
C54   O28   A    
C38   C52   A    
C60   O38   A    
C39   H12   S    
Cu5   O10   S    
C26   C73   A    
Cu2   Cu12  S    
Cu9   O26   S    
C42   H28   S    
C25   C74   A    
C22   C72   A    
C2    C90   T    
Cu4   O43   S    
C55   O33   A    
C27   C68   A    
C19   C37   A    
C11   O14   A    
C39   C51   A    
Cu1   O1    S    
C27   C44   A    
C53   O27   A    
C13   O15   A    
Cu3   O36   S    
Cu11  O21   S    
C66   C72   A    
Cu6   O23   S    
C6    C94   T    
C40   H30   S    
C47   H32   S    
C67   O5    A    
C28   O54   S    
C37   H27   S    
C15   O19   A    
C43   H29   S    
C35   C64   A    
C27   O53   S    
Cu4   O42   S    
C34   O63   A    
C73   C84   A    
Cu1   Cu6   S    
C78   O8    A    
Cu6   O11   S    
C57   O32   A    
C56   O2    A    
H13   O48   S    
C57   O30   A    
Cu12  O28   S    
C2    C12   S    
C21   O48   S    
Cu5   Cu7   S    
Cu12  O29   S    
C8    C78   S    
C24   C41   A    
C64   C80   A    
C62   C76   A    
C59   C95   S    
C14   C83   S    
C31   C49   A    
C1    O62   A    
C10   O13   A    
C13   O17   A    
Cu7   O13   S    
C26   C43   A    
C15   C82   S    
C23   O23   A    
Cu5   O17   S    
C60   O42   A    
C4    C34   S    
C65   C77   A    
Cu10  O25   S    
C31   C63   A    
C59   O37   A    
Cu3   O38   S    
C25   O51   S    
C36   H23   S    
Cu8   O18   S    
Cu9   O2    S    
C23   O45   A    
Cu11  O6    S    
C26   O52   S    
C35   O61   S    
C33   O60   S    
C16   O22   A    
C29   O55   S    
Cu9   O8    S    
C5    C45   S    
Cu7   O34   S    
Cu10  O7    S    
C14   O20   A    
H15   O50   S    
C54   O35   A    
C28   C66   A    
C56   O6    A    
Cu3   O39   S    
C55   C92   S    
C34   O34   A    
C17   O24   A    
C78   O4    A    
C66   C82   A    
C37   C49   A    
C75   C86   A    
C65   C81   A    
Cu3   Cu4   S    
C21   C39   A    
C18   O44   S    
C16   O25   A    
C22   C40   A    
C70   C73   A    
C69   C74   A    
C42   C48   A    
Cu1   O14   S    
C88   C89   T    
C22   O49   S    
C59   O43   A    
Cu4   O41   S    
C76   C87   A    
C32   C50   A    
C11   O16   A    
H21   O57   S    
Cu2   O31   S    
C60   C96   S    
Cu7   O15   S    
C49   H7    S    
Cu12  O27   S    
C63   C81   A    
C77   C86   A    
C61   O39   A    
H25   O60   S    
Cu5   O63   S    
C64   C79   A    
H19   O54   S    
Cu7   O56   S    
C40   C46   A    
Cu4   O40   S    
Cu6   O16   S    
C53   C90   S    
C30   C69   A    
C36   C50   A    
C38   H1    S    
H14   O49   S    
C71   C84   A    
C62   C80   A    
Cu2   O33   S    
C9    O11   A    
C1    C89   S    
C20   C79   A    
C45   O7    A    
C68   C83   A    
Cu8   O5    S    
C15   O21   A    
C58   O36   A    
C6    C56   S    
C43   C47   A    
C14   O18   A    
C25   C42   A    
C5    C93   T    
Cu3   O37   S    
Cu8   Cu10  S    
C52   H6    S    
C33   C51   A    
C7    C95   T    
H24   O59   S    
Cu5   O12   S    
C61   O41   A    
C57   C88   S    
C28   C46   A    
C19   C75   A    
C58   C94   S    
Cu2   O32   S    
C54   C91   S    
C10   O10   A    
C20   O47   S    
Cu2   O35   S    
C35   C52   A    
H18   O53   S    
C10   C86   S    
C70   C83   A    
C63   C75   A    
C11   C85   S    
C68   C71   A    
Cu10  O20   S    
C16   C81   S    
C41   C44   A    
C69   C82   A    
H17   O52   S    
C50   H8    S    
C17   C80   S    
C74   C85   A    
Cu6   O62   S    
H11   O47   S    
C41   H31   S    
C1    O1    A    
C53   O31   A    
C7    C67   S    
C44   H3    S    
C30   O57   S    
Cu11  O24   S    
C58   O40   A    
C21   C77   A    
H26   O61   S    
Cu1   O9    S    
C24   O50   S    
C32   C62   A    
Cu11  O4    S    
H22   O58   S    
C61   C93   S    
C18   C36   A    
C55   O29   A    
H16   O51   S    
C9    C87   S    
C24   C71   A    
C18   C76   A    
C4    C92   T    
