data_mof_unit_53317.cif
_audit_creation_date              2012-12-10T19:49:46-0500
_audit_creation_method            fapswitch 2.2
_symmetry_space_group_name_H-M    P1
_symmetry_Int_Tables_number       1
_space_group_crystal_system       triclinic
_cell_length_a                    10.823832
_cell_length_b                    16.035189
_cell_length_c                    17.353699
_cell_angle_alpha                 96.924954
_cell_angle_beta                  90.357608
_cell_angle_gamma                 92.724445
_cell_volume                      2986.37635036

loop_
_atom_site_label
_atom_site_type_symbol
_atom_type_description
_atom_site_fract_x
_atom_site_fract_y
_atom_site_fract_z
_atom_type_partial_charge
C1    C     C_R   0.500564 0.488991 0.349750 0.780772
C2    C     C_R   0.460627 0.445077 0.770036 -0.213742
C3    C     C_R   0.544763 0.550183 0.149768 -0.150064
C4    C     C_R   0.455125 0.449833 0.850228 -0.150070
C5    C     C_R   0.515156 0.473688 0.103677 0.196847
C6    C     C_R   0.484761 0.526322 0.896319 0.196846
C7    C     C_R   0.485202 0.401385 0.138840 -0.175620
C8    C     C_R   0.514780 0.598616 0.861159 -0.175622
C9    C     C_R   0.479886 0.406081 0.219318 -0.213186
C10   C     C_R   0.520130 0.593915 0.780681 -0.213209
C11   C     C_2   0.514742 0.467653 0.018805 -0.232359
C12   C     C_R   0.499435 0.511009 0.650250 0.780761
C13   C     C_2   0.485151 0.532358 0.981191 -0.232374
C14   C     C_R   0.439268 0.743390 0.459765 0.080933
C15   C     C_R   0.560659 0.256613 0.540277 0.080912
C16   C     C_R   0.262524 0.500408 0.502011 0.790803
C17   C     C_R   0.737476 0.499592 0.497991 0.790807
C18   C     C_R   0.425459 0.830499 0.462615 0.020310
C19   C     C_R   0.574471 0.169505 0.537433 0.020333
C20   C     C_R   0.496686 0.884243 0.518622 0.138922
C21   C     C_R   0.503336 0.115756 0.481379 0.138946
C22   C     C_R   0.574345 0.849451 0.570083 -0.308668
C23   C     C_R   0.871475 0.499039 0.496253 -0.080660
C24   C     C_R   0.425767 0.150549 0.429867 -0.308698
C25   C     C_R   0.582947 0.762367 0.564831 0.058057
C26   C     C_R   0.417149 0.237631 0.435121 0.058098
C27   C     C_2   0.486032 0.976512 0.528544 -0.232943
C28   C     C_2   0.513995 0.023487 0.471461 -0.232951
C29   C     C_R   0.269976 0.709778 0.685467 -0.115492
C30   C     C_R   0.730026 0.290165 0.314584 -0.115502
C31   C     C_R   0.206062 0.638924 0.646768 -0.091067
C32   C     C_R   0.793952 0.361031 0.353254 -0.091094
C33   C     C_R   0.131294 0.646456 0.581662 0.121645
C34   C     C_R   0.128526 0.500961 0.503752 -0.080669
C35   C     C_R   0.868706 0.353530 0.418373 0.121665
C36   C     C_R   0.118761 0.726166 0.557433 -0.166622
C37   C     C_R   0.881207 0.273839 0.442649 -0.166576
C38   C     C_R   0.183185 0.796756 0.596145 -0.130538
C39   C     C_R   0.816775 0.203237 0.403964 -0.130546
C40   C     C_R   0.259241 0.788499 0.659856 -0.114345
C41   C     C_R   0.740737 0.211463 0.340238 -0.114320
C42   C     C_R   0.938260 0.569524 0.533537 -0.238438
C43   C     C_R   0.061740 0.430477 0.466469 -0.238445
C44   C     C_3   0.667423 0.133516 0.589488 -0.423324
C45   C     C_R   0.933589 0.428735 0.461525 -0.000751
C46   C     C_3   0.754595 0.198207 0.638130 -0.378320
C47   C     C_3   0.850004 0.154816 0.682449 -0.848055
C48   C     C_3   0.332411 0.866497 0.410629 -0.423245
C49   C     C_3   0.245237 0.801807 0.361982 -0.378336
C50   C     C_3   0.149707 0.845195 0.317756 -0.848037
C51   C     C_R   0.066412 0.571264 0.538486 -0.000737
C52   C     C_R   0.505891 0.483133 0.265265 -0.025416
C53   C     C_R   0.494092 0.516868 0.734734 -0.025411
C54   C     C_R   0.539293 0.554934 0.229960 -0.213727
Cu1   Cu    Cu3+1 0.493640 0.415410 0.495980 0.938007
Cu2   Cu    Cu3+1 0.506360 0.584590 0.504020 0.938009
H1    H     H_    0.309496 0.843147 0.689537 0.117322
H2    H     H_    0.640949 0.735188 0.605251 0.116293
H3    H     H_    0.542524 0.993770 0.415298 0.148397
H4    H     H_    0.457483 0.006221 0.584704 0.148396
H5    H     H_    0.627294 0.889609 0.614371 0.138037
H6    H     H_    0.372899 0.110392 0.385539 0.138008
H7    H     H_    0.327948 0.703690 0.735265 0.123554
H8    H     H_    0.672061 0.296231 0.264777 0.123519
H9    H     H_    0.215747 0.578184 0.666927 0.101780
H10   H     H_    0.784283 0.421757 0.333065 0.101792
H11   H     H_    0.060400 0.733353 0.507990 0.123661
H12   H     H_    0.690474 0.156806 0.310579 0.117328
H13   H     H_    0.939547 0.266677 0.492107 0.123643
H14   H     H_    0.174526 0.857810 0.576559 0.125771
H15   H     H_    0.825410 0.142198 0.423586 0.125798
H16   H     H_    0.890138 0.622691 0.561349 0.153620
H17   H     H_    0.109860 0.377308 0.438658 0.153641
H18   H     H_    0.562186 0.614760 0.264242 0.150681
H19   H     H_    0.437707 0.385257 0.735753 0.150672
H20   H     H_    0.545771 0.650197 0.754571 0.143429
H21   H     H_    0.454296 0.349792 0.245429 0.143410
H22   H     H_    0.463693 0.592300 0.013080 0.143385
H23   H     H_    0.463418 0.341745 0.103942 0.120319
H24   H     H_    0.536200 0.407711 0.986914 0.143390
H25   H     H_    0.803184 0.114228 0.722072 0.250669
H26   H     H_    0.908301 0.115806 0.641325 0.249351
H27   H     H_    0.910777 0.202955 0.717556 0.242821
H28   H     H_    0.804483 0.238749 0.599784 0.221541
H29   H     H_    0.700199 0.238243 0.680898 0.214580
H30   H     H_    0.616254 0.096655 0.630198 0.199193
H31   H     H_    0.725282 0.090043 0.552084 0.214398
H32   H     H_    0.091412 0.884134 0.358940 0.249345
H33   H     H_    0.196415 0.885852 0.278150 0.250675
H34   H     H_    0.536591 0.658251 0.896058 0.120327
H35   H     H_    0.088944 0.797056 0.282643 0.242817
H36   H     H_    0.299625 0.761830 0.319160 0.214581
H37   H     H_    0.195446 0.761205 0.400315 0.221539
H38   H     H_    0.274560 0.909924 0.448087 0.214365
H39   H     H_    0.383499 0.903413 0.369927 0.199212
H40   H     H_    0.426494 0.393790 0.875738 0.121886
H41   H     H_    0.573349 0.606235 0.124259 0.121875
H42   H     H_    0.386322 0.699325 0.419100 0.129841
H43   H     H_    0.613549 0.300679 0.580969 0.129851
H44   H     H_    0.359218 0.264809 0.394661 0.116292
N1    N     N_R   0.515930 0.711660 0.510070 -0.186458
N2    N     N_R   0.484070 0.288340 0.489930 -0.186459
O1    O     O_R   0.494030 0.420280 0.382610 -0.586339
O2    O     O_R   0.505970 0.579720 0.617390 -0.586314
O3    O     O_R   0.504770 0.563150 0.389400 -0.600450
O4    O     O_R   0.495230 0.436850 0.610600 -0.600478
O5    O     O_R   0.314270 0.428570 0.496610 -0.586561
O6    O     O_R   0.685730 0.571430 0.503390 -0.586576
O7    O     O_R   0.325020 0.571440 0.503400 -0.577450
O8    O     O_R   0.674980 0.428560 0.496600 -0.577418

loop_
_geom_bond_atom_site_label_1
_geom_bond_atom_site_label_2
_ccdc_geom_bond_type
C43   H17   S    
C12   O4    A    
Cu1   Cu2   S    
C38   H14   S    
C23   C45   A    
C48   H39   S    
C37   H13   S    
C14   C18   A    
C17   O8    A    
C29   H7    S    
C36   H11   S    
C39   C41   A    
C15   C19   A    
Cu1   N2    S    
C34   C51   A    
C17   C23   S    
C23   C42   A    
C48   H38   S    
C32   H10   S    
C35   C37   A    
C24   C26   A    
Cu2   N1    S    
C12   O2    A    
C30   H8    S    
C27   H4    S    
C3    C54   A    
Cu1   O1    S    
C33   C36   A    
C7    C9    A    
C47   H26   S    
C10   C53   A    
Cu2   O6    S    
C16   O5    A    
C16   C34   S    
C54   H18   S    
C10   H20   S    
C52   C54   A    
C22   C25   A    
C31   C33   A    
C30   C41   A    
C47   H27   S    
C44   H31   S    
C1    O1    A    
C12   C53   S    
C50   H32   S    
C42   C51   A    
C46   H29   S    
C38   C40   A    
C4    H40   S    
C9    C52   A    
C44   H30   S    
C44   C46   S    
C16   O7    A    
C14   H42   S    
C41   H12   S    
Cu1   O4    S    
C32   C35   A    
Cu2   O2    S    
C4    C6    A    
C17   O6    A    
C5    C7    A    
C14   N1    A    
C6    C8    A    
Cu1   O5    S    
C2    C4    A    
C3    H41   S    
C50   H33   S    
C42   H16   S    
C9    H21   S    
C43   C45   A    
C46   H28   S    
C8    C10   A    
C48   C49   S    
C21   C28   S    
C20   C22   A    
Cu1   O8    S    
C8    H34   S    
C25   H2    S    
C49   H36   S    
C35   C45   S    
Cu2   O7    S    
C19   C44   S    
C7    H23   S    
C28   H3    S    
C31   H9    S    
C46   C47   S    
C24   H6    S    
C40   H1    S    
C19   C21   A    
C34   C43   A    
C15   H43   S    
C3    C5    A    
C2    C53   A    
C18   C48   S    
C5    C11   S    
C20   C27   S    
C33   C51   S    
C36   C38   A    
C29   C31   A    
C26   N2    A    
C22   H5    S    
C30   C32   A    
C11   C13   D    
C25   N1    A    
C29   C40   A    
C18   C20   A    
C47   H25   S    
C15   N2    A    
C1    C52   S    
Cu2   O3    S    
C11   H24   S    
C13   H22   S    
C50   H35   S    
C37   C39   A    
C49   C50   S    
C21   C24   A    
C26   H44   S    
C27   C28   D    
C39   H15   S    
C49   H37   S    
C2    H19   S    
C1    O3    A    
C6    C13   S    
