data_mof_unit_18379.cif
_audit_creation_date              2012-12-11T15:44:54-0500
_audit_creation_method            fapswitch 2.2
_symmetry_space_group_name_H-M    P1
_symmetry_Int_Tables_number       1
_space_group_crystal_system       triclinic
_cell_length_a                    6.930817
_cell_length_b                    16.819512
_cell_length_c                    17.06751
_cell_angle_alpha                 100.362843
_cell_angle_beta                  87.99014
_cell_angle_gamma                 91.677408
_cell_volume                      1955.41858819

loop_
_atom_site_label
_atom_site_type_symbol
_atom_type_description
_atom_site_fract_x
_atom_site_fract_y
_atom_site_fract_z
_atom_type_partial_charge
O1    O     O_R   0.494370 0.415690 0.413450 -0.541136
O2    O     O_R   0.819420 0.429360 0.578420 -0.541207
O3    O     O_R   0.994280 0.584310 0.586550 -0.540193
C1    C     C_R   0.646289 0.413254 0.604723 0.706992
O4    O     O_R   0.823790 0.406230 0.413570 -0.543523
O5    O     O_R   0.998670 0.561000 0.420530 -0.537575
C2    C     C_R   0.655209 0.383052 0.384928 0.693222
O6    O     O_R   0.489970 0.439000 0.579470 -0.536919
O7    O     O_3   0.662300 0.550810 0.502470 -0.369138
V1    V     V_3+5 0.935380 0.490570 0.499540 1.426726
O8    O     O_R   0.328650 0.570640 0.421580 -0.543798
C3    C     C_R   0.164556 0.586855 0.394980 0.730014
O9    O     O_R   0.324290 0.593770 0.586430 -0.544732
C4    C     C_R   0.154619 0.616802 0.615027 0.696910
V2    V     V_3+5 0.435930 0.509430 0.500460 1.425444
O10   O     O_3   0.159140 0.449190 0.497530 -0.366880
C5    C     C_R   0.298301 0.741146 0.697734 -0.163172
H1    H     H_    0.425736 0.734404 0.658736 0.147662
C6    C     C_R   0.289660 0.807113 0.760818 0.155777
C7    C     C_R   0.124315 0.817480 0.813090 -0.082461
C8    C     C_R   0.968679 0.761793 0.797415 -0.151497
H2    H     H_    0.839865 0.767637 0.835608 0.147687
C9    C     C_R   0.977274 0.697268 0.732915 -0.136912
H3    H     H_    0.854821 0.655577 0.722979 0.124416
C10   C     C_R   0.143234 0.685727 0.682908 -0.083296
C11   C     C_R   0.174242 0.640519 0.334042 -0.151592
C12   C     C_R   0.090142 0.860286 0.166950 -0.228989
C13   C     C_R   0.900114 0.802611 0.267733 -0.122564
C14   C     C_R   0.920719 0.857502 0.215238 0.643168
C15   C     C_R   0.240265 0.807777 0.174399 -0.222518
C16   C     C_R   0.219315 0.751769 0.227079 0.024419
C17   C     C_R   0.046846 0.748819 0.273691 -0.017844
C18   C     C_R   0.024371 0.692818 0.326162 -0.170258
C19   C     C_R   0.344557 0.643808 0.286910 -0.250581
C20   C     C_R   0.366709 0.698112 0.233795 0.629091
H4    H     H_    0.893157 0.691714 0.362490 0.139085
H5    H     H_    0.462540 0.604173 0.291409 0.152880
H6    H     H_    0.768005 0.801965 0.303556 0.159971
H7    H     H_    0.370577 0.809025 0.137599 0.215243
C21   C     C_R   0.620708 0.360045 0.665332 -0.080243
C22   C     C_R   0.644805 0.139214 0.834078 -0.095289
C23   C     C_R   0.847733 0.182715 0.728550 0.140282
C24   C     C_R   0.810541 0.131285 0.783586 -0.154855
C25   C     C_R   0.513504 0.199586 0.828014 -0.211775
C26   C     C_R   0.550496 0.252976 0.774079 0.142127
C27   C     C_R   0.719376 0.245266 0.723997 0.104815
C28   C     C_R   0.753724 0.299810 0.670572 -0.192352
C29   C     C_R   0.454332 0.366470 0.715458 -0.141587
C30   C     C_R   0.420530 0.314144 0.769606 -0.134625
H8    H     H_    0.880482 0.294813 0.631419 0.160240
H9    H     H_    0.349258 0.412250 0.712731 0.123437
H10   H     H_    0.290780 0.320842 0.807306 0.121043
H11   H     H_    0.912374 0.084371 0.786666 0.161886
H12   H     H_    0.385376 0.206450 0.866712 0.125477
C31   C     C_R   0.811559 0.275709 0.281966 -0.144732
H13   H     H_    0.952082 0.294521 0.305395 0.118246
C32   C     C_R   0.800060 0.211945 0.216878 -0.128812
H14   H     H_    0.932445 0.183519 0.192364 0.118615
C33   C     C_R   0.620680 0.185229 0.184042 -0.044229
C34   C     C_R   0.453121 0.224080 0.218265 -0.147476
H15   H     H_    0.312599 0.205266 0.194837 0.114531
C35   C     C_R   0.464619 0.287844 0.283355 -0.135857
H16   H     H_    0.332234 0.316267 0.307874 0.119272
C36   C     C_R   0.644011 0.314590 0.316162 -0.046282
O11   O     O_R   0.774880 0.061150 0.920630 -0.546148
O12   O     O_R   0.440980 0.093710 0.086500 -0.551031
O13   O     O_R   0.266190 0.938890 0.079390 -0.536613
C37   C     C_R   0.609529 0.116845 0.115201 0.704170
O14   O     O_R   0.445420 0.070740 0.921670 -0.535930
O15   O     O_R   0.270660 0.915760 0.913380 -0.527351
C38   C     C_R   0.618628 0.086995 0.895492 0.737962
O16   O     O_R   0.770400 0.084270 0.086640 -0.539456
O17   O     O_3   0.602590 0.949210 0.997500 -0.350053
V3    V     V_3+5 0.329470 0.009420 0.000470 1.474271
O18   O     O_R   0.940650 0.906250 0.913470 -0.539062
C39   C     C_R   0.110821 0.884698 0.883260 0.716352
O19   O     O_R   0.936210 0.929220 0.078300 -0.504173
C40   C     C_R   0.100106 0.913480 0.105391 0.764171
V4    V     V_3+5 0.828930 0.990510 0.999490 1.523467
O20   O     O_3   0.105680 0.050790 0.002500 -0.386599
I1    I     I_    0.099839 0.159845 0.654169 -0.399052
I2    I     I_    0.529397 0.889628 0.765265 -0.392676
F1    F     F_    0.533224 0.698397 0.189481 -0.699323
F2    F     F_    0.773501 0.908265 0.212087 -0.676705

loop_
_geom_bond_atom_site_label_1
_geom_bond_atom_site_label_2
_ccdc_geom_bond_type
C21   C28   A    
O12   C37   A    
C31   H13   S    
O11   V4    S    
C12   C14   A    
C19   H5    S    
O17   V3    S    
C6    C7    A    
C1    O6    A    
C12   C40   S    
O19   C40   A    
O13   C40   A    
C13   C14   A    
O16   V4    S    
O5    C3    A    
C15   C16   A    
C32   C33   A    
V2    O10   S    
O12   V3    S    
C18   H4    S    
C7    C39   S    
C34   C35   A    
C19   C20   A    
C23   C27   A    
O14   C38   A    
C35   C36   A    
O8    V2    S    
C11   C19   A    
C29   H9    S    
C1    C21   S    
O15   V3    S    
C9    H3    S    
O1    V2    S    
C26   C30   A    
C6    I2    S    
O7    V1    S    
C22   C38   S    
C33   C34   A    
V3    O20   S    
O9    C4    A    
C12   C15   A    
C22   C24   A    
C23   I1    S    
C24   H11   S    
C28   H8    S    
O19   V4    S    
C13   C17   A    
C14   F2    S    
O4    C2    A    
C20   F1    S    
C26   C27   A    
C3    C11   S    
C34   H15   S    
O2    C1    A    
O18   C39   A    
C31   C32   A    
C35   H16   S    
C33   C37   S    
C11   C18   A    
C16   C17   A    
C13   H6    S    
C37   O16   A    
C30   H10   S    
C31   C36   A    
C5    H1    S    
O17   V4    S    
O14   V3    S    
O13   V3    S    
O3    C4    A    
C29   C30   A    
O6    V2    S    
O9    V2    S    
O15   C39   A    
C22   C25   A    
C16   C20   A    
C23   C24   A    
O2    V1    S    
C25   C26   A    
C21   C29   A    
C27   C28   A    
O1    C2    A    
O5    V1    S    
O8    C3    A    
C5    C10   A    
C17   C18   A    
C8    C9    A    
O7    V2    S    
O4    V1    S    
O3    V1    S    
O11   C38   A    
C32   H14   S    
C5    C6    A    
C15   H7    S    
C9    C10   A    
C4    C10   S    
C2    C36   S    
V4    O20   S    
C25   H12   S    
C7    C8    A    
V1    O10   S    
C8    H2    S    
O18   V4    S    
