data_mof_unit_22281.cif
_audit_creation_date              2013-03-05T15:44:49-0500
_audit_creation_method            fapswitch 2.2
_symmetry_space_group_name_H-M    P1
_symmetry_Int_Tables_number       1
_space_group_crystal_system       triclinic
_cell_length_a                    15.720935
_cell_length_b                    10.748992
_cell_length_c                    10.042683
_cell_angle_alpha                 90.224039
_cell_angle_beta                  90.339016
_cell_angle_gamma                 90.207635
_cell_volume                      1697.00083112

loop_
_atom_site_label
_atom_site_type_symbol
_atom_site_description
_atom_site_fract_x
_atom_site_fract_y
_atom_site_fract_z
_atom_type_partial_charge
O1    O     O_R   0.499990 0.319060 0.613040 -0.618633
O2    O     O_R   0.500010 0.319100 0.386900 -0.617449
C1    C     C_R   0.501818 0.262770 0.499685 0.919359
O3    O     O_R   0.376760 0.499970 0.613050 -0.617965
O4    O     O_R   0.376790 0.500010 0.386910 -0.602773
C2    C     C_R   0.337964 0.499953 0.499614 0.889056
Zn1   Zn    Zn3+2 0.499980 0.499970 0.650990 1.019441
Zn2   Zn    Zn3+2 0.500020 0.500030 0.349010 0.982762
O5    O     O_R   0.499990 0.680900 0.613100 -0.571320
O6    O     O_R   0.500010 0.680940 0.386960 -0.629273
O7    O     O_R   0.623210 0.499990 0.613090 -0.566348
O8    O     O_R   0.623240 0.500030 0.386950 -0.587833
C3    C     C_R   0.498192 0.737263 0.500107 0.945766
C4    C     C_R   0.662019 0.500117 0.500395 0.910289
C5    C     C_3   0.972122 0.397128 0.560552 -0.213855
C6    C     C_3   0.027589 0.399307 0.433421 -0.215956
H1    H     H_    0.051714 0.317201 0.378097 0.176020
H2    H     H_    0.947261 0.312670 0.610556 0.177267
C7    C     C_1   0.248977 0.500237 0.498824 -0.160168
C8    C     C_1   0.750969 0.500436 0.501257 -0.097067
C9    C     C_3   0.029229 0.498269 0.625939 -0.117569
C10   C     C_3   0.082766 0.500726 0.498814 0.108357
C11   C     C_3   0.972717 0.601972 0.566044 -0.206320
C12   C     C_3   0.917188 0.500819 0.500896 0.053339
C13   C     C_3   0.028202 0.604712 0.438920 -0.218025
C14   C     C_3   0.971564 0.503239 0.375909 0.514648
C15   C     C_1   0.173643 0.500502 0.498565 -0.011988
C16   C     C_1   0.826282 0.500681 0.501540 0.046106
H3    H     H_    0.052825 0.688866 0.388050 0.176560
H4    H     H_    0.948336 0.684400 0.620521 0.181862
H5    H     H_    0.055170 0.496224 0.728973 0.160949
C17   C     C_2   0.501452 0.932687 0.387863 -0.147106
C18   C     C_2   0.490379 0.868786 0.500252 -0.301011
H6    H     H_    0.513505 0.886708 0.293313 0.187840
H7    H     H_    0.473088 0.911693 0.594065 0.171015
C19   C     C_2   0.496406 0.066530 0.387658 -0.142434
C20   C     C_2   0.509789 0.131329 0.499433 -0.312110
H8    H     H_    0.482392 0.111770 0.293498 0.183198
H9    H     H_    0.528882 0.089136 0.592737 0.171174
C21   C     C_2   0.526568 0.593730 0.926700 0.333012
N1    N     N_2   0.500900 0.501330 0.852150 -0.238376
H10   H     H_    0.466064 0.432347 0.897156 0.133051
C22   C     C_2   0.513429 0.598315 0.075335 -0.178437
N2    N     N_2   0.500930 0.501360 0.147810 -0.206748
H11   H     H_    0.520902 0.687338 0.125228 0.200271
H12   H     H_    0.501877 0.416040 0.101262 0.167250
N3    N     N_R   0.568384 0.698292 0.867405 0.238551
O9    O     O_R   0.549524 0.810527 0.905859 -0.418073
O10   O     O_R   0.636265 0.681226 0.796497 -0.340739
S1    S     S_3+6 0.931738 0.506542 0.209558 0.028705
O11   O     O_2   0.878047 0.392807 0.184470 -0.286107
O12   O     O_2   0.878777 0.621278 0.190523 -0.277034
O13   O     O_3   0.013930 0.508499 0.103266 -0.557854
H13   H     H_    0.987493 0.509942 0.013498 0.382721

loop_
_geom_bond_atom_site_label_1
_geom_bond_atom_site_label_2
_geom_bond_distance
_ccdc_geom_bond_type
C5    H2    1.110136 S    
S1    O12   1.502715 D    
C11   C12   1.533985 S    
C3    C18   1.419503 S    
C12   C16   1.429180 S    
O4    Zn2   1.976534 S    
C7    C15   1.184321 T    
N1    H10   1.027930 S    
N3    O9    1.301065 A    
Zn2   O8    1.972038 S    
C22   N2    1.288654 D    
C17   C18   1.335491 D    
C19   H8    1.086796 S    
S1    O11   1.502709 D    
C20   H9    1.083875 S    
C5    C12   1.533988 S    
O13   H13   0.990671 S    
Zn1   O7    1.976533 S    
C2    C7    1.398950 S    
C9    H5    1.110277 S    
C12   C14   1.523074 S    
O3    Zn1   1.972037 S    
C17   C19   1.441155 S    
Zn2   O6    1.980133 S    
C21   N1    1.302891 D    
C18   H7    1.083873 S    
O8    C4    1.288959 A    
O2    C1    1.286644 A    
C10   C15   1.428705 S    
C14   S1    1.781141 S    
C9    C11   1.549131 S    
C6    C14   1.537389 S    
O4    C2    1.289124 A    
O7    C4    1.288918 A    
S1    O13   1.681019 S    
C5    C6    1.550567 S    
C11   H4    1.110138 S    
C4    C8    1.398349 S    
C5    C9    1.549039 S    
C11   C13   1.550763 S    
C1    C20   1.418850 S    
C13   H3    1.110190 S    
N3    O10   1.299603 A    
O3    C2    1.289006 A    
Zn1   O5    1.983149 S    
O5    C3    1.288651 A    
C19   C20   1.333974 D    
C6    C10   1.533929 S    
C8    C16   1.183958 T    
O1    Zn1   1.980135 S    
C13   C14   1.537479 S    
C9    C10   1.533551 S    
C21   N3    1.433356 S    
C22   H11   1.084099 S    
C10   C13   1.533973 S    
C21   C22   1.508761 S    
O2    Zn2   1.983151 S    
Zn2   N2    2.020830 S    
Zn1   N1    2.020148 S    
N2    H12   1.027931 S    
C6    H1    1.110194 S    
O1    C1    1.287628 A    
O6    C3    1.285946 A    
C17   H6    1.086703 S    
