data_mof_unit_53791.cif
_audit_creation_date              2013-03-05T16:48:16-0500
_audit_creation_method            fapswitch 2.2
_symmetry_space_group_name_H-M    P1
_symmetry_Int_Tables_number       1
_space_group_crystal_system       triclinic
_cell_length_a                    23.474076
_cell_length_b                    8.945011
_cell_length_c                    8.106195
_cell_angle_alpha                 89.773265
_cell_angle_beta                  90.000027
_cell_angle_gamma                 89.999768
_cell_volume                      1702.0920041

loop_
_atom_site_label
_atom_site_type_symbol
_atom_site_description
_atom_site_fract_x
_atom_site_fract_y
_atom_site_fract_z
_atom_type_partial_charge
O1    O     O_R   0.500000 0.285350 0.636850 -0.612532
O2    O     O_R   0.500000 0.714650 0.363150 -0.612529
O3    O     O_R   0.500000 0.714650 0.636850 -0.612692
O4    O     O_R   0.500000 0.285350 0.363150 -0.612699
H1    H     H_    0.948123 0.124466 0.552775 0.187651
H2    H     H_    0.051645 0.875681 0.457102 0.186901
H3    H     H_    0.948063 0.875061 0.447085 0.187710
H4    H     H_    0.051706 0.123959 0.542799 0.186948
C1    C     C_R   0.500001 0.217973 0.500207 0.942402
C2    C     C_R   0.500000 0.782027 0.499793 0.942420
O5    O     O_R   0.416160 0.500000 0.636910 -0.620422
O6    O     O_R   0.583840 0.500000 0.363090 -0.619853
O7    O     O_R   0.583840 0.500000 0.636910 -0.619839
O8    O     O_R   0.416160 0.500000 0.363090 -0.620424
C3    C     C_R   0.208098 0.499910 0.499981 0.154726
C4    C     C_R   0.791728 0.499703 0.499962 0.158859
C5    C     C_R   0.389069 0.499999 0.500000 0.891600
C6    C     C_R   0.610924 0.499988 0.499999 0.890684
Zn1   Zn    Zn3+2 0.500000 0.500000 0.682780 1.016379
Zn2   Zn    Zn3+2 0.500000 0.500000 0.317220 1.016372
C7    C     C_R   0.297412 0.541882 0.357712 -0.221055
C8    C     C_R   0.702537 0.455710 0.358836 -0.218092
C9    C     C_R   0.297414 0.458046 0.642277 -0.221059
C10   C     C_R   0.702564 0.543987 0.641133 -0.218014
H5    H     H_    0.320835 0.573953 0.247915 0.204592
H6    H     H_    0.679021 0.421871 0.250169 0.207254
H7    H     H_    0.320839 0.425999 0.752080 0.204593
H8    H     H_    0.679071 0.577902 0.749815 0.207195
C11   C     C_R   0.327009 0.499980 0.499998 -0.082535
C12   C     C_R   0.672974 0.499904 0.499988 -0.084703
C13   C     C_R   0.880583 0.632208 0.478304 0.604101
C14   C     C_R   0.118937 0.366124 0.504535 0.598813
C15   C     C_R   0.880602 0.367250 0.521544 0.604614
C16   C     C_R   0.118914 0.633591 0.495399 0.598821
N1    N     N_R   0.852454 0.499715 0.499922 -0.334991
N2    N     N_R   0.147214 0.499874 0.499973 -0.335924
C17   C     C_R   0.940043 0.364172 0.519317 0.002112
C18   C     C_R   0.059504 0.635982 0.488607 0.001997
C19   C     C_R   0.940022 0.635345 0.480540 0.002118
C20   C     C_R   0.059526 0.363666 0.511299 0.001985
C21   C     C_R   0.969853 0.499775 0.499933 -0.008013
C22   C     C_R   0.029680 0.499807 0.499945 -0.010240
C23   C     C_R   0.970206 0.229572 0.535935 -0.141798
C24   C     C_R   0.029424 0.770437 0.469903 -0.139417
C25   C     C_R   0.970163 0.769979 0.463932 -0.141792
C26   C     C_R   0.029467 0.229178 0.529988 -0.139383
C27   C     C_1   0.500001 0.065164 0.500295 -0.167207
C28   C     C_1   0.500001 0.934836 0.499705 -0.167211
C29   C     C_R   0.238047 0.542309 0.355229 -0.010959
C30   C     C_R   0.761918 0.454641 0.356400 -0.014155
C31   C     C_R   0.238050 0.457548 0.644742 -0.010969
C32   C     C_R   0.761944 0.544853 0.643538 -0.014019
N3    N     N_1   0.500000 0.500000 0.073640 -0.024758
N4    N     N_1   0.500000 0.500000 0.926360 -0.024757
O9    O     O_2   0.850919 0.759938 0.455722 -0.531576
O10   O     O_2   0.148419 0.236550 0.504281 -0.529049
O11   O     O_2   0.850956 0.239493 0.544127 -0.531532
O12   O     O_2   0.148375 0.763198 0.495669 -0.529067
C33   C     C_2   0.208890 0.587803 0.199825 0.965168
O13   O     O_2   0.160258 0.546777 0.170709 -0.597345
O14   O     O_R   0.237678 0.677039 0.084753 -0.786844
H9    H     H_    0.213440 0.702487 0.985011 0.368716
C34   C     C_2   0.791189 0.405779 0.202412 0.959920
O15   O     O_2   0.841148 0.437007 0.177273 -0.599256
O16   O     O_R   0.760980 0.324761 0.083777 -0.788541
H10   H     H_    0.785219 0.297513 0.984820 0.369445
C35   C     C_2   0.208895 0.412019 0.800136 0.965165
O17   O     O_2   0.160255 0.452996 0.829243 -0.597328
O18   O     O_R   0.237693 0.322806 0.915212 -0.786843
H11   H     H_    0.213456 0.297328 0.014947 0.368723
C36   C     C_2   0.791251 0.593639 0.797489 0.959727
O19   O     O_2   0.841166 0.561995 0.822731 -0.599367
O20   O     O_R   0.761124 0.675042 0.915978 -0.788346
H12   H     H_    0.785383 0.702182 0.014932 0.369422

loop_
_geom_bond_atom_site_label_1
_geom_bond_atom_site_label_2
_geom_bond_distance
_ccdc_geom_bond_type
C10   C32   1.394061 A    
C13   C19   1.395682 A    
C15   O11   1.349856 S    
C34   O16   1.399438 S    
C18   C24   1.402355 A    
C6    C12   1.456560 S    
C3    C31   1.418237 A    
C5    C11   1.456813 S    
C21   C22   1.404400 A    
C16   O12   1.349946 S    
C9    C31   1.393677 A    
C27   C28   1.165815 T    
C29   C33   1.488932 S    
C8    C30   1.394073 A    
C19   C25   1.402782 A    
O3    Zn1   1.954364 S    
O6    Zn2   2.002884 S    
C7    C29   1.393675 A    
C14   N2    1.368575 A    
H1    C23   1.081788 S    
C33   O13   1.222427 D    
C19   C21   1.408598 A    
C32   C36   1.491783 S    
C31   C35   1.488928 S    
N3    N4    1.193880 T    
C20   C26   1.402353 A    
C30   C34   1.491849 S    
O8    C5    1.279101 A    
O5    Zn1   2.002886 S    
O14   H9    1.013801 S    
C8    H6    1.083695 S    
O7    C6    1.279033 A    
C17   C21   1.408594 A    
H3    C25   1.081795 S    
Zn1   N4    1.974507 S    
C20   C22   1.407629 A    
C15   N1    1.367343 A    
C4    C30   1.417801 A    
C1    C27   1.366875 S    
C16   N2    1.368571 A    
C9    H7    1.083869 S    
C3    C29   1.418236 A    
C4    N1    1.425506 S    
C2    C28   1.366875 S    
O18   H11   1.013812 S    
C23   C26   1.391949 A    
C13   N1    1.367339 A    
C17   C23   1.402791 A    
O1    Zn1   1.957258 S    
C10   C12   1.396645 A    
C33   O14   1.399299 S    
O7    Zn1   2.002884 S    
O2    Zn2   1.957257 S    
C35   O17   1.222436 D    
O4    Zn2   1.954365 S    
C18   C22   1.407624 A    
C9    C11   1.396458 A    
C3    N2    1.429212 S    
C36   O19   1.222471 D    
C14   C20   1.395851 A    
O1    C1    1.263100 A    
C24   C25   1.391936 A    
O8    Zn2   2.002887 S    
C36   O20   1.399434 S    
O16   H10   1.013989 S    
O20   H12   1.013988 S    
O6    C6    1.279013 A    
C4    C32   1.417803 A    
O3    C2    1.261853 A    
C7    H5    1.083864 S    
O5    C5    1.279102 A    
H2    C24   1.080898 S    
C8    C12   1.396670 A    
H4    C26   1.080905 S    
C13   O9    1.349862 S    
O4    C1    1.261853 A    
C16   C18   1.395849 A    
C7    C11   1.396456 A    
C14   O10   1.349945 S    
C15   C17   1.395710 A    
C34   O15   1.222459 D    
C10   H8    1.083700 S    
Zn2   N3    1.974507 S    
C35   O18   1.399312 S    
O2    C2    1.263100 A    
