data_mof_unit_13407.cif
_audit_creation_date              2012-12-10T20:57:55-0500
_audit_creation_method            fapswitch 2.2
_symmetry_space_group_name_H-M    P1
_symmetry_Int_Tables_number       1
_space_group_crystal_system       triclinic
_cell_length_a                    15.091275
_cell_length_b                    15.410933
_cell_length_c                    15.855969
_cell_angle_alpha                 90.4007
_cell_angle_beta                  90.159849
_cell_angle_gamma                 66.513616
_cell_volume                      3382.04732435

loop_
_atom_site_label
_atom_site_type_symbol
_atom_type_description
_atom_site_fract_x
_atom_site_fract_y
_atom_site_fract_z
_atom_type_partial_charge
C1    C     C_R   0.499470 0.501114 0.339025 0.905024
C2    C     C_R   0.506162 0.493313 0.086897 0.018367
C3    C     C_R   0.441811 0.462803 0.954971 0.113334
C4    C     C_R   0.564246 0.532315 0.045051 0.112433
C5    C     C_1   0.498266 0.503607 0.823774 -0.026181
C6    C     C_1   0.503227 0.495979 0.176238 -0.019575
C7    C     C_1   0.500684 0.498777 0.250911 -0.219187
C8    C     C_1   0.499258 0.502106 0.749071 -0.212728
C9    C     C_R   0.949944 0.507468 0.422895 0.144820
C10   C     C_R   0.050125 0.492520 0.577404 0.127144
C11   C     C_R   0.905088 0.499988 0.499390 -0.038392
C12   C     C_R   0.499980 0.500281 0.660976 0.896692
C13   C     C_R   0.094847 0.500167 0.500710 -0.052222
C14   C     C_R   0.955248 0.492601 0.576140 0.045345
C15   C     C_R   0.043988 0.508175 0.423937 0.045182
C16   C     C_R   0.560913 0.322508 0.497978 0.894691
C17   C     C_R   0.439166 0.677472 0.502279 0.873045
C18   C     C_1   0.806989 0.500009 0.499889 0.109497
C19   C     C_1   0.192967 0.500126 0.500157 0.053785
C20   C     C_R   0.603072 0.218791 0.490429 -0.187358
C21   C     C_R   0.397950 0.780531 0.515394 -0.165592
C22   C     C_R   0.707564 0.070371 0.422635 0.077165
C23   C     C_R   0.605742 0.891291 0.473280 -0.225700
C24   C     C_R   0.297460 0.924243 0.592493 0.086435
C25   C     C_R   0.679122 0.168974 0.433234 0.126482
C26   C     C_R   0.321994 0.827023 0.573842 0.071230
C27   C     C_R   0.558150 0.169730 0.535289 0.008179
C28   C     C_R   0.446519 0.830724 0.477704 0.014906
C29   C     C_R   0.567434 0.080253 0.506534 0.045789
C30   C     C_R   0.439770 0.916318 0.513823 0.018399
C31   C     C_R   0.650855 0.025025 0.458728 0.039498
C32   C     C_R   0.356924 0.969306 0.562466 0.070169
C33   C     C_R   0.495242 0.045019 0.523003 0.067887
C34   C     C_R   0.403033 0.103159 0.554210 -0.255252
C35   C     C_R   0.512979 0.950787 0.501499 0.064093
C36   C     C_3   0.267452 0.774521 0.616272 -0.385032
C37   C     C_3   0.185063 0.772778 0.560818 -0.809141
C38   C     C_3   0.727154 0.219386 0.379172 -0.369844
C39   C     C_3   0.666928 0.260712 0.300635 -0.842521
C40   C     C_3   0.634180 0.561740 0.096261 -0.381916
C41   C     C_3   0.719790 0.475544 0.129036 -0.857677
C42   C     C_3   0.376077 0.427749 0.904268 -0.393586
C43   C     C_3   0.431042 0.326434 0.872855 -0.861625
C44   C     C_3   0.607848 0.593391 0.907605 -0.386651
C45   C     C_R   0.672937 0.927194 0.448854 0.076875
C46   C     C_3   0.711789 0.527858 0.886273 -0.836143
C47   C     C_3   0.391130 0.409433 0.092542 -0.387122
C48   C     C_3   0.293147 0.482001 0.121985 -0.868051
C49   C     C_3   0.897083 0.515912 0.339642 -0.373727
C50   C     C_3   0.829204 0.618394 0.323040 -0.877294
C51   C     C_3   0.104355 0.483435 0.660170 -0.398605
C52   C     C_3   0.175708 0.381587 0.674523 -0.879104
C53   C     C_R   0.336495 0.065857 0.578148 0.102260
C54   C     C_R   0.556381 0.541875 0.956578 0.098693
C55   C     C_R   0.446844 0.456499 0.043489 0.106130
C56   C     C_R   0.497585 0.504260 0.913148 0.003598
H1    H     H_    0.627923 0.815516 0.469929 0.163512
H2    H     H_    0.566414 0.214730 0.654547 0.180567
H3    H     H_    0.211068 0.744386 0.496966 0.272266
H4    H     H_    0.152316 0.727463 0.590436 0.233497
H5    H     H_    0.128246 0.845206 0.554025 0.235771
H6    H     H_    0.317175 0.701640 0.633274 0.215479
H7    H     H_    0.236602 0.806700 0.677781 0.181516
H8    H     H_    0.666253 0.202798 0.258885 0.256548
H9    H     H_    0.591455 0.306281 0.318057 0.246240
H10   H     H_    0.698582 0.303476 0.265466 0.241982
H11   H     H_    0.741047 0.274550 0.414740 0.220500
H12   H     H_    0.379936 0.178740 0.559779 0.167638
H13   H     H_    0.800467 0.170864 0.358427 0.216639
H14   H     H_    0.765669 0.988933 0.318471 0.208081
H15   H     H_    0.843942 0.971183 0.402640 0.210286
H16   H     H_    0.154720 0.969799 0.622841 0.196304
H17   H     H_    0.231373 0.948223 0.707338 0.173174
H18   H     H_    0.696213 0.436191 0.175926 0.262580
H19   H     H_    0.756607 0.426952 0.076258 0.256532
H20   H     H_    0.772558 0.498974 0.160173 0.242852
H21   H     H_    0.664670 0.604467 0.060449 0.206630
H22   H     H_    0.595607 0.607518 0.150183 0.201060
H23   H     H_    0.750613 0.829245 0.363011 0.189405
H24   H     H_    0.490717 0.322359 0.830089 0.264690
H25   H     H_    0.461680 0.277944 0.926692 0.252005
H26   H     H_    0.381092 0.302643 0.837436 0.245661
H27   H     H_    0.312087 0.431997 0.940888 0.206575
H28   H     H_    0.344457 0.474373 0.849395 0.208227
H29   H     H_    0.755337 0.502897 0.944323 0.258449
H30   H     H_    0.713147 0.465748 0.849459 0.266350
H31   H     H_    0.745269 0.566587 0.847685 0.241910
H32   H     H_    0.569802 0.622821 0.847747 0.208003
H33   H     H_    0.605011 0.657508 0.941580 0.181109
H34   H     H_    0.796661 0.810269 0.461896 0.191073
H35   H     H_    0.302675 0.534367 0.165515 0.267825
H36   H     H_    0.248848 0.520032 0.067367 0.249462
H37   H     H_    0.253799 0.445467 0.155999 0.249349
H38   H     H_    0.380911 0.353090 0.055217 0.207376
H39   H     H_    0.433177 0.371441 0.148275 0.209076
H40   H     H_    0.102065 0.578701 0.349929 0.191475
H41   H     H_    0.152170 0.459326 0.337912 0.187217
H42   H     H_    0.897063 0.543534 0.690711 0.175205
H43   H     H_    0.952982 0.423142 0.684136 0.197130
H44   H     H_    0.774328 0.645481 0.373898 0.251975
H45   H     H_    0.262272 0.158112 0.669404 0.188964
H46   H     H_    0.871037 0.663449 0.319564 0.264302
H47   H     H_    0.791211 0.622956 0.262123 0.247262
H48   H     H_    0.948514 0.489792 0.286180 0.222578
H49   H     H_    0.855242 0.470708 0.339533 0.192912
H50   H     H_    0.136576 0.334091 0.677956 0.252703
H51   H     H_    0.229671 0.357120 0.622785 0.259095
H52   H     H_    0.214671 0.377160 0.734918 0.249043
H53   H     H_    0.143743 0.530894 0.660467 0.205214
H54   H     H_    0.054819 0.506504 0.714952 0.193667
H55   H     H_    0.212039 0.182989 0.572248 0.183867
H56   H     H_    0.440815 0.795392 0.354754 0.178680
H57   H     H_    0.550136 0.737010 0.399760 0.201361
H58   H     H_    0.456011 0.268711 0.610406 0.202975
N1    N     N_1   0.270550 0.499970 0.500020 -0.091509
N2    N     N_3   0.908484 0.484437 0.652604 -0.458968
N3    N     N_1   0.729450 0.500030 0.499980 -0.096399
N4    N     N_3   0.763928 0.862237 0.416515 -0.493521
N5    N     N_3   0.246799 0.128329 0.614803 -0.434206
N6    N     N_3   0.491570 0.802271 0.396330 -0.462717
N7    N     N_3   0.515001 0.204045 0.616364 -0.465123
N8    N     N_3   0.787849 0.020792 0.367943 -0.474135
N9    N     N_3   0.216882 0.975548 0.646351 -0.432997
N10   N     N_3   0.087041 0.518169 0.345949 -0.467092
O1    O     O_R   0.573650 0.500000 0.378020 -0.605578
O2    O     O_R   0.426350 0.500000 0.621980 -0.615393
O3    O     O_R   0.426300 0.500040 0.378020 -0.605991
O4    O     O_R   0.573700 0.499960 0.621980 -0.595887
O5    O     O_R   0.615760 0.367720 0.500000 -0.613001
O6    O     O_R   0.384240 0.632280 0.500000 -0.604165
O7    O     O_R   0.468410 0.367760 0.500000 -0.607484
O8    O     O_R   0.531590 0.632240 0.500000 -0.611735
Zn1   Zn    Zn3+2 0.598380 0.499970 0.500000 0.953123
Zn2   Zn    Zn3+2 0.401620 0.500030 0.500000 0.944030

loop_
_geom_bond_atom_site_label_1
_geom_bond_atom_site_label_2
_ccdc_geom_bond_type
C45   N4    S    
C21   C26   A    
C11   C18   S    
C23   C45   A    
C27   C29   A    
C5    C56   S    
O3    Zn2   S    
O7    Zn2   S    
N3    Zn1   S    
C49   H48   S    
C27   N7    S    
C3    C42   S    
O6    Zn2   S    
C39   H8    S    
C30   C35   A    
H34   N4    S    
C36   C37   S    
C1    O1    A    
H41   N10   S    
C2    C55   A    
C38   C39   S    
C11   C14   A    
C12   O2    A    
C20   C25   A    
H23   N4    S    
C29   C33   A    
H55   N5    S    
C16   O7    A    
H15   N8    S    
C41   H18   S    
H58   N7    S    
C3    C55   A    
C4    C40   S    
C52   H51   S    
O8    Zn1   S    
H17   N9    S    
C48   H35   S    
C48   H36   S    
C36   H7    S    
C8    C12   S    
C46   H29   S    
C38   H13   S    
C52   H50   S    
C50   H47   S    
C51   H53   S    
C17   O8    A    
C39   H9    S    
C2    C6    S    
C36   H6    S    
C10   C51   S    
C44   C46   S    
C22   N8    S    
C54   C56   A    
C22   C31   A    
C13   C19   S    
C51   C52   S    
H45   N5    S    
C9    C49   S    
C15   N10   S    
C34   H12   S    
H43   N2    S    
H56   N6    S    
H40   N10   S    
C49   H49   S    
C43   H24   S    
C22   C25   A    
C24   N9    S    
C17   C21   S    
C2    C4    A    
C24   C32   A    
C25   C38   S    
C41   H19   S    
H57   N6    S    
C3    C56   A    
H14   N8    S    
H42   N2    S    
C47   C48   S    
C19   N1    T    
C16   C20   S    
C33   C34   A    
C42   H28   S    
C16   O5    A    
C9    C11   A    
C18   N3    T    
O2    Zn2   S    
C37   H3    S    
O5    Zn1   S    
C26   C36   S    
C40   C41   S    
N1    Zn2   S    
C21   C28   A    
C50   H46   S    
C51   H54   S    
C23   C35   A    
C13   C15   A    
H16   N9    S    
C28   N6    S    
C43   H25   S    
C39   H10   S    
C40   H22   S    
C42   C43   S    
C32   C53   A    
C47   C55   S    
C46   H31   S    
O1    Zn1   S    
C23   H1    S    
H2    N7    S    
C4    C54   A    
C17   O6    A    
C1    C7    S    
C42   H27   S    
C1    O3    A    
C24   C26   A    
C10   C13   A    
C5    C8    T    
C37   H5    S    
C53   N5    S    
C6    C7    T    
C12   O4    A    
C20   C27   A    
C50   H44   S    
C28   C30   A    
C9    C15   A    
C29   C31   A    
O4    Zn1   S    
C41   H20   S    
C30   C32   A    
C14   N2    S    
C33   C35   A    
C47   H38   S    
C48   H37   S    
C37   H4    S    
C44   C54   S    
C38   H11   S    
C52   H52   S    
C34   C53   A    
C49   C50   S    
C31   C45   A    
C43   H26   S    
C47   H39   S    
C40   H21   S    
C44   H32   S    
C44   H33   S    
C10   C14   A    
C46   H30   S    
