data_mof_unit_7956.cif
_audit_creation_date              2012-12-10T18:14:25-0500
_audit_creation_method            fapswitch 2.2
_symmetry_space_group_name_H-M    P1
_symmetry_Int_Tables_number       1
_space_group_crystal_system       triclinic
_cell_length_a                    12.561015
_cell_length_b                    13.154338
_cell_length_c                    19.22873
_cell_angle_alpha                 90.87165
_cell_angle_beta                  102.717479
_cell_angle_gamma                 82.531277
_cell_volume                      3072.66430653

loop_
_atom_site_label
_atom_site_type_symbol
_atom_type_description
_atom_site_fract_x
_atom_site_fract_y
_atom_site_fract_z
_atom_type_partial_charge
C1    C     C_R   0.439046 0.690848 0.486385 0.863383
C2    C     C_R   0.502231 0.496237 0.710144 -0.066867
C3    C     C_R   0.497791 0.483928 0.069907 0.271350
C4    C     C_R   0.500147 0.485661 0.930369 0.265833
C5    C     C_R   0.398063 0.501594 0.167673 -0.167196
C6    C     C_R   0.398392 0.505484 0.239836 -0.197278
C7    C     C_R   0.498581 0.495159 0.290176 -0.024185
C8    C     C_R   0.598372 0.479708 0.267883 -0.204292
C9    C     C_R   0.598006 0.474336 0.195819 -0.165021
C10   C     C_R   0.497888 0.485878 0.145449 0.094150
C11   C     C_R   0.726936 0.051292 0.493445 -0.244104
C12   C     C_R   0.500924 0.499552 0.634335 0.875919
C13   C     C_R   0.598014 0.197449 0.511391 -0.123209
C14   C     C_R   0.291285 0.837848 0.470507 -0.191377
C15   C     C_R   0.257598 0.942686 0.465326 -0.148637
C16   C     C_R   0.334063 0.009939 0.464417 -0.193919
C17   C     C_R   0.445549 0.972310 0.465382 0.091635
C18   C     C_R   0.473651 0.866477 0.457011 0.083678
C19   C     C_R   0.531354 0.034820 0.477457 0.076528
C20   C     C_R   0.639222 0.993575 0.472391 0.158959
C21   C     C_R   0.658616 0.893664 0.448975 -0.246943
C22   C     C_R   0.575767 0.831336 0.439637 -0.196701
C23   C     C_R   0.561442 0.308162 0.510159 0.859953
C24   C     C_R   0.513997 0.135518 0.498783 -0.272964
C25   C     C_R   0.708497 0.152771 0.516215 0.001202
C26   C     C_R   0.400179 0.799099 0.468751 -0.121417
C27   C     C_R   0.084814 0.352945 0.396350 -0.324798
C28   C     C_R   0.801142 0.627042 0.586430 0.014483
C29   C     C_R   0.906819 0.653966 0.605217 -0.261998
C30   C     C_R   0.987652 0.606424 0.572103 -0.210450
C31   C     C_R   0.962717 0.531166 0.519802 0.018250
C32   C     C_R   0.853862 0.506018 0.503012 0.245433
C33   C     C_R   0.041115 0.479407 0.484101 -0.016180
C34   C     C_R   0.499334 0.499132 0.365776 0.844133
C35   C     C_R   0.008610 0.405509 0.431586 0.194083
C36   C     C_R   0.901036 0.382932 0.415909 -0.299042
C37   C     C_R   0.825696 0.430704 0.452468 -0.191096
C38   C     C_R   0.151353 0.497247 0.498480 -0.064404
C39   C     C_R   0.192551 0.373935 0.413299 0.000642
C40   C     C_R   0.410434 0.469307 0.731988 -0.243139
C41   C     C_R   0.409089 0.463861 0.803831 0.008300
C42   C     C_R   0.501689 0.487936 0.854989 -0.006859
C43   C     C_R   0.594786 0.515861 0.833077 0.013154
C44   C     C_R   0.594224 0.518540 0.760572 -0.250623
H1    H     H_    0.339718 0.449964 0.692987 0.162380
H2    H     H_    0.738855 0.862468 0.440394 0.151362
H3    H     H_    0.810150 0.015252 0.495111 0.133915
H4    H     H_    0.434160 0.167868 0.506089 0.166411
H5    H     H_    0.232633 0.787347 0.477307 0.156126
H6    H     H_    0.303118 0.090488 0.462115 0.125866
H7    H     H_    0.173060 0.972236 0.465468 0.136689
H8    H     H_    0.593483 0.755035 0.419891 0.181690
H9    H     H_    0.252952 0.334397 0.386600 0.136581
H10   H     H_    0.875829 0.325425 0.376891 0.150827
H11   H     H_    0.061392 0.296050 0.356487 0.144866
H12   H     H_    0.183763 0.551931 0.536961 0.126121
H13   H     H_    0.737778 0.663643 0.611898 0.141513
H14   H     H_    0.068199 0.630257 0.588484 0.134695
H15   H     H_    0.926039 0.711522 0.645244 0.151344
H16   H     H_    0.746570 0.405225 0.441127 0.211984
H17   H     H_    0.664932 0.540388 0.743545 0.158040
H18   H     H_    0.319954 0.510204 0.129366 0.145573
H19   H     H_    0.320536 0.517573 0.256169 0.155255
H20   H     H_    0.676601 0.470969 0.306012 0.156349
H21   H     H_    0.675914 0.462878 0.179540 0.148289
N1    N     N_R   0.586492 0.436340 0.977968 -0.163034
N2    N     N_R   0.585506 0.435857 0.046800 -0.178589
N3    N     N_R   0.411113 0.532525 0.022111 -0.179228
N4    N     N_R   0.412413 0.533635 0.953362 -0.163399
N5    N     N_R   0.222200 0.444680 0.463280 -0.100262
N6    N     N_R   0.776960 0.554780 0.536340 -0.131867
O1    O     O_R   0.366740 0.627160 0.482470 -0.614209
O2    O     O_R   0.544830 0.662520 0.505920 -0.619632
O3    O     O_R   0.410920 0.482320 0.590130 -0.623585
O4    O     O_R   0.589010 0.517690 0.613590 -0.623548
O5    O     O_R   0.455170 0.337480 0.494080 -0.614690
O6    O     O_R   0.633260 0.372840 0.517530 -0.626798
O7    O     O_R   0.410990 0.482310 0.386410 -0.615293
O8    O     O_R   0.589080 0.517680 0.409870 -0.647337
Zn1   Zn    Zn3+2 0.381090 0.476390 0.484340 0.934352
Zn2   Zn    Zn3+2 0.618910 0.523610 0.515660 0.924795
C45   C     C_R   0.311100 0.428883 0.822922 0.126122
C46   C     C_R   0.322555 0.342593 0.867506 -0.129536
C47   C     C_R   0.229587 0.307608 0.882757 -0.123627
C48   C     C_R   0.124549 0.357663 0.853147 -0.128263
C49   C     C_R   0.112233 0.443086 0.808433 -0.151005
C50   C     C_R   0.204953 0.478573 0.793228 -0.149173
H22   H     H_    0.403239 0.301814 0.889774 0.128341
H23   H     H_    0.238944 0.241153 0.917123 0.129733
H24   H     H_    0.052676 0.330043 0.864649 0.119519
H25   H     H_    0.030798 0.481583 0.785339 0.130844
H26   H     H_    0.194058 0.544653 0.758231 0.126060
C51   C     C_R   0.691957 0.546810 0.883970 0.130531
C52   C     C_R   0.797785 0.495597 0.885022 -0.161629
C53   C     C_R   0.889543 0.525452 0.932334 -0.137039
C54   C     C_R   0.876532 0.606816 0.978575 -0.103019
C55   C     C_R   0.771788 0.658818 0.977384 -0.133510
C56   C     C_R   0.679812 0.629405 0.930078 -0.129498
H27   H     H_    0.809082 0.432285 0.849549 0.119527
H28   H     H_    0.970773 0.485536 0.933212 0.136543
H29   H     H_    0.947660 0.629765 0.015174 0.126994
H30   H     H_    0.761887 0.722170 0.012971 0.130555
H31   H     H_    0.599285 0.671108 0.929219 0.129394
C57   C     C_R   0.805115 0.204233 0.551404 0.134146
C58   C     C_R   0.901530 0.193975 0.524524 -0.172562
C59   C     C_R   0.994380 0.236664 0.560567 -0.119715
C60   C     C_R   0.991884 0.290900 0.623304 -0.111677
C61   C     C_R   0.897344 0.300631 0.651047 -0.140079
C62   C     C_R   0.805141 0.256243 0.616053 -0.088783
H32   H     H_    0.904833 0.153783 0.475338 0.120176
H33   H     H_    0.067959 0.228665 0.539327 0.136257
H34   H     H_    0.063346 0.324990 0.650569 0.137625
H35   H     H_    0.895855 0.341687 0.700118 0.121930
H36   H     H_    0.733832 0.262188 0.639613 0.112895

loop_
_geom_bond_atom_site_label_1
_geom_bond_atom_site_label_2
_ccdc_geom_bond_type
C6    H19   S    
C58   H32   S    
C38   N5    A    
C51   C52   A    
C12   O3    A    
C41   C42   A    
C11   H3    S    
C53   C54   A    
C18   C26   A    
C23   O5    A    
C2    C12   S    
C55   C56   A    
C7    C8    A    
C28   H13   S    
C46   C47   A    
C5    C6    A    
C36   C37   A    
C3    N3    A    
C16   H6    S    
C49   H25   S    
C30   C31   A    
O7    Zn1   S    
C14   H5    S    
C59   C60   A    
C11   C25   A    
C45   C50   A    
C61   C62   A    
C13   C23   S    
C60   H34   S    
C57   C58   A    
C43   C51   S    
N3    N4    A    
C19   C20   A    
C2    C44   A    
C8    C9    A    
C60   C61   A    
C31   C33   A    
C15   H7    S    
C9    C10   A    
C55   H30   S    
C46   H22   S    
O3    Zn1   S    
C21   C22   A    
C13   C25   A    
O2    Zn2   S    
C4    N4    A    
C32   N6    A    
C59   H33   S    
C40   H1    S    
C11   C20   A    
C1    O1    A    
C15   C16   A    
N5    Zn1   S    
C24   H4    S    
C29   H15   S    
C47   C48   A    
C27   C39   A    
O8    Zn2   S    
C53   H28   S    
C16   C17   A    
C27   C35   A    
C48   C49   A    
C23   O6    A    
C13   C24   A    
C35   C36   A    
C61   H35   S    
C43   C44   A    
C29   C30   A    
C34   O8    A    
C31   C32   A    
C14   C15   A    
O6    Zn2   S    
C54   C55   A    
C17   C18   A    
C32   C37   A    
C14   C26   A    
C62   H36   S    
C8    H20   S    
C40   C41   A    
C1    C26   S    
C7    C34   S    
C28   N6    A    
C42   C43   A    
C17   C19   A    
C50   H26   S    
C49   C50   A    
C22   H8    S    
C21   H2    S    
C28   C29   A    
C18   C22   A    
C3    N2    A    
O5    Zn1   S    
C48   H24   S    
C25   C57   S    
C6    C7    A    
O4    Zn2   S    
C44   H17   S    
C58   C59   A    
C33   C38   A    
C1    O2    A    
C19   C24   A    
C5    C10   A    
O1    Zn1   S    
C3    C10   S    
C34   O7    A    
C4    N1    A    
C39   H9    S    
C4    C42   S    
C52   H27   S    
C41   C45   S    
C30   H14   S    
C33   C35   A    
C39   N5    A    
C5    H18   S    
N1    N2    A    
C27   H11   S    
C52   C53   A    
C9    H21   S    
C37   H16   S    
C36   H10   S    
C2    C40   A    
C38   H12   S    
C20   C21   A    
C45   C46   A    
C47   H23   S    
C12   O4    A    
C57   C62   A    
C54   H29   S    
C51   C56   A    
C56   H31   S    
N6    Zn2   S    
