data_mof_unit_11191.cif
_audit_creation_date              2012-12-10T16:52:03-0500
_audit_creation_method            fapswitch 2.2
_symmetry_space_group_name_H-M    P1
_symmetry_Int_Tables_number       1
_space_group_crystal_system       triclinic
_cell_length_a                    7.836223
_cell_length_b                    8.543154
_cell_length_c                    14.855814
_cell_angle_alpha                 92.075612
_cell_angle_beta                  85.144763
_cell_angle_gamma                 93.407057
_cell_volume                      988.73159314

loop_
_atom_site_label
_atom_site_type_symbol
_atom_type_description
_atom_site_fract_x
_atom_site_fract_y
_atom_site_fract_z
_atom_type_partial_charge
C1    C     C_R   0.545316 0.794378 0.497764 0.960288
C2    C     C_R   0.567954 0.633033 0.812555 -0.246395
C3    C     C_R   0.496756 0.500063 0.232317 -0.040462
C4    C     C_R   0.503244 0.499937 0.767683 -0.040462
C5    C     C_R   0.562158 0.632673 0.187197 -0.224185
C6    C     C_R   0.437842 0.367327 0.812803 -0.224185
C7    C     C_R   0.562621 0.634069 0.094164 0.117853
C8    C     C_R   0.437379 0.365931 0.905836 0.117853
C9    C     C_R   0.498878 0.499428 0.046904 0.042622
C10   C     C_R   0.501122 0.500572 0.953096 0.042622
C11   C     C_R   0.433354 0.363795 0.093661 0.071388
C12   C     C_R   0.454684 0.205622 0.502236 0.960289
C13   C     C_R   0.566646 0.636205 0.906339 0.071388
C14   C     C_R   0.625907 0.767990 0.048226 -0.235152
C15   C     C_R   0.374093 0.232010 0.951773 -0.235152
C16   C     C_1   0.692931 0.912486 0.910219 0.157000
C17   C     C_1   0.307069 0.087513 0.089781 0.157000
C18   C     C_1   0.025966 0.348382 0.416442 0.410956
C19   C     C_1   0.974034 0.651618 0.583558 0.410955
C20   C     C_R   0.628048 0.770483 0.954574 -0.006175
C21   C     C_R   0.371952 0.229517 0.045426 -0.006175
C22   C     C_2   0.569254 0.957861 0.496457 -0.369848
C23   C     C_2   0.430746 0.042139 0.503543 -0.369848
C24   C     C_R   0.501096 0.500384 0.672595 0.880777
C25   C     C_R   0.498904 0.499616 0.327404 0.880777
C26   C     C_R   0.432046 0.366967 0.187445 -0.246395
H1    H     H_    0.383465 0.266380 0.226245 0.153261
H2    H     H_    0.616535 0.733619 0.773755 0.153261
H3    H     H_    0.611444 0.734404 0.224860 0.136680
H4    H     H_    0.388556 0.265596 0.775139 0.136680
H5    H     H_    0.673310 0.870923 0.085498 0.158001
H6    H     H_    0.326690 0.129077 0.914502 0.158001
H7    H     H_    0.700338 0.008287 0.489668 0.185258
H8    H     H_    0.299662 0.991713 0.510332 0.185258
N1    N     N_2   0.950330 0.457950 0.475660 -0.156779
N2    N     N_2   0.049670 0.542050 0.524340 -0.156779
N3    N     N_1   0.744739 0.026222 0.874813 -0.196167
N4    N     N_1   0.255261 0.973777 0.125187 -0.196167
N5    N     N_1   0.087101 0.256212 0.366614 -0.253219
N6    N     N_1   0.912898 0.743788 0.633386 -0.253219
O1    O     O_R   0.389250 0.738570 0.505970 -0.623438
O2    O     O_R   0.610750 0.261430 0.494030 -0.623438
O3    O     O_R   0.678390 0.711620 0.490370 -0.633394
O4    O     O_R   0.321610 0.288380 0.509630 -0.633394
O5    O     O_R   0.355420 0.513510 0.639950 -0.622126
O6    O     O_R   0.644580 0.486490 0.360050 -0.622125
O7    O     O_R   0.644560 0.486560 0.624350 -0.622950
O8    O     O_R   0.355440 0.513440 0.375650 -0.622950
Zn1   Zn    Zn3+2 0.306940 0.517990 0.510420 0.956204
Zn2   Zn    Zn3+2 0.693060 0.482010 0.489580 0.956204

loop_
_geom_bond_atom_site_label_1
_geom_bond_atom_site_label_2
_ccdc_geom_bond_type
O4    Zn1   S    
C2    C4    A    
C18   N5    T    
C8    C10   A    
O3    Zn2   S    
C11   C26   A    
C8    C15   A    
C2    H2    S    
C9    C10   A    
O6    Zn2   S    
N1    N2    D    
C12   C23   S    
O5    Zn1   S    
C14   H5    S    
C16   C20   S    
C23   H8    S    
C7    C9    A    
N1    Zn2   S    
C1    C22   S    
C12   O4    A    
C9    C11   A    
C25   O8    A    
C26   H1    S    
C15   C21   A    
O2    Zn2   S    
C15   H6    S    
C24   O5    A    
O1    Zn1   S    
O8    Zn1   S    
C6    H4    S    
C11   C21   A    
O7    Zn2   S    
C5    H3    S    
C17   N4    T    
C3    C26   A    
C4    C24   S    
C19   N6    T    
C12   O2    A    
C14   C20   A    
C3    C25   S    
C4    C6    A    
C18   N1    S    
C1    O1    A    
C5    C7    A    
C2    C13   A    
C22   C23   D    
C6    C8    A    
C13   C20   A    
C19   N2    S    
C24   O7    A    
C25   O6    A    
C1    O3    A    
C7    C14   A    
C17   C21   S    
N2    Zn1   S    
C16   N3    T    
C3    C5    A    
C10   C13   A    
C22   H7    S    
