data_mof_unit_44962.cif
_audit_creation_date              2012-12-11T15:26:46-0500
_audit_creation_method            fapswitch 2.2
_symmetry_space_group_name_H-M    P1
_symmetry_Int_Tables_number       1
_space_group_crystal_system       triclinic
_cell_length_a                    7.220746
_cell_length_b                    12.095819
_cell_length_c                    29.207248
_cell_angle_alpha                 90.015354
_cell_angle_beta                  90.671594
_cell_angle_gamma                 90.0478
_cell_volume                      2550.80924751

loop_
_atom_site_label
_atom_site_type_symbol
_atom_type_description
_atom_site_fract_x
_atom_site_fract_y
_atom_site_fract_z
_atom_type_partial_charge
O1    O     O_R   0.647170 0.849180 0.201220 -0.539184
O2    O     O_R   0.352830 0.150820 0.798780 -0.539184
O3    O     O_R   0.352830 0.150820 0.701220 -0.536625
O4    O     O_R   0.647170 0.849180 0.298780 -0.536625
O5    O     O_R   0.147170 0.650820 0.298780 -0.537456
O6    O     O_R   0.852830 0.349180 0.701220 -0.537456
O7    O     O_R   0.852830 0.349180 0.798780 -0.520023
O8    O     O_R   0.147170 0.650820 0.201220 -0.520023
O9    O     O_R   0.317430 0.862210 0.298450 -0.531356
O10   O     O_R   0.682570 0.137790 0.701550 -0.531356
O11   O     O_R   0.682570 0.137790 0.798450 -0.532109
O12   O     O_R   0.317430 0.862210 0.201550 -0.532109
O13   O     O_R   0.817430 0.637790 0.201550 -0.545112
O14   O     O_R   0.182570 0.362210 0.798450 -0.545112
O15   O     O_R   0.182570 0.362210 0.701550 -0.529744
O16   O     O_R   0.817430 0.637790 0.298450 -0.529743
H1    H     H_    0.012345 0.224030 0.454645 0.189577
H2    H     H_    0.987659 0.775969 0.545355 0.189577
H3    H     H_    0.017364 0.776155 0.955030 0.187623
H4    H     H_    0.982636 0.223845 0.044970 0.187623
H5    H     H_    0.418847 0.272115 0.044741 0.188953
H6    H     H_    0.581153 0.727885 0.955259 0.188953
H7    H     H_    0.491878 0.723942 0.545299 0.189841
H8    H     H_    0.508122 0.276058 0.454701 0.189841
C1    C     C_R   0.486596 0.887756 0.313325 0.799829
C2    C     C_R   0.513404 0.112244 0.686675 0.799829
C3    C     C_R   0.514921 0.112197 0.813314 0.804273
C4    C     C_R   0.485079 0.887802 0.186686 0.804273
C5    C     C_R   0.984819 0.612257 0.186614 0.792732
C6    C     C_R   0.015180 0.387743 0.813386 0.792732
C7    C     C_R   0.013480 0.387727 0.686664 0.800734
C8    C     C_R   0.986520 0.612273 0.313336 0.800733
H9    H     H_    0.952903 0.606811 0.690542 0.161914
H10   H     H_    0.047103 0.393190 0.309458 0.161914
H11   H     H_    0.931461 0.392510 0.189939 0.163109
H12   H     H_    0.068539 0.607490 0.810061 0.163109
H13   H     H_    0.520404 0.890271 0.809235 0.160780
H14   H     H_    0.479596 0.109729 0.190765 0.160780
H15   H     H_    0.544763 0.107151 0.309467 0.161253
H16   H     H_    0.455238 0.892848 0.690533 0.161253
O17   O     O_3   0.480630 0.680630 0.250000 -0.386131
O18   O     O_3   0.519370 0.319370 0.750000 -0.386131
O19   O     O_3   0.980630 0.819370 0.250000 -0.388908
O20   O     O_3   0.019370 0.180630 0.750000 -0.388908
V1    V     V_3+5 0.205800 0.762860 0.250000 1.601440
V2    V     V_3+5 0.794200 0.237140 0.750000 1.601441
V3    V     V_3+5 0.705800 0.737140 0.250000 1.580382
V4    V     V_3+5 0.294200 0.262860 0.750000 1.580382
H17   H     H_    0.968697 0.282447 0.530786 0.224787
H18   H     H_    0.031304 0.717552 0.469213 0.224786
H19   H     H_    0.969123 0.717526 0.030879 0.210380
H20   H     H_    0.030877 0.282474 0.969121 0.210380
H21   H     H_    0.401268 0.209817 0.968405 0.209801
H22   H     H_    0.598732 0.790183 0.031595 0.209801
H23   H     H_    0.534855 0.782664 0.469175 0.225373
H24   H     H_    0.465144 0.217336 0.530825 0.225373
C9    C     C_R   0.997497 0.535420 0.351955 -0.215215
C10   C     C_R   0.002503 0.464580 0.648045 -0.215215
C11   C     C_R   0.011887 0.465129 0.851935 -0.219252
C12   C     C_R   0.988112 0.534871 0.148065 -0.219252
C13   C     C_R   0.490514 0.964748 0.148077 -0.223269
C14   C     C_R   0.509486 0.035252 0.851923 -0.223269
C15   C     C_R   0.502361 0.035396 0.648040 -0.215237
C16   C     C_R   0.497639 0.964604 0.351959 -0.215237
C17   C     C_R   0.036232 0.349812 0.380530 0.720186
C18   C     C_R   0.963773 0.650188 0.619469 0.720187
C19   C     C_R   0.046208 0.650769 0.880934 0.718452
C20   C     C_R   0.953793 0.349230 0.119066 0.718452
C21   C     C_R   0.472051 0.151346 0.119455 0.724643
C22   C     C_R   0.527949 0.848654 0.880545 0.724643
C23   C     C_R   0.466063 0.849567 0.619440 0.721188
C24   C     C_R   0.533938 0.150433 0.380560 0.721189
C25   C     C_R   0.030876 0.423655 0.344073 -0.299521
C26   C     C_R   0.969128 0.576345 0.655927 -0.299521
C27   C     C_R   0.046335 0.576983 0.844446 -0.294038
C28   C     C_R   0.953665 0.423017 0.155554 -0.294038
C29   C     C_R   0.483145 0.078163 0.156059 -0.297148
C30   C     C_R   0.516855 0.921836 0.843941 -0.297148
C31   C     C_R   0.470649 0.923430 0.655914 -0.300129
C32   C     C_R   0.529352 0.076570 0.344086 -0.300130
C33   C     C_R   0.976671 0.575096 0.396692 0.593321
C34   C     C_R   0.023326 0.424903 0.603307 0.593321
C35   C     C_R   0.984504 0.425401 0.896437 0.589352
C36   C     C_R   0.015496 0.574599 0.103563 0.589352
C37   C     C_R   0.493006 0.923546 0.103224 0.588001
C38   C     C_R   0.506994 0.076454 0.896775 0.588000
C39   C     C_R   0.522243 0.075220 0.603305 0.593422
C40   C     C_R   0.477757 0.924780 0.396695 0.593422
C41   C     C_R   0.999571 0.503193 0.434982 -0.111181
C42   C     C_R   0.000428 0.496806 0.565017 -0.111181
C43   C     C_R   0.003692 0.497120 0.934960 -0.112742
C44   C     C_R   0.996308 0.502880 0.065040 -0.112742
C45   C     C_R   0.495917 0.996840 0.065025 -0.114470
C46   C     C_R   0.504083 0.003160 0.934974 -0.114470
C47   C     C_R   0.500286 0.003181 0.565011 -0.111888
C48   C     C_R   0.499714 0.996819 0.434989 -0.111888
C49   C     C_R   0.017909 0.388226 0.425733 -0.064301
C50   C     C_R   0.982093 0.611773 0.574267 -0.064303
C51   C     C_R   0.023399 0.612124 0.925951 -0.063595
C52   C     C_R   0.976601 0.387876 0.074049 -0.063595
C53   C     C_R   0.474517 0.111690 0.074165 -0.064999
C54   C     C_R   0.525482 0.888309 0.925834 -0.064999
C55   C     C_R   0.483695 0.888097 0.574241 -0.064628
C56   C     C_R   0.516305 0.111902 0.425759 -0.064628
C57   C     C_R   0.000344 0.539800 0.481817 0.105292
C58   C     C_R   0.999655 0.460199 0.518183 0.105293
C59   C     C_R   0.001079 0.460285 0.981765 0.110243
C60   C     C_R   0.998921 0.539715 0.018235 0.110243
C61   C     C_R   0.512116 0.961035 0.018287 0.107867
C62   C     C_R   0.487884 0.038965 0.981712 0.107867
C63   C     C_R   0.498989 0.039794 0.518189 0.105056
C64   C     C_R   0.501010 0.960206 0.481811 0.105055
C65   C     C_R   0.992652 0.347073 0.506348 -0.134549
C66   C     C_R   0.007348 0.652926 0.493651 -0.134548
C67   C     C_R   0.993642 0.652896 0.006495 -0.133300
C68   C     C_R   0.006357 0.347104 0.993505 -0.133300
C69   C     C_R   0.443896 0.149161 0.993201 -0.130184
C70   C     C_R   0.556104 0.850839 0.006799 -0.130184
C71   C     C_R   0.509767 0.847123 0.493623 -0.134672
C72   C     C_R   0.490233 0.152877 0.506377 -0.134672
C73   C     C_R   0.010557 0.312135 0.461454 -0.147213
C74   C     C_R   0.989445 0.687864 0.538546 -0.147212
C75   C     C_R   0.014337 0.688014 0.961720 -0.144344
C76   C     C_R   0.985663 0.311986 0.038280 -0.144344
C77   C     C_R   0.446579 0.185514 0.038164 -0.145824
C78   C     C_R   0.553420 0.814486 0.961836 -0.145824
C79   C     C_R   0.492260 0.812058 0.538506 -0.146511
C80   C     C_R   0.507739 0.187942 0.461494 -0.146511
F1    F     F_    0.059328 0.240481 0.371577 -0.672501
F2    F     F_    0.940680 0.759518 0.628422 -0.672501
F3    F     F_    0.070328 0.760151 0.872235 -0.674063
F4    F     F_    0.929672 0.239849 0.127765 -0.674063
F5    F     F_    0.455886 0.261159 0.128361 -0.671065
F6    F     F_    0.544114 0.738840 0.871639 -0.671065
F7    F     F_    0.444617 0.740094 0.628375 -0.672137
F8    F     F_    0.555383 0.259906 0.371624 -0.672136
F9    F     F_    0.079452 0.318484 0.598856 -0.685359
F10   F     F_    0.920541 0.681514 0.401144 -0.685359
F11   F     F_    0.070985 0.681284 0.099631 -0.666680
F12   F     F_    0.929015 0.318716 0.900369 -0.666680
F13   F     F_    0.526053 0.187418 0.901639 -0.667995
F14   F     F_    0.473947 0.812582 0.098361 -0.667995
F15   F     F_    0.423168 0.818025 0.401144 -0.685150
F16   F     F_    0.576831 0.181975 0.598856 -0.685149

loop_
_geom_bond_atom_site_label_1
_geom_bond_atom_site_label_2
_ccdc_geom_bond_type
H17   C65   S    
C40   C48   A    
O9    V1    S    
C22   C30   A    
C16   C32   A    
C21   C29   A    
C63   C64   A    
C23   C31   A    
O4    C1    A    
O9    C1    A    
C15   C31   A    
C14   C38   A    
H3    C75   S    
O12   C4    A    
O8    C5    A    
C8    C9    S    
C60   C67   A    
O13   C5    A    
H12   C27   S    
C11   C35   A    
C34   F9    S    
C10   C34   A    
C23   F7    S    
H21   C69   S    
H6    C78   S    
C18   C26   A    
O3    V4    S    
C17   C25   A    
O16   V3    S    
C9    C25   A    
C20   F4    S    
O8    V1    S    
C49   C73   A    
C38   C46   A    
C37   C45   A    
C44   C60   A    
C36   F11   S    
O20   V2    S    
C16   C40   A    
C39   C47   A    
O10   V2    S    
O1    C4    A    
C53   C77   A    
C59   C60   A    
O16   C8    A    
O2    C3    A    
C39   F16   S    
C55   C79   A    
C40   F15   S    
C19   C51   A    
O5    C8    A    
C33   C41   A    
C4    C13   S    
O10   C2    A    
O6    C7    A    
O7    C6    A    
H24   C72   S    
O6    V2    S    
O15   V4    S    
O14   C6    A    
C62   C69   A    
C35   F12   S    
C47   C55   A    
C61   C70   A    
H20   C68   S    
C33   F10   S    
H11   C28   S    
C67   C75   A    
C58   C65   A    
O7    V2    S    
C43   C59   A    
C57   C66   A    
C42   C58   A    
C45   C53   A    
H8    C80   S    
O13   V3    S    
C44   C52   A    
O1    V3    S    
O14   V4    S    
C24   C56   A    
O2    V4    S    
O5    V1    S    
C46   C62   A    
H19   C67   S    
C41   C49   A    
C63   C72   A    
H18   C66   S    
C1    C16   S    
C7    C10   S    
C2    C15   S    
C20   C52   A    
C3    C14   S    
C48   C64   A    
C56   C80   A    
C5    C12   S    
O11   C3    A    
C6    C11   S    
C22   C54   A    
O17   V3    S    
H16   C31   S    
O18   V4    S    
C36   C44   A    
O19   V1    S    
C13   C37   A    
H2    C74   S    
H1    C73   S    
C13   C29   A    
C48   C56   A    
C9    C33   A    
C19   C27   A    
H5    C77   S    
C11   C27   A    
C10   C26   A    
H7    C79   S    
C57   C58   A    
C51   C75   A    
C50   C74   A    
C23   C55   A    
C21   F5    S    
C68   C76   A    
C15   C39   A    
C14   C30   A    
O3    C2    A    
C19   F3    S    
O12   V1    S    
C54   C78   A    
C37   F14   S    
C64   C71   A    
C17   F1    S    
C72   C80   A    
O15   C7    A    
H14   C29   S    
C21   C53   A    
C20   C28   A    
C35   C43   A    
H13   C30   S    
C34   C42   A    
C43   C51   A    
H15   C32   S    
C18   C50   A    
H22   C70   S    
C17   C49   A    
C24   C32   A    
C47   C63   A    
C61   C62   A    
C12   C36   A    
C12   C28   A    
C59   C68   A    
H4    C76   S    
C24   F8    S    
H10   C25   S    
C66   C74   A    
H9    C26   S    
H23   C71   S    
C65   C73   A    
C46   C54   A    
C41   C57   A    
C22   F6    S    
O11   V2    S    
C70   C78   A    
C52   C76   A    
C69   C77   A    
C42   C50   A    
C38   F13   S    
C45   C61   A    
C18   F2    S    
O4    V3    S    
C71   C79   A    
