data_mof_unit_19188.cif
_audit_creation_date              2012-12-10T17:50:49-0500
_audit_creation_method            fapswitch 2.2
_symmetry_space_group_name_H-M    P1
_symmetry_Int_Tables_number       1
_space_group_crystal_system       triclinic
_cell_length_a                    14.712251
_cell_length_b                    14.559974
_cell_length_c                    15.847816
_cell_angle_alpha                 76.910198
_cell_angle_beta                  102.43722
_cell_angle_gamma                 114.479666
_cell_volume                      2980.90895844

loop_
_atom_site_label
_atom_site_type_symbol
_atom_type_description
_atom_site_fract_x
_atom_site_fract_y
_atom_site_fract_z
_atom_type_partial_charge
C1    C     C_R   0.880842 0.311517 0.512312 0.800870
C2    C     C_R   0.359781 0.925017 0.481052 0.087683
C3    C     C_R   0.674581 0.003997 0.491829 0.114925
C4    C     C_R   0.324263 0.001687 0.480902 0.115626
C5    C     C_R   0.533702 0.053684 0.490762 0.075701
C6    C     C_R   0.465065 0.951438 0.482981 0.076271
C7    C     C_R   0.503986 0.879538 0.476431 -0.215828
C8    C     C_R   0.494197 0.128039 0.488389 -0.217950
C9    C     C_R   0.606532 0.905722 0.480493 -0.221585
C10   C     C_R   0.391607 0.102282 0.483227 -0.221438
C11   C     C_R   0.716107 0.670387 0.355847 -0.323195
C12   C     C_R   0.119261 0.688646 0.486866 0.801246
C13   C     C_R   0.283116 0.328389 0.642970 -0.321454
C14   C     C_R   0.797162 0.639748 0.378173 0.077667
C15   C     C_R   0.202424 0.359575 0.621209 0.076651
C16   C     C_R   0.999458 0.500086 0.660037 0.828031
C17   C     C_R   0.000530 0.499892 0.339966 0.827505
C18   C     C_R   0.714558 0.508562 0.487895 0.011438
C19   C     C_R   0.285322 0.491305 0.511944 0.012494
C20   C     C_R   0.628517 0.534851 0.467395 -0.021898
C21   C     C_R   0.370829 0.464184 0.531626 -0.022902
C22   C     C_R   0.631884 0.618708 0.400407 0.166250
C23   C     C_R   0.777776 0.028149 0.495661 -0.193023
C24   C     C_R   0.367232 0.379948 0.598257 0.164204
C25   C     C_R   0.540578 0.482276 0.510988 0.078575
C26   C     C_R   0.458505 0.516369 0.487643 0.081256
C27   C     C_R   0.467038 0.601522 0.421366 -0.238550
C28   C     C_R   0.531652 0.396523 0.576671 -0.240937
C29   C     C_R   0.551679 0.650989 0.378554 -0.210652
C30   C     C_R   0.447004 0.347032 0.619477 -0.203826
C31   C     C_3   0.982469 0.405087 0.043956 -0.158017
C32   C     C_3   0.017473 0.594766 0.956073 -0.157809
C33   C     C_3   0.909455 0.435358 0.967780 -0.158312
C34   C     C_R   0.221422 0.977492 0.479090 -0.193016
C35   C     C_3   0.090487 0.564495 0.032248 -0.158439
C36   C     C_1   0.998483 0.500357 0.749590 -0.181991
C37   C     C_1   0.001480 0.499569 0.250423 -0.181813
C38   C     C_3   0.072090 0.469904 0.991770 -0.155641
C39   C     C_3   0.927852 0.529950 0.008258 -0.155318
C40   C     C_3   0.999079 0.500175 0.917137 0.190474
C41   C     C_3   0.000863 0.499680 0.082890 0.190466
C42   C     C_1   0.998421 0.500366 0.825215 -0.074714
C43   C     C_1   0.001528 0.499518 0.174806 -0.074755
C44   C     C_R   0.814460 0.202505 0.511833 -0.070342
C45   C     C_R   0.848502 0.127074 0.504094 0.167447
C46   C     C_R   0.185865 0.798427 0.481482 -0.071358
C47   C     C_3   0.042270 0.856054 0.480944 -0.835470
C48   C     C_3   0.957868 0.149253 0.502472 -0.834341
C49   C     C_R   0.151357 0.876732 0.479681 0.169344
C50   C     C_R   0.711517 0.175898 0.512304 -0.293449
C51   C     C_R   0.288872 0.824071 0.481620 -0.298183
C52   C     C_R   0.639430 0.078667 0.498375 0.088658
Cu1   Cu    Cu3+1 0.081740 0.475690 0.522610 0.933729
Cu2   Cu    Cu3+1 0.918260 0.524310 0.477390 0.934630
H1    H     H_    0.835136 0.382402 0.939933 0.130744
H2    H     H_    0.588911 0.365052 0.596570 0.129478
H3    H     H_    0.968161 0.327252 0.081412 0.131190
H4    H     H_    0.031782 0.672603 0.918621 0.131304
H5    H     H_    0.868659 0.554595 0.016418 0.132428
H6    H     H_    0.131284 0.445258 0.983612 0.132373
H7    H     H_    0.632751 0.848245 0.474573 0.152449
H8    H     H_    0.364889 0.161793 0.481966 0.152346
H9    H     H_    0.312295 0.762589 0.484532 0.157490
H10   H     H_    0.689621 0.233320 0.523983 0.151157
H11   H     H_    0.803034 0.969813 0.490074 0.135329
H12   H     H_    0.164806 0.617451 0.060096 0.130784
H13   H     H_    0.195886 0.037675 0.478563 0.135228
H14   H     H_    0.457468 0.802409 0.465850 0.139387
H15   H     H_    0.540037 0.207950 0.488378 0.144760
H16   H     H_    0.554537 0.715806 0.327879 0.141672
H17   H     H_    0.443845 0.281772 0.669722 0.142673
H18   H     H_    0.995894 0.826592 0.420452 0.235071
H19   H     H_    0.014851 0.800181 0.539495 0.242634
H20   H     H_    0.031386 0.926337 0.483754 0.209146
H21   H     H_    0.003084 0.171918 0.565542 0.236422
H22   H     H_    0.968731 0.081314 0.493071 0.209150
H23   H     H_    0.280176 0.552370 0.460811 0.121073
H24   H     H_    0.986675 0.210896 0.447536 0.242581
H25   H     H_    0.720007 0.448065 0.539554 0.121229
H26   H     H_    0.137071 0.319240 0.655125 0.123552
H27   H     H_    0.862373 0.679843 0.344070 0.122431
H28   H     H_    0.719437 0.734442 0.304260 0.136492
H29   H     H_    0.279516 0.263895 0.694143 0.136931
H30   H     H_    0.409305 0.632300 0.400730 0.127134
N1    N     N_R   0.795440 0.560790 0.443380 -0.174570
N2    N     N_R   0.204560 0.439210 0.556620 -0.174841
O1    O     O_R   0.977900 0.338120 0.529810 -0.583495
O2    O     O_R   0.022100 0.661880 0.470190 -0.582353
O3    O     O_R   0.839850 0.379180 0.491620 -0.587572
O4    O     O_R   0.160150 0.620820 0.508380 -0.588712
O5    O     O_R   0.069010 0.479460 0.640020 -0.574354
O6    O     O_R   0.930990 0.520540 0.359980 -0.574601
O7    O     O_R   0.930960 0.520530 0.601820 -0.579135
O8    O     O_R   0.069040 0.479470 0.398180 -0.579940

loop_
_geom_bond_atom_site_label_1
_geom_bond_atom_site_label_2
_ccdc_geom_bond_type
C33   H1    S    
C38   C40   S    
C21   C26   A    
C1    O1    A    
C23   C45   A    
C22   C29   A    
C27   C29   A    
C50   H10   S    
C48   H22   S    
C36   C42   T    
C32   H4    S    
C19   N2    A    
C30   H17   S    
C28   H2    S    
C39   C41   S    
C2    C6    A    
Cu1   Cu2   S    
C25   C28   A    
C46   C49   A    
C26   C27   A    
C33   C39   S    
C9    H7    S    
C12   O4    A    
C27   H30   S    
C19   C21   A    
C5    C6    A    
C11   C14   A    
C20   C25   A    
C32   C39   S    
C48   H24   S    
C19   H23   S    
Cu2   O7    S    
C7    H14   S    
C3    C23   A    
C18   H25   S    
Cu1   O5    S    
C50   C52   A    
C31   C33   S    
C5    C52   A    
Cu1   N2    S    
C16   O7    A    
C40   C42   S    
C41   C43   S    
C48   H21   S    
C10   H8    S    
C17   O6    A    
C11   H28   S    
C4    C34   A    
C18   N1    A    
C12   O2    A    
C33   C40   S    
C32   C35   S    
C35   C38   S    
C51   H9    S    
C47   H19   S    
Cu2   O3    S    
C47   C49   S    
C35   H12   S    
C25   C26   A    
C46   C51   A    
C13   C24   A    
C37   C43   T    
C2    C4    A    
Cu2   O6    S    
C3    C9    A    
C5    C8    A    
C1    C44   S    
C15   H26   S    
C39   H5    S    
C47   H20   S    
C8    H15   S    
Cu1   O1    S    
C17   C37   S    
C15   N2    A    
C38   H6    S    
C12   C46   S    
C20   C22   A    
C13   C15   A    
C4    C10   A    
C44   C45   A    
C29   H16   S    
C45   C48   S    
C44   C50   A    
C7    C9    A    
C34   C49   A    
C1    O3    A    
C31   C41   S    
Cu1   O8    S    
C14   N1    A    
C34   H13   S    
Cu2   N1    S    
C3    C52   A    
C6    C7    A    
C13   H29   S    
C11   C22   A    
C31   C38   S    
C31   H3    S    
C28   C30   A    
C16   C36   S    
Cu2   O2    S    
C23   H11   S    
C18   C20   A    
C32   C40   S    
C35   C41   S    
C24   C30   A    
C47   H18   S    
C2    C51   A    
C16   O5    A    
C8    C10   A    
C21   C24   A    
Cu1   O4    S    
C17   O8    A    
C14   H27   S    
