data_mof_unit_6154.cif
_audit_creation_date              2012-12-10T18:10:55-0500
_audit_creation_method            fapswitch 2.2
_symmetry_space_group_name_H-M    P1
_symmetry_Int_Tables_number       1
_space_group_crystal_system       triclinic
_cell_length_a                    12.818644
_cell_length_b                    13.163754
_cell_length_c                    15.750153
_cell_angle_alpha                 92.874969
_cell_angle_beta                  104.808045
_cell_angle_gamma                 80.329879
_cell_volume                      2532.85372308

loop_
_atom_site_label
_atom_site_type_symbol
_atom_type_description
_atom_site_fract_x
_atom_site_fract_y
_atom_site_fract_z
_atom_type_partial_charge
C1    C     C_R   0.437536 0.692042 0.488854 0.820961
C2    C     C_R   0.603266 0.198092 0.531113 -0.222990
C3    C     C_R   0.310080 0.843679 0.525397 0.137086
C4    C     C_R   0.502034 0.502129 0.661388 0.869829
C5    C     C_R   0.320554 0.926611 0.584005 -0.221977
C6    C     C_R   0.406286 0.981386 0.592576 -0.124719
C7    C     C_R   0.475688 0.961876 0.534926 0.075543
C8    C     C_R   0.472006 0.871222 0.482709 -0.009659
C9    C     C_R   0.548917 0.028682 0.527282 -0.049115
C10   C     C_R   0.636228 0.989934 0.488494 -0.039039
C11   C     C_R   0.636137 0.896468 0.441888 0.401953
C12   C     C_3   0.375340 0.566477 0.028534 -0.072364
C13   C     C_R   0.542263 0.849070 0.425531 0.071838
C14   C     C_R   0.532644 0.134697 0.548824 0.325506
C15   C     C_R   0.704577 0.152620 0.516803 0.395945
C16   C     C_R   0.562447 0.308858 0.515266 0.900892
C17   C     C_R   0.398385 0.804601 0.488845 -0.131829
C18   C     C_R   0.112269 0.315076 0.411294 0.134185
C19   C     C_R   0.806983 0.631265 0.603620 0.220606
C20   C     C_R   0.899351 0.676306 0.602778 0.024571
C21   C     C_R   0.963243 0.634596 0.545531 0.395271
C22   C     C_R   0.955323 0.535330 0.510988 -0.120110
C23   C     C_3   0.492226 0.510271 0.081758 0.015093
C24   C     C_R   0.854042 0.500121 0.502176 0.000175
C25   C     C_R   0.041759 0.473949 0.480105 -0.076288
C26   C     C_R   0.025065 0.378812 0.437170 -0.013084
C27   C     C_R   0.922114 0.350042 0.418231 0.296958
C28   C     C_R   0.497683 0.497710 0.338529 0.892654
C29   C     C_R   0.836835 0.411108 0.447547 0.414461
C30   C     C_R   0.148597 0.498603 0.496532 -0.006431
C31   C     C_R   0.199109 0.361333 0.403971 0.261475
C32   C     C_3   0.367023 0.575376 0.925009 0.238449
C33   C     C_3   0.590697 0.578783 0.975740 0.251682
C34   C     C_3   0.518688 0.398873 0.042736 -0.077300
C35   C     C_3   0.588692 0.567985 0.076085 -0.110451
C36   C     C_1   0.492392 0.496282 0.248523 -0.232695
C37   C     C_3   0.489134 0.525181 0.915125 0.082478
C38   C     C_3   0.328688 0.665735 0.074945 -0.421195
C39   C     C_3   0.204504 0.678363 0.063008 -0.905709
C40   C     C_3   0.273106 0.515506 0.865065 -0.374373
C41   C     C_3   0.217725 0.441090 0.904412 -0.999801
C42   C     C_3   0.203583 0.802492 0.501020 -0.350603
C43   C     C_3   0.109352 0.885268 0.455867 -0.874162
C44   C     C_3   0.326255 0.691092 0.890627 -0.338243
C45   C     C_3   0.504530 0.407654 0.942469 0.114911
C46   C     C_3   0.292190 0.711597 0.790517 -0.957013
C47   C     C_3   0.505845 0.795067 0.337751 -0.404850
C48   C     C_3   0.396171 0.850985 0.283936 -0.887968
C49   C     C_3   0.253487 0.329073 0.329817 -0.374593
C50   C     C_3   0.210206 0.406432 0.254743 -0.842359
C51   C     C_3   0.129520 0.197880 0.415446 -0.346346
C52   C     C_3   0.126264 0.163454 0.505813 -0.823426
C53   C     C_3   0.757448 0.650653 0.681080 -0.361180
C54   C     C_3   0.810288 0.563841 0.747116 -0.856127
C55   C     C_3   0.938391 0.760593 0.667191 -0.445754
C56   C     C_1   0.492518 0.499581 0.173305 0.014965
C57   C     C_3   0.867608 0.865301 0.642766 -0.852478
C58   C     C_3   0.704114 0.515750 0.963876 -0.314850
C59   C     C_3   0.808553 0.561480 0.005324 -0.970612
C60   C     C_3   0.590163 0.695189 0.952873 -0.312074
C61   C     C_3   0.579818 0.722274 0.857403 -0.895571
C62   C     C_3   0.607063 0.662820 0.140816 -0.403004
C63   C     C_3   0.696792 0.635027 0.225903 -0.895923
C64   C     C_3   0.457060 0.315230 0.066313 -0.409052
C65   C     C_3   0.526614 0.246386 0.142573 -0.847542
C66   C     C_1   0.495055 0.521385 0.824281 -0.011599
C67   C     C_1   0.502083 0.512517 0.750346 -0.229736
C68   C     C_R   0.718705 0.048822 0.491960 -0.279412
H1    H     H_    0.322814 0.512169 0.037118 0.206899
H2    H     H_    0.185266 0.619695 0.102526 0.261198
H3    H     H_    0.174272 0.755951 0.086525 0.259829
H4    H     H_    0.362212 0.662204 0.146872 0.226819
H5    H     H_    0.352208 0.736478 0.055347 0.195437
H6    H     H_    0.275556 0.376981 0.940473 0.252838
H7    H     H_    0.167736 0.482901 0.947207 0.270562
H8    H     H_    0.160516 0.406049 0.850141 0.267222
H9    H     H_    0.200496 0.570529 0.831727 0.238009
H10   H     H_    0.301536 0.475272 0.809485 0.205955
H11   H     H_    0.853691 0.165063 0.518062 0.313455
H12   H     H_    0.606830 0.369088 0.071005 0.212315
H13   H     H_    0.726328 0.783236 0.399658 0.328424
H14   H     H_    0.460431 0.234656 0.617888 0.329859
H15   H     H_    0.077681 0.934845 0.505786 0.244459
H16   H     H_    0.136085 0.933016 0.411645 0.266448
H17   H     H_    0.041208 0.848994 0.414618 0.276968
H18   H     H_    0.204480 0.737776 0.453614 0.255436
H19   H     H_    0.188791 0.775491 0.561876 0.228526
H20   H     H_    0.333413 0.653872 0.751998 0.277185
H21   H     H_    0.202945 0.713582 0.763909 0.239370
H22   H     H_    0.308632 0.788786 0.777449 0.252477
H23   H     H_    0.790626 0.016941 0.469467 0.195600
H24   H     H_    0.250672 0.721735 0.910938 0.218761
H25   H     H_    0.378846 0.745497 0.921729 0.196472
H26   H     H_    0.380286 0.822046 0.215332 0.239326
H27   H     H_    0.328189 0.837872 0.311610 0.267221
H28   H     H_    0.397472 0.935091 0.282672 0.267763
H29   H     H_    0.564768 0.796295 0.297565 0.233148
H30   H     H_    0.500422 0.713424 0.345782 0.213391
H31   H     H_    0.215888 0.486546 0.278732 0.279871
H32   H     H_    0.258086 0.388210 0.204713 0.244567
H33   H     H_    0.123061 0.401950 0.223059 0.245572
H34   H     H_    0.415627 0.039189 0.643771 0.192223
H35   H     H_    0.343127 0.319750 0.351878 0.255000
H36   H     H_    0.235000 0.253351 0.301372 0.168901
H37   H     H_    0.846057 0.232599 0.378628 0.363435
H38   H     H_    0.042062 0.179414 0.514780 0.257466
H39   H     H_    0.155577 0.080035 0.512561 0.254105
H40   H     H_    0.180952 0.203138 0.558516 0.269408
H41   H     H_    0.070704 0.163683 0.362250 0.251997
H42   H     H_    0.211872 0.163901 0.407415 0.198178
H43   H     H_    0.900844 0.556453 0.762836 0.240783
H44   H     H_    0.786665 0.580705 0.809344 0.240775
H45   H     H_    0.260931 0.950052 0.622015 0.150680
H46   H     H_    0.787073 0.488893 0.720531 0.287332
H47   H     H_    0.771028 0.724523 0.715043 0.188503
H48   H     H_    0.667912 0.660161 0.660611 0.244012
H49   H     H_    0.995867 0.765893 0.521554 0.357032
H50   H     H_    0.878189 0.891094 0.580077 0.268066
H51   H     H_    0.779855 0.862077 0.635519 0.257770
H52   H     H_    0.893584 0.922782 0.694539 0.250460
H53   H     H_    0.942025 0.740167 0.735488 0.210836
H54   H     H_    0.024010 0.768006 0.669184 0.215581
H55   H     H_    0.723207 0.369240 0.354024 0.317864
H56   H     H_    0.174898 0.559613 0.541024 0.188664
H57   H     H_    0.817215 0.624206 0.964370 0.268293
H58   H     H_    0.809636 0.590706 0.072628 0.273987
H59   H     H_    0.881278 0.500910 0.009216 0.262305
H60   H     H_    0.720484 0.439067 0.994518 0.246811
H61   H     H_    0.701466 0.501026 0.893621 0.234363
H62   H     H_    0.635049 0.666937 0.828002 0.269328
H63   H     H_    0.496104 0.724815 0.816794 0.282607
H64   H     H_    0.601684 0.800001 0.854694 0.239469
H65   H     H_    0.533430 0.750429 0.980657 0.159042
H66   H     H_    0.668030 0.719668 0.988569 0.215941
H67   H     H_    0.662678 0.512106 0.105510 0.183665
H68   H     H_    0.670760 0.585879 0.268901 0.281039
H69   H     H_    0.773579 0.594491 0.211508 0.257398
H70   H     H_    0.716771 0.706206 0.262371 0.257514
H71   H     H_    0.634303 0.726214 0.113978 0.209379
H72   H     H_    0.530907 0.697634 0.158404 0.214668
H73   H     H_    0.565663 0.320139 0.856411 0.339548
H74   H     H_    0.599227 0.201721 0.124114 0.268288
H75   H     H_    0.554575 0.292431 0.202437 0.259496
H76   H     H_    0.477502 0.191203 0.158061 0.247985
H77   H     H_    0.380510 0.350685 0.083854 0.204741
H78   H     H_    0.431113 0.374865 0.908189 0.145091
H79   H     H_    0.434435 0.262508 0.009682 0.218511
H80   H     H_    0.159700 0.668644 0.993780 0.261915
N1    N     N_R   0.222200 0.444690 0.455710 -0.139060
N2    N     N_R   0.776960 0.554780 0.543830 -0.115142
O1    O     O_R   0.366740 0.627160 0.478850 -0.622920
O2    O     O_3   0.722352 0.859024 0.405510 -0.792145
O3    O     O_3   0.440719 0.177976 0.575995 -0.773255
O4    O     O_3   0.903188 0.265467 0.364084 -0.797531
O5    O     O_3   0.027034 0.692438 0.517041 -0.819043
O6    O     O_3   0.736685 0.383359 0.418170 -0.678212
O7    O     O_3   0.592482 0.344535 0.917614 -0.795285
O8    O     O_R   0.544830 0.662520 0.507140 -0.626465
O9    O     O_R   0.410920 0.482310 0.608710 -0.619208
O10   O     O_R   0.589010 0.517670 0.637000 -0.623303
O11   O     O_R   0.455170 0.337480 0.492860 -0.614130
O12   O     O_R   0.633260 0.372840 0.521150 -0.476939
O13   O     O_R   0.410990 0.482330 0.363000 -0.614241
O14   O     O_R   0.589080 0.517690 0.391290 -0.576692
O15   O     O_3   0.785726 0.211197 0.522632 -0.733580
Zn1   Zn    Zn3+2 0.381090 0.476390 0.481110 0.934217
Zn2   Zn    Zn3+2 0.618910 0.523610 0.518890 0.977216

loop_
_geom_bond_atom_site_label_1
_geom_bond_atom_site_label_2
_ccdc_geom_bond_type
C12   H1    S    
C55   H53   S    
C3    C42   S    
C58   H60   S    
C33   C58   S    
C48   H27   S    
C64   H77   S    
C27   C29   A    
C43   H15   S    
C19   C20   A    
C18   C26   A    
C68   H23   S    
C49   H36   S    
C23   C56   S    
C46   H21   S    
C4    O10   A    
C53   C54   S    
C59   H58   S    
C12   C23   S    
C50   H31   S    
C8    C13   A    
C47   H30   S    
C48   H26   S    
C1    O8    A    
C5    C6    A    
C65   H75   S    
C4    O9    A    
C15   C68   A    
C58   H61   S    
C59   H59   S    
C19   N2    A    
O10   Zn2   S    
C24   C29   A    
C44   H25   S    
C61   H64   S    
C34   H12   S    
C41   H6    S    
H14   O3    S    
C52   H39   S    
C22   C25   A    
C39   H80   S    
H49   O5    S    
C45   O7    S    
C1    O1    A    
C42   H18   S    
C62   H71   S    
C2    C16   S    
C9    C10   A    
O11   Zn1   S    
C44   H24   S    
C53   H48   S    
C57   H51   S    
C19   C53   S    
C27   O4    S    
C6    H34   S    
H37   O4    S    
C55   H54   S    
C52   H38   S    
C51   H41   S    
C21   C22   A    
C12   C32   S    
C43   H16   S    
C63   H69   S    
C31   C49   S    
C20   C55   S    
C18   C31   A    
C44   C46   S    
O8    Zn2   S    
C46   H20   S    
H55   O6    S    
C21   O5    S    
C38   H4    S    
C51   C52   S    
C43   H17   S    
C7    C8    A    
O13   Zn1   S    
C66   C67   T    
C35   H67   S    
C13   C47   S    
C65   H76   S    
C30   N1    A    
C16   O12   A    
C25   C26   A    
C33   C37   S    
C45   H78   S    
C60   C61   S    
C9    C14   A    
C62   C63   S    
C36   C56   T    
C41   H7    S    
C47   C48   S    
C23   C34   S    
C37   C66   S    
C34   C64   S    
C26   C27   A    
C54   H44   S    
C34   C45   S    
C32   C37   S    
H11   O15   S    
C2    C15   A    
C28   C36   S    
C24   N2    A    
C61   H62   S    
C57   H52   S    
H73   O7    S    
C40   C41   S    
C30   H56   S    
C51   H42   S    
C23   C35   S    
C29   O6    S    
C14   O3    S    
C63   H70   S    
C22   C24   A    
C59   H57   S    
C42   C43   S    
C37   C45   S    
O1    Zn1   S    
C60   H66   S    
C28   O14   A    
C25   C30   A    
C7    C9    A    
C48   H28   S    
C5    H45   S    
C1    C17   S    
O14   Zn2   S    
N1    Zn1   S    
C3    C5    A    
C49   H35   S    
C4    C67   S    
C6    C7    A    
C46   H22   S    
C10   C68   A    
C16   O11   A    
C33   C60   S    
H13   O2    S    
C50   H32   S    
C8    C17   A    
C47   H29   S    
O9    Zn1   S    
C18   C51   S    
C63   H68   S    
C55   C57   S    
C58   C59   S    
C64   H79   S    
C64   C65   S    
C41   H8    S    
C65   H74   S    
C11   C13   A    
C38   C39   S    
C31   N1    A    
N2    Zn2   S    
C54   H46   S    
C33   C35   S    
C39   H2    S    
C54   H43   S    
C3    C17   A    
C35   C62   S    
C40   H10   S    
C32   C40   S    
C12   C38   S    
C2    C14   A    
C10   C11   A    
C61   H63   S    
O12   Zn2   S    
C11   O2    S    
C20   C21   A    
C32   C44   S    
C50   H33   S    
C49   C50   S    
C39   H3    S    
C40   H9    S    
C15   O15   S    
C52   H40   S    
C42   H19   S    
C62   H72   S    
C60   H65   S    
C53   H47   S    
C28   O13   A    
C57   H50   S    
C38   H5    S    
