data_mof_unit_14141.cif
_audit_creation_date              2012-12-10T21:07:41-0500
_audit_creation_method            fapswitch 2.2
_symmetry_space_group_name_H-M    P1
_symmetry_Int_Tables_number       1
_space_group_crystal_system       triclinic
_cell_length_a                    8.599675
_cell_length_b                    17.548472
_cell_length_c                    16.869078
_cell_angle_alpha                 89.520779
_cell_angle_beta                  97.198292
_cell_angle_gamma                 92.477123
_cell_volume                      2523.29646201

loop_
_atom_site_label
_atom_site_type_symbol
_atom_type_description
_atom_site_fract_x
_atom_site_fract_y
_atom_site_fract_z
_atom_type_partial_charge
C1    C     C_R   0.501482 0.353504 0.500400 0.909297
C2    C     C_R   0.495398 0.646301 0.499481 0.902591
C3    C     C_1   0.444574 0.964900 0.500333 -0.024315
C4    C     C_1   0.452030 0.032505 0.501980 -0.022712
C5    C     C_R   0.392721 0.453564 0.827440 0.369885
C6    C     C_R   0.605837 0.548055 0.172687 0.369621
C7    C     C_R   0.400392 0.450448 0.743812 0.080795
C8    C     C_R   0.598475 0.550341 0.256388 0.077880
C9    C     C_R   0.599923 0.549397 0.753433 0.582352
C10   C     C_R   0.400681 0.450635 0.246216 0.582254
C11   C     C_R   0.601258 0.550489 0.838050 -0.440023
C12   C     C_R   0.400106 0.449743 0.161640 -0.440491
C13   C     C_R   0.497660 0.502686 0.875884 -0.016568
C14   C     C_R   0.502819 0.498240 0.124050 -0.015930
C15   C     C_1   0.501226 0.501961 0.963691 -0.012219
C16   C     C_1   0.499769 0.499043 0.036268 -0.012668
C17   C     C_R   0.201672 0.499825 0.480257 0.915349
C18   C     C_R   0.798440 0.500703 0.519658 0.926308
C19   C     C_2   0.040287 0.482425 0.474166 -0.112149
C20   C     C_2   0.959771 0.519067 0.525216 -0.114054
C21   C     C_R   0.548139 0.850694 0.558376 -0.321311
C22   C     C_R   0.378185 0.152883 0.445293 -0.324468
C23   C     C_R   0.564717 0.772268 0.558554 0.403377
C24   C     C_R   0.392349 0.232039 0.442595 0.405252
C25   C     C_R   0.476091 0.727988 0.498620 -0.242991
C26   C     C_R   0.497987 0.270738 0.500661 -0.250452
C27   C     C_R   0.366842 0.761966 0.440113 0.318991
C28   C     C_R   0.593549 0.229930 0.559857 0.320113
C29   C     C_R   0.353348 0.841262 0.440044 0.090329
C30   C     C_R   0.577943 0.150114 0.561592 0.099305
C31   C     C_R   0.445324 0.884544 0.499703 -0.008163
C32   C     C_R   0.468446 0.112849 0.504172 -0.006733
H1    H     H_    0.617882 0.885811 0.603386 0.150689
H2    H     H_    0.296243 0.122254 0.401375 0.150495
H3    H     H_    0.682843 0.588765 0.874183 0.171031
H4    H     H_    0.319396 0.411233 0.125304 0.171156
N1    N     N_R   0.500040 0.500030 0.707230 -0.144024
N2    N     N_R   0.499960 0.499970 0.292770 -0.143285
O1    O     O_R   0.500000 0.389130 0.566570 -0.653633
O2    O     O_R   0.500000 0.610870 0.433430 -0.652268
O3    O     O_R   0.499990 0.389100 0.433480 -0.521768
O4    O     O_R   0.500010 0.610900 0.566520 -0.523307
O5    O     O_R   0.271750 0.500010 0.550980 -0.672671
O6    O     O_R   0.728250 0.499990 0.449020 -0.673149
O7    O     O_R   0.271740 0.499980 0.417890 -0.573603
O8    O     O_R   0.728260 0.500020 0.582110 -0.574325
Zn1   Zn    Zn3+2 0.500010 0.500020 0.588860 0.978962
Zn2   Zn    Zn3+2 0.499990 0.499980 0.411140 0.980075
C33   C     C_3   0.986944 0.406718 0.432247 -0.428126
C34   C     C_3   0.012024 0.339862 0.490850 -0.344759
C35   C     C_3   0.935849 0.265631 0.455218 -0.827475
H5    H     H_    0.807187 0.270905 0.441167 0.252559
H6    H     H_    0.984822 0.251537 0.399610 0.268075
H7    H     H_    0.958395 0.218442 0.498865 0.253574
H8    H     H_    0.139854 0.332782 0.506154 0.238135
H9    H     H_    0.962502 0.352058 0.546827 0.211257
H10   H     H_    0.864389 0.405243 0.403177 0.233799
H11   H     H_    0.056913 0.397664 0.382247 0.259843
C36   C     C_3   0.012897 0.594634 0.567532 -0.437333
C37   C     C_3   0.961331 0.662644 0.514432 -0.347188
C38   C     C_3   0.027165 0.738160 0.551572 -0.814824
H12   H     H_    0.987137 0.745606 0.610960 0.276277
H13   H     H_    0.157324 0.739795 0.558944 0.250299
H14   H     H_    0.986015 0.786080 0.512089 0.245578
H15   H     H_    0.001620 0.656934 0.454826 0.219951
H16   H     H_    0.831398 0.663310 0.505946 0.242806
H17   H     H_    0.959200 0.597623 0.623992 0.253237
H18   H     H_    0.140476 0.601258 0.586110 0.231727
O9    O     O_3   0.668694 0.737892 0.615601 -0.729970
H19   H     H_    0.719560 0.777034 0.653522 0.324168
O10   O     O_3   0.301179 0.272792 0.385241 -0.725526
H20   H     H_    0.237797 0.236858 0.347845 0.323281
O11   O     O_3   0.269299 0.719861 0.383687 -0.787510
H21   H     H_    0.250631 0.667959 0.404637 0.337596
O12   O     O_3   0.703182 0.265518 0.616133 -0.790236
H22   H     H_    0.731096 0.317213 0.597549 0.337840
C39   C     C_3   0.239348 0.878308 0.376746 -0.351301
C40   C     C_3   0.311859 0.888603 0.298671 -0.318106
C41   C     C_3   0.198576 0.925695 0.234385 -0.881011
H23   H     H_    0.089137 0.889552 0.221611 0.270112
H24   H     H_    0.169150 0.982984 0.254125 0.256490
H25   H     H_    0.254034 0.932293 0.178583 0.253936
H26   H     H_    0.421171 0.925218 0.309544 0.213665
H27   H     H_    0.342398 0.832294 0.276660 0.254335
H28   H     H_    0.128567 0.842736 0.366219 0.229037
H29   H     H_    0.205229 0.934579 0.397014 0.180965
C42   C     C_3   0.680044 0.105084 0.623765 -0.352918
C43   C     C_3   0.591995 0.084849 0.695147 -0.337553
C44   C     C_3   0.690218 0.036265 0.756088 -0.879926
H30   H     H_    0.716997 0.981867 0.728496 0.253973
H31   H     H_    0.801715 0.067575 0.778813 0.268154
H32   H     H_    0.623893 0.022891 0.807223 0.254655
H33   H     H_    0.563980 0.138129 0.724588 0.241710
H34   H     H_    0.480194 0.052723 0.674533 0.221306
H35   H     H_    0.717153 0.052351 0.596705 0.180654
H36   H     H_    0.790593 0.137871 0.645123 0.240831
O13   O     O_3   0.281094 0.406904 0.858827 -0.788560
H37   H     H_    0.275010 0.419658 0.915265 0.345423
O14   O     O_3   0.714861 0.596408 0.141427 -0.788589
H38   H     H_    0.720059 0.584884 0.084613 0.345484
C45   C     C_3   0.295749 0.389588 0.697827 -0.313245
C46   C     C_3   0.355983 0.309324 0.716879 -0.321821
C47   C     C_3   0.251499 0.247847 0.670766 -0.893236
H39   H     H_    0.127902 0.251748 0.682614 0.279656
H40   H     H_    0.257350 0.253917 0.605799 0.259142
H41   H     H_    0.292449 0.190613 0.689701 0.247833
H42   H     H_    0.477273 0.306221 0.701465 0.262342
H43   H     H_    0.359451 0.296652 0.781620 0.262433
H44   H     H_    0.174185 0.392764 0.713231 0.216419
H45   H     H_    0.284580 0.398027 0.633474 0.238301
C48   C     C_3   0.700341 0.612056 0.302502 -0.308347
C49   C     C_3   0.632915 0.691199 0.285446 -0.316245
C50   C     C_3   0.730872 0.753478 0.333706 -0.905776
H46   H     H_    0.728339 0.743850 0.398540 0.261597
H47   H     H_    0.854290 0.754389 0.320494 0.277103
H48   H     H_    0.681616 0.809865 0.317896 0.250042
H49   H     H_    0.629589 0.705628 0.221076 0.258683
H50   H     H_    0.510748 0.691026 0.300297 0.260871
H51   H     H_    0.715583 0.602210 0.366690 0.236125
H52   H     H_    0.821293 0.611803 0.285685 0.218272
O15   O     O_3   0.700243 0.596969 0.716288 -0.699777
H53   H     H_    0.764915 0.628920 0.757189 0.314740
O16   O     O_3   0.299656 0.403135 0.282895 -0.698235
H54   H     H_    0.234939 0.371486 0.241736 0.314480

loop_
_geom_bond_atom_site_label_1
_geom_bond_atom_site_label_2
_ccdc_geom_bond_type
C49   H50   S    
C42   C43   S    
C45   C46   S    
C27   C29   A    
O11   H21   S    
C23   O9    S    
C48   C49   S    
C11   H3    S    
O13   H37   S    
O16   H54   S    
C39   C40   S    
C21   C31   A    
C22   C32   A    
O1    Zn1   S    
C24   C26   A    
C49   H49   S    
C21   H1    S    
C45   H44   S    
C15   C16   T    
C33   H10   S    
C18   C20   S    
C48   H51   S    
C38   H13   S    
C36   H17   S    
O8    Zn1   S    
C40   H26   S    
C19   C20   D    
C42   H35   S    
C9    O15   S    
C2    O2    A    
C46   H43   S    
N1    Zn1   S    
N2    Zn2   S    
C38   H12   S    
C50   H48   S    
C37   H16   S    
C36   C37   S    
C46   C47   S    
C8    N2    A    
C18   O8    A    
C49   C50   S    
C22   H2    S    
C43   H34   S    
C35   H5    S    
C10   O16   S    
C8    C48   S    
C5    C7    A    
C40   C41   S    
C6    C8    A    
C45   H45   S    
C34   H9    S    
C33   H11   S    
C17   O7    A    
C48   H52   S    
C20   C36   S    
C38   H14   S    
O12   H22   S    
C17   O5    A    
C18   O6    A    
C36   H18   S    
C6    C14   A    
C19   C33   S    
O14   H38   S    
C42   H36   S    
C9    N1    A    
C34   C35   S    
C7    N1    A    
C46   H42   S    
C47   H40   S    
C44   H32   S    
C3    C31   S    
C9    C11   A    
O15   H53   S    
C4    C32   S    
C10   C12   A    
C1    O3    A    
C5    O13   S    
C39   H29   S    
C33   C34   S    
C21   C23   A    
C1    C26   S    
C14   C16   S    
C12   H4    S    
C3    C4    T    
C41   H24   S    
C50   H46   S    
O7    Zn2   S    
O2    Zn2   S    
C43   H33   S    
C5    C13   A    
C12   C14   A    
C37   H15   S    
C41   H25   S    
C25   C27   A    
C26   C28   A    
C34   H8    S    
C10   N2    A    
C35   H7    S    
C6    O14   S    
C13   C15   S    
C30   C42   S    
O10   H20   S    
C29   C31   A    
C30   C32   A    
C11   C13   A    
C2    C25   S    
C2    O4    A    
C28   C30   A    
C17   C19   S    
O3    Zn2   S    
C47   H41   S    
C22   C24   A    
O4    Zn1   S    
C23   C25   A    
O9    H19   S    
C1    O1    A    
C39   H28   S    
C41   H23   S    
C40   H27   S    
C29   C39   S    
C43   C44   S    
C44   H31   S    
C7    C45   S    
C47   H39   S    
C37   C38   S    
C35   H6    S    
C44   H30   S    
C27   O11   S    
C28   O12   S    
O5    Zn1   S    
O6    Zn2   S    
C24   O10   S    
C50   H47   S    
