data_mof_unit_14062.cif
_audit_creation_date              2012-12-10T17:33:13-0500
_audit_creation_method            fapswitch 2.2
_symmetry_space_group_name_H-M    P1
_symmetry_Int_Tables_number       1
_space_group_crystal_system       triclinic
_cell_length_a                    12.195503
_cell_length_b                    12.829104
_cell_length_c                    13.573753
_cell_angle_alpha                 93.982364
_cell_angle_beta                  81.444138
_cell_angle_gamma                 93.847563
_cell_volume                      2091.53692852

loop_
_atom_site_label
_atom_site_type_symbol
_atom_type_description
_atom_site_fract_x
_atom_site_fract_y
_atom_site_fract_z
_atom_type_partial_charge
C1    C     C_R   0.522469 0.699759 0.496574 0.945755
C2    C     C_R   0.144481 0.457072 0.455166 0.231478
C3    C     C_R   0.970642 0.521811 0.545131 -0.088748
C4    C     C_R   0.024626 0.453895 0.471794 -0.104537
C5    C     C_R   0.482369 0.504027 0.686399 0.905722
C6    C     C_R   0.518324 0.499788 0.313729 0.900434
C7    C     C_1   0.532278 0.515385 0.211285 -0.204291
C8    C     C_1   0.474911 0.525370 0.789967 -0.203776
C9    C     C_2   0.559122 0.553196 0.022626 0.090920
C10   C     C_2   0.468305 0.569963 0.981187 0.092557
C11   C     C_1   0.470644 0.547135 0.876948 -0.047194
C12   C     C_R   0.477621 0.300172 0.501562 0.944611
C13   C     C_1   0.545671 0.532781 0.125396 -0.042037
C14   C     C_R   0.462479 0.188954 0.506412 -0.176023
C15   C     C_R   0.537019 0.810751 0.487876 -0.174723
C16   C     C_R   0.625815 0.963168 0.407162 0.363518
C17   C     C_R   0.370407 0.035440 0.581879 0.356281
C18   C     C_R   0.619232 0.854007 0.416216 0.303829
C19   C     C_R   0.376293 0.144358 0.573369 0.334086
C20   C     C_R   0.457562 0.871240 0.544188 -0.304145
C21   C     C_R   0.542527 0.129001 0.449884 -0.297751
C22   C     C_3   0.357985 0.600031 0.040151 -0.421710
C23   C     C_R   0.456388 0.976505 0.529817 0.018904
C24   C     C_3   0.330895 0.709142 0.014581 -0.334811
C25   C     C_3   0.217237 0.739194 0.067887 -0.899081
C26   C     C_3   0.675282 0.546515 0.964448 -0.400846
C27   C     C_3   0.757010 0.624477 0.011373 -0.348736
C28   C     C_3   0.870966 0.629869 0.947788 -0.857085
C29   C     C_3   0.203765 0.405668 0.359664 -0.296266
C30   C     C_3   0.222978 0.481085 0.274505 -0.372021
C31   C     C_3   0.119628 0.489695 0.225134 -0.883989
C32   C     C_3   0.809563 0.640813 0.596055 -0.356370
C33   C     C_3   0.832887 0.731432 0.525856 -0.324534
C34   C     C_R   0.541876 0.022939 0.461709 0.019678
C35   C     C_3   0.950044 0.782406 0.522851 -0.874474
C36   C     C_3   0.209912 0.640617 0.674149 -0.384537
C37   C     C_3   0.164988 0.750575 0.695806 -0.402321
C38   C     C_3   0.211277 0.807507 0.784582 -0.817033
C39   C     C_3   0.789029 0.363869 0.326748 -0.365357
C40   C     C_3   0.846818 0.282173 0.251671 -0.380599
C41   C     C_3   0.789552 0.266241 0.158535 -0.872246
C42   C     C_R   0.955886 0.382118 0.421771 0.371955
C43   C     C_R   0.031565 0.562564 0.620112 0.370659
C44   C     C_R   0.844734 0.405464 0.416327 0.071757
C45   C     C_R   0.149633 0.572317 0.600545 0.096374
C46   C     C_R   0.855558 0.540036 0.545708 0.241592
H1    H     H_    0.607081 0.166433 0.398169 0.217023
H2    H     H_    0.904090 0.550744 0.934624 0.270792
H3    H     H_    0.864746 0.662684 0.875428 0.290908
H4    H     H_    0.929405 0.681924 0.986787 0.243553
H5    H     H_    0.724258 0.703964 0.019743 0.228200
H6    H     H_    0.766704 0.600514 0.086644 0.234819
H7    H     H_    0.702399 0.465651 0.965765 0.202565
H8    H     H_    0.677727 0.564094 0.885138 0.218979
H9    H     H_    0.275713 0.175469 0.695774 0.337543
H10   H     H_    0.711501 0.821511 0.289383 0.339851
H11   H     H_    0.778323 0.971504 0.340441 0.337194
H12   H     H_    0.394616 0.834557 0.597748 0.219610
H13   H     H_    0.215211 0.024722 0.640807 0.341204
H14   H     H_    0.093096 0.412002 0.192956 0.262466
H15   H     H_    0.051078 0.521885 0.279168 0.264327
H16   H     H_    0.138894 0.543308 0.163607 0.252845
H17   H     H_    0.250712 0.560674 0.302142 0.247222
H18   H     H_    0.289520 0.451179 0.216567 0.213073
H19   H     H_    0.281930 0.376044 0.374036 0.202105
H20   H     H_    0.162228 0.332974 0.332587 0.240992
H21   H     H_    0.964713 0.811779 0.598872 0.258283
H22   H     H_    0.013240 0.726303 0.491150 0.258723
H23   H     H_    0.151017 0.684181 0.043182 0.256302
H24   H     H_    0.959422 0.849849 0.474647 0.257984
H25   H     H_    0.820512 0.703259 0.448848 0.281276
H26   H     H_    0.773018 0.792538 0.552150 0.222456
H27   H     H_    0.719796 0.629371 0.619142 0.208617
H28   H     H_    0.839483 0.665728 0.667141 0.234635
H29   H     H_    0.182184 0.765007 0.852987 0.249845
H30   H     H_    0.303494 0.813187 0.771252 0.262702
H31   H     H_    0.180558 0.887537 0.796999 0.280738
H32   H     H_    0.188075 0.796227 0.628481 0.263861
H33   H     H_    0.073394 0.747802 0.713981 0.257019
H34   H     H_    0.214049 0.738035 0.150030 0.271377
H35   H     H_    0.205655 0.600048 0.744448 0.194606
H36   H     H_    0.297607 0.654437 0.646131 0.256741
H37   H     H_    0.700950 0.239771 0.179032 0.268230
H38   H     H_    0.794429 0.340290 0.119790 0.257431
H39   H     H_    0.831258 0.205683 0.106376 0.262264
H40   H     H_    0.934732 0.307771 0.227985 0.255175
H41   H     H_    0.842300 0.205398 0.285433 0.267246
H42   H     H_    0.705423 0.329720 0.351814 0.239875
H43   H     H_    0.782725 0.433153 0.283749 0.226332
H44   H     H_    0.925630 0.232950 0.418770 0.343970
H45   H     H_    0.201652 0.819379 0.049476 0.257167
H46   H     H_    0.024818 0.568286 0.764696 0.340283
H47   H     H_    0.395220 0.767903 0.037051 0.229234
H48   H     H_    0.331576 0.711139 0.932832 0.226261
H49   H     H_    0.291904 0.541206 0.021403 0.208484
H50   H     H_    0.358320 0.601737 0.121831 0.210449
N1    N     N_R   0.206090 0.519450 0.517820 -0.151538
N2    N     N_R   0.793910 0.480550 0.482180 -0.157044
O1    O     O_R   0.421240 0.658850 0.504760 -0.648509
O2    O     O_3   0.685845 0.787611 0.352741 -0.791082
O3    O     O_3   0.711636 0.012792 0.346176 -0.804714
O4    O     O_3   0.282478 0.985117 0.639380 -0.813820
O5    O     O_3   0.989858 0.282132 0.398132 -0.802123
O6    O     O_3   0.974880 0.577823 0.715370 -0.822445
O7    O     O_R   0.578760 0.341150 0.495240 -0.643481
O8    O     O_R   0.609960 0.646370 0.493320 -0.599637
O9    O     O_R   0.390040 0.353630 0.506680 -0.569557
O10   O     O_R   0.392060 0.507120 0.646890 -0.618396
O11   O     O_R   0.607940 0.492880 0.353110 -0.620966
O12   O     O_R   0.580780 0.494630 0.635450 -0.625937
O13   O     O_R   0.419220 0.505370 0.364550 -0.644199
O14   O     O_3   0.304106 0.209230 0.632837 -0.751354
Zn1   Zn    Zn3+2 0.373990 0.508340 0.507630 0.938135
Zn2   Zn    Zn3+2 0.626010 0.491660 0.492370 0.928965

loop_
_geom_bond_atom_site_label_1
_geom_bond_atom_site_label_2
_ccdc_geom_bond_type
C31   H14   S    
C15   C18   A    
C30   H18   S    
H9    O14   S    
C25   H34   S    
C22   H49   S    
C31   H15   S    
C42   O5    S    
C1    O1    A    
C38   H30   S    
C19   O14   S    
C10   C22   S    
C37   H33   S    
C3    C43   A    
C26   C27   S    
C17   C23   A    
C18   O2    S    
O8    Zn2   S    
C2    C29   S    
C14   C21   A    
C36   C37   S    
C37   C38   S    
C32   H28   S    
C12   O7    A    
N2    Zn2   S    
C5    O12   A    
C41   H37   S    
C6    O13   A    
C40   H40   S    
C9    C13   S    
C43   O6    S    
O9    Zn1   S    
C33   H26   S    
C16   C34   A    
C28   H4    S    
C2    N1    A    
C36   H36   S    
C1    C15   S    
C9    C10   D    
O12   Zn2   S    
C1    O8    A    
C32   C46   S    
C46   N2    A    
C30   H17   S    
C31   H16   S    
C42   C44   A    
C39   H42   S    
C26   H8    S    
C27   H5    S    
C9    C26   S    
C38   H29   S    
C15   C20   A    
C25   H45   S    
O7    Zn2   S    
C24   C25   S    
C35   H24   S    
C32   H27   S    
C33   H25   S    
C17   C19   A    
C21   C34   A    
C41   H38   S    
O10   Zn1   S    
C2    C4    A    
C17   O4    S    
C29   C30   S    
C24   H48   S    
C5    C8    S    
C28   H3    S    
C20   C23   A    
C35   H21   S    
C36   H35   S    
C23   C34   A    
C36   C45   S    
O13   Zn1   S    
C43   C45   A    
C6    C7    S    
O11   Zn2   S    
C29   H19   S    
C40   C41   S    
C12   C14   S    
C6    O11   A    
C22   C24   S    
C25   H23   S    
H10   O2    S    
N1    Zn1   S    
C3    C4    A    
C26   H7    S    
C39   C40   S    
C41   H39   S    
C27   H6    S    
C40   H41   S    
C28   H2    S    
H13   O4    S    
C22   H50   S    
C14   C19   A    
O1    Zn1   S    
C12   O9    A    
C39   C44   S    
C38   H31   S    
H11   O3    S    
C37   H32   S    
C3    C46   A    
C32   C33   S    
C45   N1    A    
C24   H47   S    
C30   C31   S    
C4    C42   A    
C35   H22   S    
C8    C11   T    
C33   C35   S    
H44   O5    S    
C10   C11   S    
H46   O6    S    
C44   N2    A    
C29   H20   S    
C16   O3    S    
C7    C13   T    
C16   C18   A    
C27   C28   S    
C20   H12   S    
C39   H43   S    
C21   H1    S    
C5    O10   A    
