data_mof_unit_28641.cif
_audit_creation_date              2012-12-11T16:50:58-0500
_audit_creation_method            fapswitch 2.2
_symmetry_space_group_name_H-M    P1
_symmetry_Int_Tables_number       1
_space_group_crystal_system       triclinic
_cell_length_a                    6.912002
_cell_length_b                    28.83792
_cell_length_c                    32.165413
_cell_angle_alpha                 100.848246
_cell_angle_beta                  89.779791
_cell_angle_gamma                 90.426808
_cell_volume                      6296.6871402

loop_
_atom_site_label
_atom_site_type_symbol
_atom_type_description
_atom_site_fract_x
_atom_site_fract_y
_atom_site_fract_z
_atom_type_partial_charge
O1    O     O_R   0.494350 0.453170 0.452520 -0.539612
O2    O     O_R   0.820980 0.455850 0.538220 -0.540308
O3    O     O_R   0.994300 0.546830 0.547480 -0.539322
C1    C     C_R   0.651719 0.445829 0.551776 0.707357
O4    O     O_R   0.823860 0.447590 0.452270 -0.542200
O5    O     O_R   0.997200 0.538510 0.460920 -0.538107
C2    C     C_R   0.654655 0.434611 0.436671 0.693069
O6    O     O_R   0.491440 0.461490 0.539080 -0.538500
O7    O     O_3   0.661790 0.529840 0.502940 -0.366834
V1    V     V_3+5 0.935470 0.494460 0.499450 1.404941
O8    O     O_R   0.327090 0.544150 0.461780 -0.540457
C3    C     C_R   0.158738 0.554284 0.448263 0.707622
O9    O     O_R   0.324210 0.552410 0.547730 -0.542327
C4    C     C_R   0.155243 0.565383 0.563331 0.694564
V2    V     V_3+5 0.435840 0.505540 0.500550 1.404891
O10   O     O_3   0.159650 0.470160 0.497060 -0.367576
C5    C     C_R   0.224741 0.875550 0.884821 -0.159810
H1    H     H_    0.356896 0.887339 0.901643 0.122333
C6    C     C_R   0.235731 0.839504 0.849047 -0.141864
H2    H     H_    0.375652 0.824293 0.839753 0.101171
C7    C     C_R   0.068379 0.822853 0.826021 0.118964
C8    C     C_R   0.889336 0.843113 0.840109 -0.136339
H3    H     H_    0.757671 0.831868 0.822897 0.102443
C9    C     C_R   0.878155 0.878962 0.876109 -0.160732
H4    H     H_    0.738106 0.893894 0.885773 0.118739
C10   C     C_R   0.045862 0.895803 0.898864 -0.053044
C11   C     C_R   0.934094 0.750318 0.778094 -0.237910
H5    H     H_    0.810509 0.750935 0.798974 0.119592
C12   C     C_R   0.945898 0.713999 0.742149 0.427459
C13   C     C_R   0.103569 0.712863 0.713764 -0.009174
C14   C     C_R   0.250716 0.747088 0.723458 -0.199112
H6    H     H_    0.373389 0.747103 0.702407 0.143980
C15   C     C_R   0.239765 0.782405 0.759737 -0.148642
H7    H     H_    0.354272 0.808624 0.765475 0.123222
C16   C     C_R   0.080936 0.784702 0.787501 0.028187
C17   C     C_R   0.294270 0.652637 0.663085 -0.175442
H8    H     H_    0.421262 0.661187 0.682734 0.143718
C18   C     C_R   0.307486 0.617297 0.626743 -0.158767
H9    H     H_    0.444666 0.599757 0.619179 0.122098
C19   C     C_R   0.144361 0.604024 0.601113 -0.050930
C20   C     C_R   0.968972 0.627665 0.612271 -0.191470
H10   H     H_    0.840950 0.618771 0.593025 0.127665
C21   C     C_R   0.956646 0.663462 0.648175 -0.090149
H11   H     H_    0.820371 0.681558 0.655200 0.141489
C22   C     C_R   0.118171 0.675917 0.674480 0.104903
C23   C     C_R   0.266484 0.675666 0.295912 0.575656
N1    N     N_R   0.122364 0.677091 0.325741 -0.554429
C24   C     C_R   0.968227 0.707109 0.326209 0.582740
C25   C     C_R   0.953473 0.736341 0.295821 -0.026236
C26   C     C_R   0.101057 0.735398 0.265409 -0.021074
C27   C     C_R   0.259657 0.705085 0.265539 -0.030427
C28   C     C_R   0.795115 0.766573 0.295238 -0.144047
C29   C     C_R   0.784232 0.795597 0.265058 -0.148660
C30   C     C_R   0.931373 0.795144 0.234652 -0.031387
C31   C     C_R   0.089981 0.764833 0.234783 -0.021075
C32   C     C_R   0.237563 0.763890 0.204371 -0.025254
C33   C     C_R   0.395928 0.733660 0.204956 -0.145692
C34   C     C_R   0.406806 0.704635 0.235135 -0.150292
C35   C     C_R   0.924521 0.824553 0.204271 0.577300
N2    N     N_R   0.068628 0.823125 0.174439 -0.554470
C36   C     C_R   0.222792 0.793116 0.173978 0.581032
O11   O     O_2   0.414901 0.645385 0.295107 -0.528168
O12   O     O_2   0.830306 0.709213 0.356290 -0.529858
H12   H     H_    0.678628 0.767848 0.318038 0.169032
H13   H     H_    0.659781 0.818309 0.265605 0.171035
O13   O     O_2   0.776085 0.854829 0.205071 -0.526879
O14   O     O_2   0.360714 0.791012 0.143896 -0.531156
H14   H     H_    0.512415 0.732385 0.182156 0.168248
H15   H     H_    0.531255 0.681922 0.234587 0.170298
C37   C     C_R   0.213934 0.884283 0.138695 -0.088152
H16   H     H_    0.341113 0.885453 0.158431 0.157177
C38   C     C_R   0.205905 0.913601 0.108633 -0.203119
H17   H     H_    0.327973 0.936577 0.105788 0.133942
C39   C     C_R   0.040966 0.913947 0.083176 -0.061123
C40   C     C_R   0.885007 0.883850 0.088272 -0.207725
H18   H     H_    0.756200 0.883087 0.069082 0.137671
C41   C     C_R   0.894846 0.853774 0.117744 -0.086595
H19   H     H_    0.774300 0.830324 0.120459 0.164143
C42   C     C_R   0.059054 0.853799 0.143485 0.354348
C43   C     C_R   0.976917 0.615917 0.361445 -0.089710
H20   H     H_    0.849740 0.614779 0.341713 0.156530
C44   C     C_R   0.984883 0.586564 0.391479 -0.205513
H21   H     H_    0.862763 0.563597 0.394307 0.133366
C45   C     C_R   0.149826 0.586167 0.416925 -0.058842
C46   C     C_R   0.305839 0.616260 0.411854 -0.206590
H22   H     H_    0.434647 0.616988 0.431039 0.139210
C47   C     C_R   0.296061 0.646373 0.382412 -0.085953
H23   H     H_    0.416655 0.669815 0.379714 0.164871
C48   C     C_R   0.131861 0.646391 0.356676 0.354577
C49   C     C_R   0.435169 0.210581 0.825520 0.573038
N3    N     N_R   0.576015 0.177156 0.825821 -0.552871
C50   C     C_R   0.724677 0.172487 0.796775 0.579323
C51   C     C_R   0.737141 0.202227 0.766735 -0.026270
C52   C     C_R   0.591532 0.235833 0.765669 -0.021698
C53   C     C_R   0.438275 0.239869 0.795029 -0.026706
C54   C     C_R   0.890868 0.198881 0.737560 -0.144370
C55   C     C_R   0.898730 0.228191 0.707559 -0.145304
C56   C     C_R   0.752853 0.261537 0.705896 -0.029476
C57   C     C_R   0.599158 0.265461 0.735152 -0.021789
C58   C     C_R   0.453059 0.298928 0.733961 -0.024740
C59   C     C_R   0.299504 0.302317 0.763179 -0.147626
C60   C     C_R   0.292336 0.273207 0.793356 -0.147815
C61   C     C_R   0.756399 0.290940 0.675510 0.578107
N4    N     N_R   0.614440 0.324000 0.674937 -0.553677
C62   C     C_R   0.464842 0.328440 0.703716 0.576101
O15   O     O_2   0.293449 0.216050 0.854966 -0.532172
O16   O     O_2   0.858902 0.138674 0.796374 -0.532140
H24   H     H_    0.005915 0.173642 0.737824 0.168846
H25   H     H_    0.019611 0.224602 0.685687 0.170138
O17   O     O_2   0.899651 0.285970 0.646428 -0.528073
O18   O     O_2   0.328988 0.361768 0.703597 -0.534584
H26   H     H_    0.184215 0.327478 0.762850 0.167119
H27   H     H_    0.171703 0.276867 0.815296 0.168828
C63   C     C_R   0.790501 0.381533 0.639929 -0.091143
H28   H     H_    0.913349 0.380142 0.660441 0.160530
C64   C     C_R   0.800450 0.410551 0.609640 -0.206784
H29   H     H_    0.931513 0.430762 0.607367 0.132819
C65   C     C_R   0.641664 0.414235 0.583258 -0.056554
C66   C     C_R   0.473385 0.387810 0.587580 -0.209661
H30   H     H_    0.348956 0.389738 0.567624 0.136917
C67   C     C_R   0.465235 0.357887 0.617199 -0.087436
H31   H     H_    0.335500 0.337155 0.619278 0.158047
C68   C     C_R   0.623339 0.354581 0.643902 0.356394
C69   C     C_R   0.396960 0.120834 0.861821 -0.089459
H32   H     H_    0.271743 0.123434 0.842283 0.162582
C70   C     C_R   0.387137 0.091597 0.891937 -0.205747
H33   H     H_    0.253635 0.072654 0.895130 0.133926
C71   C     C_R   0.548954 0.086012 0.916884 -0.049878
C72   C     C_R   0.720185 0.110779 0.911259 -0.222465
H34   H     H_    0.847744 0.107108 0.929758 0.137653
C73   C     C_R   0.727882 0.141276 0.882146 -0.095186
C74   C     C_R   0.566867 0.146404 0.856767 0.358307
C75   C     C_R   0.723796 0.129488 0.112636 0.432810
C76   C     C_R   0.731852 0.163709 0.150151 -0.228816
H35   H     H_    0.868792 0.180866 0.159680 0.106586
C77   C     C_R   0.565729 0.176298 0.174851 0.042644
C78   C     C_R   0.390300 0.153250 0.161901 -0.143472
H36   H     H_    0.259939 0.161706 0.180483 0.120353
C79   C     C_R   0.382182 0.117762 0.125678 -0.241854
H37   H     H_    0.245875 0.099680 0.117589 0.184498
C80   C     C_R   0.548126 0.104879 0.100815 -0.147303
C81   C     C_R   0.428753 0.246822 0.224164 -0.151763
H38   H     H_    0.304827 0.246260 0.203574 0.108701
C82   C     C_R   0.441620 0.282293 0.260375 -0.150487
H39   H     H_    0.327117 0.308105 0.266548 0.109303
C83   C     C_R   0.602213 0.285089 0.287593 0.082514
C84   C     C_R   0.749083 0.251243 0.277590 -0.151937
H40   H     H_    0.873002 0.251578 0.298125 0.112928
C85   C     C_R   0.736577 0.215929 0.241294 -0.146820
H41   H     H_    0.851478 0.190229 0.234870 0.113734
C86   C     C_R   0.576576 0.213328 0.214021 0.105987
C87   C     C_R   0.796468 0.343680 0.339738 -0.136065
H42   H     H_    0.927409 0.332732 0.322153 0.098855
C88   C     C_R   0.809427 0.379461 0.375746 -0.157501
H43   H     H_    0.950004 0.394672 0.385063 0.117741
C89   C     C_R   0.642657 0.395911 0.398927 -0.054701
C90   C     C_R   0.462957 0.375341 0.385367 -0.156145
H44   H     H_    0.331508 0.386833 0.402560 0.122698
C91   C     C_R   0.450206 0.339351 0.349607 -0.138815
H45   H     H_    0.309719 0.323877 0.340688 0.101330
C92   C     C_R   0.616567 0.323113 0.326123 0.095835
O19   O     O_R   0.699170 0.038480 0.960880 -0.544913
O20   O     O_R   0.366800 0.052460 0.047690 -0.542279
O21   O     O_R   0.193520 0.961530 0.039110 -0.538406
C93   C     C_R   0.536309 0.065796 0.063113 0.719664
O22   O     O_R   0.369630 0.044100 0.961740 -0.542827
O23   O     O_R   0.196370 0.953120 0.952550 -0.540889
C94   C     C_R   0.538896 0.054198 0.948219 0.687878
O24   O     O_R   0.696320 0.046890 0.047450 -0.508130
O25   O     O_3   0.528890 0.970170 0.997080 -0.371714
V3    V     V_3+5 0.255190 0.005530 0.000540 1.421335
O26   O     O_R   0.866460 0.947530 0.952310 -0.544079
C95   C     C_R   0.035397 0.934542 0.936671 0.687522
O27   O     O_R   0.863630 0.955880 0.038270 -0.540520
C96   C     C_R   0.032002 0.945781 0.051799 0.715912
V4    V     V_3+5 0.754830 0.994440 0.999470 1.428693
O28   O     O_3   0.031000 0.029830 0.002920 -0.358359
H46   H     H_    0.859960 0.160900 0.879353 0.157519
O29   O     O_3   0.891000 0.117427 0.089269 -0.571870
C97   C     C_3   0.952977 0.155005 0.069591 0.072431
H47   H     H_    0.107479 0.148836 0.060741 0.147064
H48   H     H_    0.947583 0.190095 0.091075 0.103827
C98   C     C_3   0.837298 0.155833 0.029151 -0.328851
H49   H     H_    0.845500 0.120689 0.008107 0.212594
H50   H     H_    0.683004 0.163569 0.037261 0.171948
C99   C     C_3   0.916142 0.193204 0.005591 -0.813669
H51   H     H_    0.912214 0.228643 0.026329 0.236685
H52   H     H_    0.825956 0.194023 0.977263 0.240188
H53   H     H_    0.067369 0.184851 0.995136 0.232852
O30   O     O_3   0.796716 0.681331 0.733464 -0.590395
C100  C     C_3   0.806280 0.648251 0.760781 0.050577
H54   H     H_    0.656927 0.634962 0.764272 0.149743
H55   H     H_    0.856733 0.663876 0.793354 0.111600
C101  C     C_3   0.934009 0.606433 0.741442 -0.312564
H56   H     H_    0.884236 0.591764 0.708752 0.210804
H57   H     H_    0.086261 0.618608 0.739874 0.192100
C102  C     C_3   0.926640 0.567549 0.767675 -0.811535
H58   H     H_    0.978213 0.581296 0.800370 0.231877
H59   H     H_    0.021433 0.538002 0.752979 0.239354
H60   H     H_    0.776511 0.553855 0.768939 0.234410

loop_
_geom_bond_atom_site_label_1
_geom_bond_atom_site_label_2
_ccdc_geom_bond_type
C101  H57   S    
C31   C32   A    
N2    C42   S    
C70   H33   S    
C11   C12   A    
C20   C21   A    
C20   H10   S    
C13   C22   S    
C84   H40   S    
C1    O6    A    
C71   C72   A    
C55   C56   A    
C49   N3    A    
C49   C53   A    
N4    C68   S    
O25   V4    S    
C46   H22   S    
C32   C33   A    
C59   H26   S    
C78   C79   A    
C69   C74   A    
C58   C62   A    
C59   C60   A    
C23   O11   S    
C61   O17   S    
C5    C10   A    
C17   H8    S    
C6    C7    A    
C9    C10   A    
C83   C84   A    
C85   C86   A    
C35   O13   S    
O5    C3    A    
C18   H9    S    
C101  C102  S    
O19   V4    S    
O25   V3    S    
C56   C61   A    
C64   H29   S    
C3    C45   S    
O21   C96   A    
C23   N1    A    
C43   C48   A    
C102  H59   S    
C65   C66   A    
C50   C51   A    
C40   H18   S    
C15   C16   A    
O27   C96   A    
O8    V2    S    
C90   H44   S    
C2    C89   S    
N1    C24   A    
C64   C65   A    
C14   C15   A    
C37   H16   S    
O1    V2    S    
O20   V3    S    
O7    V1    S    
C88   C89   A    
C87   C92   A    
C53   C60   A    
O23   C95   A    
C71   C94   S    
C41   C42   A    
C101  H56   S    
C62   O18   S    
O22   V3    S    
C90   C91   A    
O1    C2    A    
O9    C4    A    
O22   C94   A    
N1    C48   S    
C1    C65   S    
C52   C53   A    
C35   N2    A    
V3    O28   S    
C8    H3    S    
N4    C62   A    
C73   H46   S    
C97   H48   S    
C26   C27   A    
C30   C35   A    
C66   C67   A    
C93   O24   A    
C83   C92   S    
C39   C40   A    
C46   C47   A    
C100  H54   S    
C45   C46   A    
C49   O15   S    
C82   C83   A    
C28   H12   S    
C98   C99   S    
N3    C50   A    
O4    C2    A    
C43   H20   S    
C24   O12   S    
O23   V3    S    
N3    C74   S    
C10   C95   S    
C11   C16   A    
C41   H19   S    
C23   C27   A    
C44   H21   S    
O29   C97   S    
N2    C36   A    
C89   C90   A    
C81   C86   A    
C102  H60   S    
O2    C1    A    
C21   H11   S    
C100  H55   S    
C98   H49   S    
C12   C13   A    
C55   H25   S    
C36   O14   S    
C50   O16   S    
C63   C64   A    
C91   H45   S    
C79   H37   S    
C25   C28   A    
C54   C55   A    
C91   C92   A    
C5    H1    S    
C88   H43   S    
C17   C22   A    
C32   C36   A    
C27   C34   A    
C9    H4    S    
C40   C41   A    
C67   H31   S    
O3    C4    A    
C43   C44   A    
O19   C94   A    
C63   C68   A    
C38   C39   A    
V4    O28   S    
C87   C88   A    
C25   C26   A    
O6    V2    S    
C44   C45   A    
O9    V2    S    
C75   C76   A    
C8    C9    A    
O30   C100  S    
C33   H14   S    
C99   H52   S    
C73   C74   A    
O2    V1    S    
C11   H5    S    
C77   C86   S    
C29   H13   S    
C28   C29   A    
C69   C70   A    
C72   H34   S    
C78   H36   S    
C30   C31   A    
C19   C20   A    
C70   C71   A    
C84   C85   A    
C37   C42   A    
C81   H38   S    
C75   C80   A    
C14   H6    S    
C75   O29   S    
C38   H17   S    
O21   V3    S    
O5    V1    S    
C76   C77   A    
C66   H30   S    
C97   C98   S    
C34   H15   S    
C29   C30   A    
C76   H35   S    
C7    C16   S    
C51   C54   A    
C51   C52   A    
C80   C93   S    
C26   C31   A    
C57   C58   A    
C82   H39   S    
C6    H2    S    
C98   H50   S    
O7    V2    S    
C100  C101  S    
O4    V1    S    
C21   C22   A    
C60   H27   S    
V1    O10   S    
C85   H41   S    
C18   C19   A    
C79   C80   A    
C33   C34   A    
C13   C14   A    
C52   C57   A    
C99   H53   S    
C24   C25   A    
V2    O10   S    
C17   C18   A    
C58   C59   A    
C5    C6    A    
O24   V4    S    
C15   H7    S    
C81   C82   A    
C63   H28   S    
C54   H24   S    
C102  H58   S    
O27   V4    S    
C67   C68   A    
C4    C19   S    
O26   C95   A    
C39   C96   S    
C87   H42   S    
C47   H23   S    
C56   C57   A    
C61   N4    A    
O3    V1    S    
C47   C48   A    
C12   O30   S    
C77   C78   A    
O20   C93   A    
C37   C38   A    
C99   H51   S    
C7    C8    A    
C97   H47   S    
O26   V4    S    
O8    C3    A    
C69   H32   S    
C72   C73   A    
