data_mof_unit_50278.cif
_audit_creation_date              2012-12-10T20:43:41-0500
_audit_creation_method            fapswitch 2.2
_symmetry_space_group_name_H-M    P1
_symmetry_Int_Tables_number       1
_space_group_crystal_system       triclinic
_cell_length_a                    18.681344
_cell_length_b                    18.694456
_cell_length_c                    18.724924
_cell_angle_alpha                 109.400837
_cell_angle_beta                  109.377293
_cell_angle_gamma                 109.315059
_cell_volume                      5053.87826591

loop_
_atom_site_label
_atom_site_type_symbol
_atom_type_description
_atom_site_fract_x
_atom_site_fract_y
_atom_site_fract_z
_atom_type_partial_charge
C1    C     C_R   0.381521 0.501868 0.380087 0.863503
C2    C     C_R   0.308380 0.455135 0.018191 -0.118382
C3    C     C_R   0.120109 0.118872 0.498717 0.872226
C4    C     C_R   0.002142 0.380139 0.881583 0.869107
C5    C     C_R   0.119935 0.498260 0.118633 0.866344
C6    C     C_R   0.998436 0.620098 0.118550 0.864749
C7    C     C_R   0.879944 0.498167 0.877990 0.863654
C8    C     C_R   0.091909 0.763019 0.546872 -0.156306
C9    C     C_R   0.086377 0.775898 0.476229 -0.088361
C10   C     C_R   0.006873 0.726985 0.397301 0.112954
C11   C     C_R   0.934496 0.661776 0.388620 -0.194205
C12   C     C_R   0.940119 0.649322 0.459492 -0.114857
C13   C     C_R   0.337382 0.535560 0.020746 -0.105222
C14   C     C_R   0.780813 0.730165 0.776925 -0.152154
C15   C     C_R   0.018667 0.700181 0.538701 -0.106761
C16   C     C_R   0.997675 0.675665 0.254032 -0.247938
C17   C     C_R   0.996698 0.685916 0.183284 -0.080700
C18   C     C_R   0.997615 0.759601 0.177754 -0.007548
C19   C     C_R   0.996499 0.820765 0.243306 -0.265934
C20   C     C_R   0.998785 0.811240 0.314735 -0.094225
C21   C     C_R   0.001296 0.739127 0.321744 -0.015136
C22   C     C_R   0.067688 0.854090 0.125469 -0.146388
C23   C     C_R   0.072235 0.869170 0.058388 -0.124838
C24   C     C_R   0.077904 0.253927 0.755432 -0.250626
C25   C     C_R   0.010556 0.805886 0.971485 -0.102831
C26   C     C_R   0.825009 0.819044 0.577019 -0.260921
C27   C     C_R   0.997119 0.183721 0.685891 -0.077071
C28   C     C_R   0.918121 0.178761 0.679646 -0.003504
C29   C     C_R   0.922446 0.244281 0.746260 -0.279101
C30   C     C_R   0.003212 0.314848 0.815515 -0.089855
C31   C     C_R   0.082166 0.321400 0.819755 -0.015400
C32   C     C_R   0.771688 0.126790 0.557814 -0.152835
C33   C     C_R   0.787655 0.807240 0.831665 0.228572
C34   C     C_R   0.689556 0.059742 0.487144 -0.140845
C35   C     C_R   0.665879 0.972726 0.463205 -0.114825
C36   C     C_R   0.724011 0.952791 0.510405 -0.117934
C37   C     C_R   0.805706 0.019573 0.581923 -0.118739
C38   C     C_R   0.813857 0.809954 0.496398 -0.077422
C39   C     C_R   0.830786 0.107156 0.605313 0.130636
C40   C     C_R   0.738407 0.739932 0.417660 -0.006000
C41   C     C_R   0.678007 0.676822 0.422042 -0.266034
C42   C     C_R   0.689392 0.685837 0.502654 -0.083542
C43   C     C_R   0.761928 0.758734 0.581396 0.000864
C44   C     C_R   0.943803 0.727911 0.951673 -0.089622
C45   C     C_R   0.640388 0.722598 0.276457 -0.161012
C46   C     C_R   0.621267 0.712535 0.193753 -0.144093
C47   C     C_R   0.680348 0.710023 0.164091 -0.110613
C48   C     C_R   0.621889 0.620070 0.501725 0.859549
C49   C     C_R   0.758807 0.717970 0.217268 -0.112315
C50   C     C_R   0.778322 0.728601 0.300201 -0.109744
C51   C     C_R   0.719383 0.730983 0.330574 0.133106
C52   C     C_R   0.435786 0.808564 0.514877 -0.146857
C53   C     C_R   0.369980 0.726776 0.442830 -0.156674
C54   C     C_R   0.391499 0.669301 0.395992 0.132723
C55   C     C_R   0.938016 0.713085 0.018504 -0.080792
C56   C     C_R   0.479737 0.695681 0.421530 -0.115672
C57   C     C_R   0.545284 0.776862 0.494598 -0.116801
C58   C     C_R   0.523449 0.833412 0.541022 -0.110774
C59   C     C_R   0.256008 0.577623 0.253461 -0.252717
C60   C     C_R   0.618389 0.498133 0.619996 0.862519
C61   C     C_R   0.185712 0.496857 0.183809 -0.068153
C62   C     C_R   0.178366 0.417867 0.180002 -0.000137
C63   C     C_R   0.246044 0.422439 0.244694 -0.265741
C64   C     C_R   0.316464 0.503154 0.314077 -0.078271
C65   C     C_R   0.321154 0.582048 0.320530 -0.007627
C66   C     C_R   0.000935 0.775468 0.106015 0.132864
C67   C     C_R   0.059054 0.271901 0.133664 -0.161585
C68   C     C_R   0.989656 0.188046 0.069099 -0.126664
C69   C     C_R   0.963199 0.161305 0.981231 -0.117720
C70   C     C_R   0.005952 0.218461 0.957830 -0.125095
C71   C     C_R   0.075099 0.302465 0.022256 -0.105780
C72   C     C_R   0.378226 0.379976 0.498473 0.867776
C73   C     C_R   0.102374 0.330079 0.110746 0.128017
C74   C     C_R   0.208608 0.518940 0.569773 -0.143764
C75   C     C_R   0.222799 0.450126 0.570162 -0.147784
C76   C     C_R   0.225851 0.395494 0.499877 0.138959
C77   C     C_R   0.283782 0.545804 0.956888 -0.154679
C78   C     C_R   0.213431 0.409976 0.428819 -0.129199
C79   C     C_R   0.198752 0.478589 0.428490 -0.118928
C80   C     C_R   0.196689 0.533216 0.499031 -0.106382
C81   C     C_R   0.176830 0.255723 0.499653 -0.252944
C82   C     C_R   0.186001 0.184001 0.497456 -0.074614
C83   C     C_R   0.257892 0.176484 0.495409 -0.005581
C84   C     C_R   0.787610 0.868954 0.805304 -0.164923
C85   C     C_R   0.319750 0.241898 0.494818 -0.262389
C86   C     C_R   0.310655 0.313668 0.496973 -0.081106
C87   C     C_R   0.239022 0.321510 0.499637 -0.005737
C88   C     C_R   0.200560 0.476029 0.891176 -0.088896
C89   C     C_R   0.340923 0.112730 0.560479 -0.142927
C90   C     C_R   0.353290 0.041895 0.556058 -0.139232
C91   C     C_R   0.294942 0.959106 0.482457 -0.128915
C92   C     C_R   0.224098 0.947007 0.413222 -0.132985
C93   C     C_R   0.210847 0.017454 0.417769 -0.131943
C94   C     C_R   0.269255 0.100810 0.491561 0.136023
C95   C     C_R   0.548321 0.564550 0.858770 -0.126650
C96   C     C_R   0.779891 0.853236 0.724002 -0.203744
C97   C     C_R   0.617795 0.565381 0.845290 -0.136726
C98   C     C_R   0.602754 0.496105 0.771646 0.127545
C99   C     C_R   0.169755 0.395935 0.890007 0.112295
C100  C     C_R   0.517542 0.425420 0.712450 -0.127405
C101  C     C_R   0.448332 0.424541 0.726580 -0.122078
C102  C     C_R   0.463629 0.494211 0.799407 -0.117491
C103  C     C_R   0.742589 0.496311 0.820524 -0.258860
C104  C     C_R   0.813467 0.496568 0.810524 -0.086815
C105  C     C_R   0.820335 0.497368 0.738146 -0.009612
C106  C     C_R   0.754118 0.496588 0.675667 -0.262519
C107  C     C_R   0.683164 0.496164 0.685598 -0.082160
C108  C     C_R   0.772421 0.775568 0.668414 0.136789
C109  C     C_R   0.676903 0.496633 0.758625 -0.002243
C110  C     C_R   0.225355 0.385142 0.952347 -0.196879
C111  C     C_R   0.949474 0.568079 0.722961 -0.151010
C112  C     C_R   0.017915 0.567263 0.708207 -0.140880
C113  C     C_R   0.031005 0.495532 0.694482 -0.126871
C114  C     C_R   0.975683 0.424519 0.695501 -0.131713
C115  C     C_R   0.907565 0.425349 0.710938 -0.123015
C116  C     C_R   0.894147 0.497275 0.724888 0.139284
C117  C     C_R   0.998478 0.877913 0.380200 0.869395
C118  C     C_R   0.879869 0.877722 0.497819 0.860134
C119  C     C_R   0.998314 0.118629 0.619894 0.865862
C120  C     C_R   0.774364 0.714719 0.696082 -0.155573
H1    H     H_    0.665378 0.701999 0.099976 0.130454
H2    H     H_    0.242902 0.362569 0.242199 0.154667
H3    H     H_    0.792746 0.928670 0.847388 0.146032
H4    H     H_    0.078919 0.291577 0.201519 0.126652
H5    H     H_    0.956575 0.143699 0.087223 0.146503
H6    H     H_    0.909679 0.096316 0.931312 0.126415
H7    H     H_    0.985582 0.197569 0.889771 0.144011
H8    H     H_    0.107321 0.346135 0.003422 0.105351
H9    H     H_    0.185441 0.586337 0.498679 0.124638
H10   H     H_    0.206572 0.561025 0.624193 0.120470
H11   H     H_    0.231773 0.439592 0.625269 0.117520
H12   H     H_    0.804526 0.715996 0.194253 0.146613
H13   H     H_    0.214344 0.367704 0.373573 0.099989
H14   H     H_    0.188549 0.489261 0.373435 0.140446
H15   H     H_    0.778572 0.901035 0.703839 0.131030
H16   H     H_    0.121021 0.260393 0.501516 0.154542
H17   H     H_    0.375673 0.237225 0.493322 0.156130
H18   H     H_    0.386939 0.176762 0.617554 0.122783
H19   H     H_    0.408382 0.051278 0.609475 0.125852
H20   H     H_    0.304837 0.904411 0.478866 0.116619
H21   H     H_    0.179843 0.883062 0.355911 0.143913
H22   H     H_    0.155976 0.007442 0.363558 0.104774
H23   H     H_    0.839406 0.735532 0.341017 0.103651
H24   H     H_    0.409934 0.493455 0.810079 0.125250
H25   H     H_    0.560205 0.618271 0.915423 0.132154
H26   H     H_    0.683220 0.620004 0.891965 0.150211
H27   H     H_    0.769786 0.655052 0.654619 0.107936
H28   H     H_    0.505002 0.370854 0.656053 0.102502
H29   H     H_    0.382863 0.369728 0.681386 0.140646
H30   H     H_    0.738888 0.496580 0.877239 0.154209
H31   H     H_    0.758224 0.497139 0.619359 0.154347
H32   H     H_    0.939675 0.623843 0.733130 0.116873
H33   H     H_    0.060573 0.622071 0.707044 0.118358
H34   H     H_    0.574469 0.896345 0.597339 0.128726
H35   H     H_    0.083781 0.494805 0.682708 0.117012
H36   H     H_    0.985455 0.368726 0.683918 0.143027
H37   H     H_    0.864740 0.369766 0.711052 0.101793
H38   H     H_    0.023000 0.690311 0.593442 0.117063
H39   H     H_    0.779491 0.681879 0.796625 0.147457
H40   H     H_    0.153053 0.801569 0.607859 0.118295
H41   H     H_    0.143816 0.824106 0.483042 0.131342
H42   H     H_    0.873720 0.620868 0.327124 0.134014
H43   H     H_    0.883731 0.599910 0.452854 0.135084
H44   H     H_    0.998908 0.619405 0.257979 0.157708
H45   H     H_    0.418818 0.852365 0.550848 0.121563
H46   H     H_    0.995662 0.877225 0.239600 0.166422
H47   H     H_    0.116727 0.903251 0.192529 0.121970
H48   H     H_    0.123954 0.929668 0.073790 0.130220
H49   H     H_    0.014417 0.817216 0.919486 0.125509
H50   H     H_    0.896789 0.678871 0.884450 0.128239
H51   H     H_    0.881906 0.875096 0.636992 0.155010
H52   H     H_    0.885129 0.652867 0.002156 0.092373
H53   H     H_    0.401644 0.589656 0.071724 0.116259
H54   H     H_    0.306782 0.607748 0.958191 0.118979
H55   H     H_    0.159971 0.484473 0.841541 0.130779
H56   H     H_    0.302313 0.707839 0.424117 0.118837
H57   H     H_    0.204093 0.322764 0.950316 0.135517
H58   H     H_    0.350359 0.446924 0.067016 0.135040
H59   H     H_    0.137987 0.257464 0.758055 0.157777
H60   H     H_    0.862431 0.240985 0.743561 0.156729
H61   H     H_    0.789592 0.193943 0.575004 0.125283
H62   H     H_    0.644502 0.075246 0.450612 0.132607
H63   H     H_    0.620263 0.621472 0.362257 0.153073
H64   H     H_    0.602588 0.920735 0.408062 0.129735
H65   H     H_    0.705968 0.885518 0.491057 0.130827
H66   H     H_    0.849619 0.003105 0.618555 0.093965
H67   H     H_    0.497624 0.653004 0.385505 0.093470
H68   H     H_    0.593958 0.724454 0.298587 0.119924
H69   H     H_    0.560655 0.706702 0.152653 0.121287
H70   H     H_    0.613049 0.795629 0.515824 0.130812
H71   H     H_    0.259091 0.637619 0.256403 0.153642
I1    I     I_    0.797347 0.830090 0.953538 -0.474084
O1    O     O_R   0.408360 0.551710 0.460090 -0.603459
O2    O     O_R   0.948290 0.356630 0.908390 -0.621839
O3    O     O_R   0.143340 0.551690 0.091580 -0.617705
O4    O     O_R   0.408400 0.448280 0.356670 -0.628236
O5    O     O_R   0.039900 0.448270 0.091610 -0.615334
O6    O     O_R   0.051710 0.643320 0.091560 -0.615795
O7    O     O_R   0.948270 0.539900 0.091590 -0.625034
O8    O     O_R   0.960100 0.551680 0.908340 -0.611552
O9    O     O_R   0.856660 0.448270 0.908370 -0.625284
O10   O     O_R   0.591600 0.643340 0.551710 -0.605448
O11   O     O_R   0.591630 0.539900 0.448290 -0.626856
O12   O     O_R   0.948280 0.908380 0.356650 -0.618356
O13   O     O_R   0.591600 0.551720 0.643330 -0.603181
O14   O     O_R   0.591640 0.448290 0.539910 -0.627036
O15   O     O_R   0.408370 0.460100 0.551710 -0.603885
O16   O     O_R   0.408400 0.356660 0.448290 -0.627847
O17   O     O_R   0.051730 0.908360 0.460060 -0.616042
O18   O     O_R   0.960110 0.908350 0.551690 -0.619302
O19   O     O_R   0.856660 0.908370 0.448270 -0.609085
O20   O     O_R   0.051720 0.091580 0.643310 -0.629039
O21   O     O_R   0.948270 0.091600 0.539890 -0.609966
O22   O     O_R   0.143340 0.091590 0.551680 -0.615331
O23   O     O_R   0.039890 0.091610 0.448270 -0.622314
O24   O     O_R   0.051730 0.460050 0.908360 -0.616700
Zn1   Zn    Zn3+2 0.499980 0.569060 0.569060 1.005310
Zn2   Zn    Zn3+2 0.500020 0.430940 0.430940 0.942338
Zn3   Zn    Zn3+2 0.069070 0.999960 0.569030 0.956159
Zn4   Zn    Zn3+2 0.930930 0.999990 0.430930 0.982911
Zn5   Zn    Zn3+2 0.069070 0.569030 0.999960 0.966354
Zn6   Zn    Zn3+2 0.930930 0.430930 0.000000 0.957351

loop_
_geom_bond_atom_site_label_1
_geom_bond_atom_site_label_2
_ccdc_geom_bond_type
C70   H7    S    
C8    C9    A    
C101  C102  A    
C4    O24   A    
C41   C42   A    
C108  C120  A    
C105  C116  S    
C59   H71   S    
C35   C36   A    
C95   H25   S    
C24   C27   A    
C111  H32   S    
C55   C66   A    
C14   C33   A    
C89   H18   S    
C97   C98   A    
C57   C58   A    
C72   O16   A    
C54   C65   S    
C85   C86   A    
O14   Zn2   S    
C84   H3    S    
O1    Zn1   S    
O19   Zn4   S    
C48   O11   A    
O13   Zn1   S    
C119  O20   A    
C16   C21   A    
C88   H55   S    
C115  H37   S    
C33   I1    S    
O8    Zn5   S    
O10   Zn1   S    
C28   C29   A    
C76   C78   A    
C18   C19   A    
C41   H63   S    
O22   Zn3   S    
C84   C96   A    
C6    O7    A    
C60   O13   A    
C47   H1    S    
C106  C107  A    
C45   C51   A    
C3    O23   A    
C115  C116  A    
C48   O10   A    
C89   C94   A    
C56   C57   A    
C34   C35   A    
C97   H26   S    
C32   C39   A    
C7    O8    A    
C79   H14   S    
C2    C13   A    
O24   Zn5   S    
C22   C66   A    
C58   H34   S    
C103  H30   S    
C90   H19   S    
C62   C63   A    
C111  C112  A    
C77   C88   A    
C16   C17   A    
C29   H60   S    
C56   H67   S    
C62   C73   S    
C70   C71   A    
C67   C73   A    
C19   H46   S    
C31   C99   S    
C72   O15   A    
C117  O12   A    
C9    C10   A    
C95   C102  A    
C5    O3    A    
C96   C108  A    
C98   C109  S    
C74   C80   A    
C67   H4    S    
C107  C109  A    
C61   C62   A    
C102  H24   S    
O9    Zn6   S    
C24   H59   S    
C25   C44   A    
C114  H36   S    
C104  C105  A    
C78   H13   S    
O21   Zn4   S    
C75   H11   S    
C26   C43   A    
C81   C82   A    
C96   H15   S    
C13   C77   A    
C22   C23   A    
C10   C21   S    
O16   Zn2   S    
C49   H12   S    
C54   C56   A    
C59   C61   A    
O15   Zn1   S    
C74   C75   A    
C67   C68   A    
O17   Zn3   S    
C32   H61   S    
C1    O4    A    
C15   H38   S    
C47   C49   A    
O5    Zn6   S    
C91   C92   A    
C6    O6    A    
C86   C87   A    
C68   C69   A    
C5    O5    A    
C110  H57   S    
C50   C51   A    
C35   H64   S    
C53   C54   A    
C83   C94   S    
C11   H42   S    
C16   H44   S    
O18   Zn3   S    
C79   C80   A    
C118  O19   A    
C3    O22   A    
C32   C34   A    
C13   H53   S    
C75   C76   A    
C29   C30   A    
C52   H45   S    
C23   H48   S    
C118  O18   A    
O4    Zn2   S    
C37   H66   S    
C12   C15   A    
O6    Zn5   S    
C3    C82   S    
C17   C18   A    
C5    C61   S    
C93   C94   A    
C42   C48   S    
C9    H41   S    
C92   H21   S    
C76   C87   S    
C81   C87   A    
C60   C107  S    
C52   C58   A    
C22   H47   S    
C40   C41   A    
C83   C85   A    
O12   Zn4   S    
C26   H51   S    
C49   C50   A    
C8    C15   A    
C98   C100  A    
C112  H33   S    
C74   H10   S    
C71   H8    S    
C42   C43   A    
C4    O2    A    
C46   H69   S    
C8    H40   S    
C1    C64   S    
C85   H17   S    
C55   H52   S    
C103  C104  A    
C63   H2    S    
C52   C53   A    
C81   H16   S    
C71   C73   A    
C113  C114  A    
C25   H49   S    
C6    C17   S    
C46   C47   A    
C36   C37   A    
C106  H31   S    
O11   Zn2   S    
C78   C79   A    
C26   C38   A    
C63   C64   A    
C69   H6    S    
C72   C86   S    
C11   C12   A    
C95   C97   A    
C45   H68   S    
C114  C115  A    
C50   H23   S    
O20   Zn3   S    
C27   C119  S    
C18   C66   S    
C40   C51   S    
C105  C106  A    
C19   C20   A    
C14   C120  A    
C28   C39   S    
O2    Zn6   S    
C14   H39   S    
C103  C109  A    
C111  C116  A    
C64   C65   A    
C119  O21   A    
C117  O17   A    
C24   C31   A    
O3    Zn5   S    
C57   H70   S    
C7    O9    A    
O23   Zn4   S    
C59   C65   A    
C12   H43   S    
C38   C40   A    
C99   C110  A    
C44   C55   A    
C60   O14   A    
C90   C91   A    
C30   C31   A    
C100  H28   S    
C7    C104  S    
C101  H29   S    
C92   C93   A    
C34   H62   S    
C112  C113  A    
C43   C108  S    
C23   C25   A    
C77   H54   S    
C69   C70   A    
C80   H9    S    
C33   C84   A    
C44   H50   S    
C88   C99   A    
C10   C11   A    
O7    Zn6   S    
C91   H20   S    
C38   C118  S    
C45   C46   A    
C20   C21   A    
C120  H27   S    
C37   C39   A    
C82   C83   A    
C27   C28   A    
C1    O1    A    
C36   H65   S    
C100  C101  A    
C113  H35   S    
C2    H58   S    
C89   C90   A    
C20   C117  S    
C68   H5    S    
C4    C30   S    
C93   H22   S    
C53   H56   S    
C2    C110  A    
