data_mof_unit_24288.cif
_audit_creation_date              2012-12-10T18:04:52-0500
_audit_creation_method            fapswitch 2.2
_symmetry_space_group_name_H-M    P1
_symmetry_Int_Tables_number       1
_space_group_crystal_system       triclinic
_cell_length_a                    10.783472
_cell_length_b                    9.733923
_cell_length_c                    17.677263
_cell_angle_alpha                 89.64399
_cell_angle_beta                  94.278737
_cell_angle_gamma                 91.736471
_cell_volume                      1849.46675238

loop_
_atom_site_label
_atom_site_type_symbol
_atom_type_description
_atom_site_fract_x
_atom_site_fract_y
_atom_site_fract_z
_atom_type_partial_charge
C1    C     C_R   0.262633 0.498737 0.498753 0.757730
C2    C     C_R   0.737320 0.501402 0.500472 0.751805
C3    C     C_1   0.500439 0.551062 0.965393 0.118640
C4    C     C_1   0.500699 0.553817 0.033320 0.124617
C5    C     C_R   0.065353 0.393507 0.535455 -0.200008
C6    C     C_R   0.934670 0.608079 0.464323 -0.193318
C7    C     C_R   0.937250 0.394848 0.536156 -0.183551
C8    C     C_R   0.062868 0.606099 0.463107 -0.176840
C9    C     C_R   0.508149 0.499593 0.355828 0.790364
C10   C     C_R   0.501621 0.500246 0.643907 0.799566
C11   C     C_R   0.871562 0.502696 0.500968 0.001656
C12   C     C_R   0.128417 0.498127 0.498353 -0.002281
C13   C     C_R   0.614944 0.525962 0.851771 0.162637
C14   C     C_R   0.452833 0.421843 0.144932 0.140640
C15   C     C_R   0.574922 0.635471 0.160611 0.142594
C16   C     C_R   0.387841 0.528344 0.840284 0.145080
C17   C     C_R   0.616987 0.518426 0.772141 0.048813
C18   C     C_R   0.474369 0.392982 0.222970 0.076998
C19   C     C_R   0.591794 0.611430 0.239632 0.080872
C20   C     C_R   0.387437 0.506149 0.761470 0.061074
C21   C     C_R   0.502321 0.503816 0.727142 -0.137449
C22   C     C_R   0.525744 0.499646 0.272389 -0.154949
C23   C     C_R   0.419494 0.071995 0.450256 0.188635
C24   C     C_R   0.579509 0.928813 0.548507 0.181714
C25   C     C_R   0.563966 0.072695 0.556687 0.219770
C26   C     C_R   0.422564 0.923771 0.448319 0.221583
C27   C     C_R   0.501148 0.537512 0.884629 -0.054292
C28   C     C_R   0.503406 0.542056 0.114356 -0.045044
Cu1   Cu    Cu3+1 0.500000 0.640660 0.500000 0.910117
Cu2   Cu    Cu3+1 0.500000 0.359340 0.500000 0.919080
H1    H     H_    0.115032 0.312260 0.564935 0.147896
H2    H     H_    0.884975 0.689756 0.435165 0.142996
H3    H     H_    0.890080 0.312173 0.564662 0.139582
H4    H     H_    0.110440 0.687957 0.434013 0.127868
N1    N     N_R   0.500000 0.852070 0.500000 -0.216208
N2    N     N_R   0.500000 0.147930 0.500000 -0.211264
O1    O     O_R   0.319640 0.618740 0.499990 -0.599368
O2    O     O_R   0.680360 0.381260 0.500010 -0.572302
O3    O     O_R   0.680360 0.618740 0.500010 -0.590547
O4    O     O_R   0.319640 0.381260 0.499990 -0.579169
O5    O     O_R   0.500000 0.618830 0.391250 -0.582352
O6    O     O_R   0.500000 0.381170 0.608750 -0.574389
O7    O     O_R   0.500000 0.618830 0.608750 -0.584787
O8    O     O_R   0.500000 0.381170 0.391250 -0.598108
I1    I     I_    0.782389 0.511986 0.925028 -0.294819
I2    I     I_    0.347342 0.279638 0.070251 -0.308210
I3    I     I_    0.656824 0.813131 0.109072 -0.350772
I4    I     I_    0.217216 0.548303 0.894546 -0.300940
C29   C     C_3   0.741135 0.529509 0.736054 -0.387488
C30   C     C_3   0.802194 0.672961 0.745841 -0.764954
H5    H     H_    0.730659 0.752669 0.743461 0.241584
H6    H     H_    0.858307 0.682206 0.800707 0.288254
H7    H     H_    0.865945 0.692996 0.700203 0.230004
H8    H     H_    0.805277 0.451063 0.760584 0.229713
H9    H     H_    0.730505 0.508896 0.674408 0.171089
C31   C     C_3   0.469388 0.241597 0.245621 -0.410448
C32   C     C_3   0.582153 0.168697 0.219074 -0.724475
H10   H     H_    0.584153 0.173598 0.156462 0.286946
H11   H     H_    0.669384 0.217264 0.245349 0.248440
H12   H     H_    0.578943 0.059000 0.236328 0.237506
H13   H     H_    0.469699 0.220484 0.306047 0.226848
H14   H     H_    0.381954 0.190660 0.221839 0.218089
C33   C     C_3   0.697837 0.688036 0.284918 -0.399675
C34   C     C_3   0.823157 0.630291 0.268129 -0.774121
H15   H     H_    0.829381 0.522603 0.288971 0.246876
H16   H     H_    0.835851 0.632207 0.206422 0.288464
H17   H     H_    0.899830 0.693021 0.297298 0.231751
H18   H     H_    0.697357 0.799528 0.271751 0.217034
H19   H     H_    0.692080 0.680003 0.346815 0.220418
C35   C     C_3   0.264049 0.484010 0.715060 -0.358941
C36   C     C_3   0.215296 0.336001 0.723052 -0.781647
H20   H     H_    0.216999 0.304249 0.783517 0.284106
H21   H     H_    0.117645 0.326764 0.698590 0.234083
H22   H     H_    0.273221 0.265374 0.692573 0.235689
H23   H     H_    0.194421 0.556643 0.732638 0.226126
H24   H     H_    0.271407 0.506461 0.654182 0.187624
C37   C     C_3   0.307951 0.139568 0.408900 -0.357995
C38   C     C_3   0.192275 0.120457 0.453622 -0.820524
H25   H     H_    0.152884 0.014186 0.449758 0.225514
H26   H     H_    0.216171 0.141856 0.514563 0.256882
H27   H     H_    0.119196 0.190602 0.430796 0.251073
H28   H     H_    0.324105 0.248244 0.397386 0.250074
H29   H     H_    0.286482 0.100326 0.350883 0.169730
C39   C     C_3   0.693656 0.866912 0.588971 -0.346678
C40   C     C_3   0.806790 0.894743 0.543578 -0.827597
H30   H     H_    0.784812 0.867670 0.483118 0.257676
H31   H     H_    0.834746 0.005460 0.546393 0.240347
H32   H     H_    0.886030 0.833832 0.567372 0.243491
H33   H     H_    0.716372 0.909451 0.646071 0.173687
H34   H     H_    0.680463 0.757490 0.600843 0.258638
C41   C     C_3   0.573888 0.119205 0.639062 -0.318364
C42   C     C_3   0.695250 0.197160 0.663277 -0.798235
H35   H     H_    0.776896 0.132149 0.658876 0.228647
H36   H     H_    0.708081 0.288890 0.627917 0.263412
H37   H     H_    0.693266 0.229340 0.723267 0.241028
H38   H     H_    0.489080 0.170599 0.653172 0.215787
H39   H     H_    0.566554 0.029989 0.678169 0.154183
C43   C     C_3   0.345878 0.849203 0.383706 -0.349888
C44   C     C_3   0.406782 0.863225 0.308524 -0.815272
H40   H     H_    0.383710 0.961128 0.279670 0.236806
H41   H     H_    0.509117 0.859126 0.318271 0.256130
H42   H     H_    0.372729 0.778647 0.269747 0.252460
H43   H     H_    0.328572 0.741060 0.394429 0.251972
H44   H     H_    0.249379 0.883841 0.375683 0.166757

loop_
_geom_bond_atom_site_label_1
_geom_bond_atom_site_label_2
_ccdc_geom_bond_type
C6    H2    S    
C37   C38   S    
C10   O6    A    
C14   C18   A    
C15   I3    S    
Cu2   O8    S    
C16   I4    S    
C32   H10   S    
C14   I2    S    
C40   H30   S    
C15   C19   A    
C16   C20   A    
C38   H26   S    
C9    C22   S    
C32   H11   S    
C37   H29   S    
C43   H43   S    
C43   C44   S    
C31   C32   S    
Cu2   O2    S    
C23   C26   A    
C1    O4    A    
C41   H38   S    
C39   C40   S    
C33   H19   S    
C19   C33   S    
C30   H6    S    
C35   C36   S    
C18   C31   S    
C16   C27   A    
Cu1   O7    S    
C7    H3    S    
C20   C35   S    
C1    C12   S    
C39   H34   S    
C2    C11   S    
C2    O3    A    
C4    C28   S    
C40   H31   S    
C10   C21   S    
C25   C41   S    
C24   N1    A    
C30   H7    S    
C34   H17   S    
C19   C22   A    
C24   C25   A    
C5    C12   A    
C17   C29   S    
C41   C42   S    
C5    C7    A    
C38   H25   S    
C32   H12   S    
C6    C8    A    
C29   H9    S    
C42   H37   S    
C41   H39   S    
C34   H16   S    
C7    C11   A    
Cu1   Cu2   S    
C2    O2    A    
C44   H40   S    
C8    C12   A    
Cu1   O3    S    
C42   H36   S    
C30   H5    S    
Cu2   O4    S    
C8    H4    S    
C23   C37   S    
C26   C43   S    
C44   H41   S    
C29   C30   S    
C35   H24   S    
C31   H14   S    
C39   H33   S    
C3    C4    T    
C6    C11   A    
C36   H21   S    
C40   H32   S    
C33   H18   S    
C9    O8    A    
Cu1   O5    S    
C10   O7    A    
C18   C22   A    
Cu2   O6    S    
C36   H22   S    
Cu2   N2    S    
Cu1   N1    S    
C9    O5    A    
C13   C17   A    
C34   H15   S    
C3    C27   S    
C24   C39   S    
C36   H20   S    
C13   I1    S    
C38   H27   S    
C15   C28   A    
C37   H28   S    
C43   H44   S    
C42   H35   S    
C17   C21   A    
C25   N2    A    
C33   C34   S    
C26   N1    A    
C44   H42   S    
C20   C21   A    
C23   N2    A    
Cu1   O1    S    
C35   H23   S    
C31   H13   S    
C13   C27   A    
C14   C28   A    
C29   H8    S    
C1    O1    A    
C5    H1    S    
