data_mof_unit_6695.cif
_audit_creation_date              2012-12-10T17:54:26-0500
_audit_creation_method            fapswitch 2.2
_symmetry_space_group_name_H-M    P1
_symmetry_Int_Tables_number       1
_space_group_crystal_system       triclinic
_cell_length_a                    27.717858
_cell_length_b                    10.614634
_cell_length_c                    9.943626
_cell_angle_alpha                 89.249196
_cell_angle_beta                  89.205938
_cell_angle_gamma                 92.215957
_cell_volume                      2922.82221592

loop_
_atom_site_label
_atom_site_type_symbol
_atom_type_description
_atom_site_fract_x
_atom_site_fract_y
_atom_site_fract_z
_atom_type_partial_charge
C1    C     C_R   0.501246 0.260819 0.500699 0.856432
C2    C     C_R   0.972279 0.376156 0.505742 0.046432
C3    C     C_R   0.976303 0.609178 0.498569 0.047289
C4    C     C_R   0.406127 0.499078 0.500874 0.860213
C5    C     C_R   0.949060 0.493064 0.501023 0.070090
C6    C     C_R   0.943374 0.263581 0.516834 -0.215651
C7    C     C_R   0.893393 0.265677 0.517243 -0.136731
C8    C     C_R   0.870338 0.379853 0.506948 -0.020218
C9    C     C_R   0.897984 0.493890 0.498850 -0.052463
C10   C     C_R   0.874436 0.608774 0.488763 -0.018759
C11   C     C_R   0.823978 0.607439 0.486691 0.500333
C12   C     C_R   0.277913 0.501306 0.627729 -0.102811
C13   C     C_R   0.819937 0.382919 0.506190 0.502067
C14   C     C_R   0.720931 0.446385 0.388391 -0.105198
C15   C     C_R   0.670829 0.446808 0.389436 -0.219990
C16   C     C_R   0.501574 0.739335 0.499143 0.872493
C17   C     C_R   0.672002 0.548274 0.607083 -0.237469
C18   C     C_R   0.722087 0.547335 0.606116 -0.102487
C19   C     C_R   0.746572 0.496687 0.496674 0.316497
C20   C     C_R   0.023372 0.375496 0.500323 0.047033
C21   C     C_R   0.050518 0.491534 0.505561 0.070526
C22   C     C_R   0.027201 0.608290 0.508759 0.046285
C23   C     C_R   0.252850 0.489739 0.507352 0.325404
C24   C     C_R   0.048471 0.262477 0.488613 -0.215396
C25   C     C_R   0.105709 0.718514 0.527407 -0.134707
C26   C     C_R   0.951530 0.722587 0.484656 -0.216000
C27   C     C_R   0.901565 0.722113 0.480075 -0.139255
C28   C     C_R   0.593745 0.499922 0.499297 0.834053
C29   C     C_R   0.055781 0.720510 0.523232 -0.215328
C30   C     C_R   0.582099 0.137578 0.622338 -0.179563
C31   C     C_R   0.620157 0.074720 0.679811 -0.111677
C32   C     C_R   0.620522 0.943688 0.677597 -0.126609
C33   C     C_R   0.582848 0.875076 0.617809 -0.198582
C34   C     C_R   0.101596 0.490852 0.507396 -0.051985
C35   C     C_R   0.543664 0.937348 0.560492 0.096635
C36   C     C_R   0.543267 0.069321 0.562765 0.095270
C37   C     C_R   0.504398 0.128679 0.501381 -0.089646
C38   C     C_R   0.468055 0.061810 0.434658 -0.210175
C39   C     C_R   0.468450 0.933242 0.432529 -0.193382
C40   C     C_R   0.175885 0.378004 0.499023 0.503488
C41   C     C_R   0.505157 0.871973 0.497263 -0.103329
C42   C     C_R   0.436085 0.334655 0.144103 -0.149970
C43   C     C_R   0.404641 0.253404 0.076019 -0.197501
C44   C     C_R   0.404747 0.253571 0.936731 -0.182350
C45   C     C_R   0.125397 0.376317 0.498454 -0.020402
C46   C     C_R   0.436335 0.334923 0.864619 -0.147341
C47   C     C_R   0.468600 0.418668 0.930120 0.153161
C48   C     C_R   0.468490 0.418784 0.074509 0.143039
C49   C     C_R   0.530892 0.577407 0.066931 0.133780
C50   C     C_R   0.529872 0.577684 0.924273 -0.123868
C51   C     C_R   0.179387 0.601991 0.518874 0.505442
C52   C     C_R   0.277721 0.480459 0.384959 -0.103601
C53   C     C_R   0.327868 0.483630 0.382599 -0.222749
C54   C     C_R   0.328064 0.504039 0.625854 -0.215665
C55   C     C_3   0.567470 0.667272 0.129296 -0.378529
C56   C     C_R   0.098506 0.263156 0.487915 -0.137478
C57   C     C_3   0.619385 0.630342 0.097475 -0.396829
C58   C     C_3   0.656043 0.713876 0.171670 -0.814032
C59   C     C_R   0.128999 0.604755 0.517868 -0.022570
C60   C     C_R   0.353386 0.495848 0.503094 -0.041769
C61   C     C_R   0.646202 0.498639 0.498281 -0.036502
H1    H     H_    0.346905 0.513147 0.720146 0.167784
H2    H     H_    0.583863 0.239402 0.623547 0.157158
H3    H     H_    0.649682 0.127939 0.725010 0.152818
H4    H     H_    0.258458 0.508497 0.722343 0.137937
H5    H     H_    0.650315 0.895080 0.721079 0.144367
H6    H     H_    0.585189 0.773686 0.615150 0.137476
H7    H     H_    0.439425 0.881056 0.383343 0.160194
H8    H     H_    0.433991 0.328439 0.250924 0.198130
H9    H     H_    0.380089 0.189746 0.131893 0.155969
H10   H     H_    0.380257 0.190127 0.884063 0.160085
H11   H     H_    0.434549 0.329680 0.757886 0.203256
H12   H     H_    0.258113 0.471667 0.291892 0.137610
H13   H     H_    0.553769 0.641342 0.866289 0.146425
H14   H     H_    0.116043 0.174118 0.478801 0.188865
H15   H     H_    0.651364 0.405245 0.306412 0.157509
H16   H     H_    0.739889 0.406750 0.303932 0.144031
H17   H     H_    0.872863 0.176896 0.525818 0.191538
H18   H     H_    0.958164 0.171836 0.528633 0.138829
H19   H     H_    0.030592 0.171549 0.476495 0.137874
H20   H     H_    0.346543 0.476449 0.286763 0.166385
H21   H     H_    0.653237 0.813821 0.139210 0.259979
H22   H     H_    0.649724 0.706224 0.282075 0.268561
H23   H     H_    0.126014 0.807044 0.538000 0.192163
H24   H     H_    0.693112 0.683530 0.148609 0.256832
H25   H     H_    0.623940 0.530471 0.127447 0.236293
H26   H     H_    0.627046 0.639774 0.987748 0.211253
H27   H     H_    0.561940 0.764153 0.090000 0.181670
H28   H     H_    0.563008 0.671311 0.238221 0.267797
H29   H     H_    0.969697 0.813753 0.473852 0.137996
H30   H     H_    0.653506 0.588657 0.692009 0.146172
H31   H     H_    0.884274 0.811498 0.469821 0.188439
H32   H     H_    0.741949 0.585734 0.690207 0.141086
H33   H     H_    0.040693 0.811792 0.534682 0.139015
H34   H     H_    0.438858 0.109399 0.386345 0.142938
N1    N     N_R   0.201518 0.489781 0.508998 -0.359074
N2    N     N_R   0.797990 0.495617 0.496070 -0.356571
N3    N     N_R   0.499540 0.498800 0.142780 -0.138460
N4    N     N_R   0.499520 0.498720 0.857170 -0.134170
O1    O     O_R   0.500000 0.316780 0.614690 -0.637729
O2    O     O_R   0.571250 0.499990 0.614680 -0.630607
O3    O     O_R   0.571240 0.499970 0.385350 -0.626296
O4    O     O_2   0.199279 0.269153 0.490031 -0.553433
O5    O     O_2   0.792983 0.274446 0.516624 -0.559398
O6    O     O_2   0.206175 0.710368 0.528564 -0.549894
O7    O     O_2   0.800966 0.716760 0.474850 -0.560195
O8    O     O_R   0.500000 0.316750 0.385360 -0.627790
O9    O     O_R   0.428760 0.500030 0.614650 -0.634563
O10   O     O_R   0.428750 0.500010 0.385320 -0.637320
O11   O     O_R   0.500000 0.683250 0.614640 -0.609214
O12   O     O_R   0.500000 0.683220 0.385310 -0.636197
Zn1   Zn    Zn3+2 0.500000 0.500020 0.653130 0.931405
Zn2   Zn    Zn3+2 0.500000 0.499980 0.346870 0.927675

loop_
_geom_bond_atom_site_label_1
_geom_bond_atom_site_label_2
_ccdc_geom_bond_type
C10   C27   A    
C4    O10   A    
C8    C13   A    
C22   C29   A    
C39   H7    S    
C35   C36   A    
C17   H30   S    
C24   C56   A    
C19   N2    S    
C16   O11   A    
C7    C8    A    
C39   C41   A    
C54   C60   A    
C23   N1    S    
O2    Zn1   S    
C4    O9    A    
C12   C23   A    
C50   N4    A    
C36   C37   A    
C50   H13   S    
C30   C31   A    
C31   C32   A    
C47   N4    A    
C57   H25   S    
C44   H10   S    
C53   H20   S    
C18   C19   A    
C14   H16   S    
C55   H27   S    
O8    Zn2   S    
C17   C61   A    
C49   N3    A    
C28   O2    A    
C24   H19   S    
C20   C24   A    
C45   C56   A    
C8    C9    A    
C38   H34   S    
C25   H23   S    
C9    C10   A    
C46   H11   S    
O10   Zn2   S    
C51   N1    A    
C28   C61   S    
C15   H15   S    
C56   H14   S    
C30   H2    S    
C2    C6    A    
C40   N1    A    
C14   C19   A    
C1    O1    A    
C53   C60   A    
C44   C46   A    
C25   C29   A    
C40   C45   A    
C2    C20   A    
C52   H12   S    
N3    Zn2   S    
C21   C34   A    
C54   H1    S    
C49   C55   S    
C42   H8    S    
C57   H26   S    
C23   C52   A    
C43   C44   A    
C5    C9    A    
C37   C38   A    
C28   O3    A    
C47   C48   A    
C51   O6    S    
C4    C60   S    
C11   O7    S    
C17   C18   A    
C15   C61   A    
C27   H31   S    
O12   Zn2   S    
C34   C45   A    
C42   C48   A    
C13   O5    S    
C1    O8    A    
C7    H17   S    
O1    Zn1   S    
C43   H9    S    
C55   C57   S    
C26   C27   A    
C34   C59   A    
C2    C5    A    
C51   C59   A    
C42   C43   A    
C58   H24   S    
C52   C53   A    
C33   H6    S    
C32   H5    S    
C46   C47   A    
C31   H3    S    
C3    C26   A    
C3    C5    A    
C6    C7    A    
C1    C37   S    
C26   H29   S    
C48   N3    A    
C12   H4    S    
C30   C36   A    
C11   N2    A    
C32   C33   A    
C58   H21   S    
C55   H28   S    
O3    Zn2   S    
C58   H22   S    
C40   O4    S    
C57   C58   S    
C38   C39   A    
N4    Zn1   S    
C33   C35   A    
C29   H33   S    
C13   N2    A    
C35   C41   A    
O11   Zn1   S    
C10   C11   A    
C6    H18   S    
O9    Zn1   S    
C20   C21   A    
C49   C50   A    
C18   H32   S    
C14   C15   A    
C3    C22   A    
C25   C59   A    
C21   C22   A    
C16   C41   S    
C12   C54   A    
C16   O12   A    
