data_mof_unit_57692.cif
_audit_creation_date              2012-12-10T16:56:35-0500
_audit_creation_method            fapswitch 2.2
_symmetry_space_group_name_H-M    P1
_symmetry_Int_Tables_number       1
_space_group_crystal_system       triclinic
_cell_length_a                    7.864749
_cell_length_b                    8.58752
_cell_length_c                    15.693144
_cell_angle_alpha                 92.019589
_cell_angle_beta                  85.937615
_cell_angle_gamma                 92.388531
_cell_volume                      1055.75834585

loop_
_atom_site_label
_atom_site_type_symbol
_atom_type_description
_atom_site_fract_x
_atom_site_fract_y
_atom_site_fract_z
_atom_type_partial_charge
C1    C     C_R   0.543188 0.793394 0.496277 0.945116
C2    C     C_3   0.387714 0.390321 0.029086 0.206132
C3    C     C_1   0.505810 0.498885 0.750275 -0.189727
C4    C     C_1   0.494190 0.501115 0.249725 -0.189728
C5    C     C_3   0.342616 0.529034 0.975653 -0.266132
C6    C     C_3   0.657384 0.470964 0.024347 -0.266132
C7    C     C_3   0.503694 0.498678 0.916457 0.094277
C8    C     C_3   0.496306 0.501321 0.083543 0.094277
C9    C     C_1   0.506281 0.498304 0.825525 -0.032476
C10   C     C_1   0.493719 0.501695 0.174475 -0.032475
C11   C     C_3   0.739593 0.734270 0.936457 -0.918630
C12   C     C_R   0.456811 0.206607 0.503722 0.945120
C13   C     C_3   0.260407 0.265728 0.063543 -0.918629
C14   C     C_3   0.400531 0.798425 0.067413 -0.921355
C15   C     C_3   0.599469 0.201573 0.932587 -0.921355
C16   C     C_3   0.681204 0.999256 0.404336 -0.903620
C17   C     C_3   0.318761 0.000738 0.595648 -0.903611
C18   C     C_3   0.018180 0.397993 0.395639 -0.490416
C19   C     C_3   0.981820 0.602006 0.604360 -0.490422
C20   C     C_R   0.501964 0.500038 0.661632 0.887885
C21   C     C_R   0.498036 0.499961 0.338368 0.887884
C22   C     C_2   0.557795 0.952883 0.479388 -0.009071
C23   C     C_2   0.442195 0.047116 0.520607 -0.009075
C24   C     C_3   0.453270 0.639666 0.031034 0.210250
C25   C     C_3   0.546730 0.360332 0.968965 0.210251
C26   C     C_3   0.612286 0.609678 0.970914 0.206132
H1    H     H_    0.785387 0.447492 0.045505 0.156709
H2    H     H_    0.281781 0.784681 0.109505 0.244942
H3    H     H_    0.503348 0.852099 0.105000 0.244882
H4    H     H_    0.622390 0.124523 0.985581 0.248803
H5    H     H_    0.496652 0.147900 0.894999 0.244882
H6    H     H_    0.718219 0.215318 0.890495 0.244941
H7    H     H_    0.724516 0.895617 0.365588 0.239099
H8    H     H_    0.618665 0.074054 0.360444 0.229613
H9    H     H_    0.796595 0.060617 0.427917 0.266053
H10   H     H_    0.275414 0.104374 0.634389 0.239104
H11   H     H_    0.203387 0.939363 0.572057 0.266059
H12   H     H_    0.214613 0.552507 0.954495 0.156709
H13   H     H_    0.381290 0.925952 0.639551 0.229614
H14   H     H_    0.917082 0.325765 0.365748 0.177298
H15   H     H_    0.054889 0.495383 0.352567 0.196012
H16   H     H_    0.123498 0.319605 0.402713 0.209452
H17   H     H_    0.082918 0.674234 0.634252 0.177299
H18   H     H_    0.876502 0.680394 0.597287 0.209452
H19   H     H_    0.945110 0.504616 0.647433 0.196013
H20   H     H_    0.799115 0.797258 0.990414 0.245811
H21   H     H_    0.840298 0.678902 0.893992 0.240801
H22   H     H_    0.673048 0.818361 0.899692 0.249382
H23   H     H_    0.200885 0.202741 0.009586 0.245810
H24   H     H_    0.326952 0.181638 0.100308 0.249382
H25   H     H_    0.159702 0.321096 0.106008 0.240802
H26   H     H_    0.377610 0.875476 0.014419 0.248803
N1    N     N_2   0.950320 0.457950 0.477300 -0.003902
N2    N     N_2   0.049680 0.542050 0.522700 -0.003903
O1    O     O_R   0.389250 0.738570 0.505570 -0.613102
O2    O     O_R   0.610750 0.261430 0.494430 -0.613102
O3    O     O_R   0.678390 0.711630 0.491020 -0.629727
O4    O     O_R   0.321610 0.288370 0.508980 -0.629731
O5    O     O_R   0.355460 0.513480 0.630490 -0.618435
O6    O     O_R   0.644540 0.486520 0.369510 -0.618434
O7    O     O_R   0.644600 0.486540 0.615950 -0.633384
O8    O     O_R   0.355400 0.513460 0.384050 -0.633383
Zn1   Zn    Zn3+2 0.306940 0.517990 0.509710 0.937452
Zn2   Zn    Zn3+2 0.693060 0.482010 0.490290 0.937455

loop_
_geom_bond_atom_site_label_1
_geom_bond_atom_site_label_2
_ccdc_geom_bond_type
O7    Zn2   S    
C16   C22   S    
C19   H19   S    
C15   H5    S    
O8    Zn1   S    
C3    C9    T    
C17   H10   S    
C1    O3    A    
C16   H7    S    
C11   H21   S    
C6    H1    S    
C7    C25   S    
O6    Zn2   S    
C16   H8    S    
C12   O4    A    
O2    Zn2   S    
C11   H22   S    
C1    C22   S    
C6    C26   S    
N1    N2    D    
C20   O5    A    
O4    Zn1   S    
C4    C21   S    
C5    C24   S    
C12   C23   S    
C21   O8    A    
C12   O2    A    
C7    C26   S    
C3    C20   S    
C17   C23   S    
C21   O6    A    
C13   H23   S    
C13   H25   S    
C19   N2    S    
C8    C24   S    
C24   C26   S    
C2    C25   S    
C18   H16   S    
C16   H9    S    
C1    O1    A    
N1    Zn2   S    
C2    C8    S    
C15   C25   S    
C2    C5    S    
N2    Zn1   S    
C17   H11   S    
C14   H3    S    
C4    C10   T    
C13   H24   S    
C6    C25   S    
C7    C9    S    
C15   H6    S    
C18   H14   S    
C19   H18   S    
O3    Zn2   S    
C8    C10   S    
C15   H4    S    
C18   H15   S    
C14   C24   S    
C20   O7    A    
C5    C7    S    
C2    C13   S    
C17   H13   S    
C22   C23   D    
C11   H20   S    
C6    C8    S    
C11   C26   S    
C14   H2    S    
C5    H12   S    
O5    Zn1   S    
C14   H26   S    
C18   N1    S    
C19   H17   S    
O1    Zn1   S    
