data_mof_unit_25555.cif
_audit_creation_date              2013-03-05T15:53:06-0500
_audit_creation_method            fapswitch 2.2
_symmetry_space_group_name_H-M    P1
_symmetry_Int_Tables_number       1
_space_group_crystal_system       triclinic
_cell_length_a                    6.951063
_cell_length_b                    20.453062
_cell_length_c                    24.427051
_cell_angle_alpha                 89.531387
_cell_angle_beta                  90.573172
_cell_angle_gamma                 89.504794
_cell_volume                      3472.38449892

loop_
_atom_site_label
_atom_site_type_symbol
_atom_site_description
_atom_site_fract_x
_atom_site_fract_y
_atom_site_fract_z
_atom_type_partial_charge
O1    O     O_R   0.507320 0.423560 0.460500 -0.589807
O2    O     O_R   0.170760 0.556250 0.437010 -0.584065
O3    O     O_R   0.004030 0.576440 0.539500 -0.586347
C1    C     C_R   0.338738 0.576382 0.421056 0.975466
O4    O     O_R   0.177370 0.422820 0.454110 -0.592599
O5    O     O_R   0.010680 0.442050 0.556720 -0.590600
C2    C     C_R   0.346235 0.399010 0.443299 0.920106
O6    O     O_R   0.500680 0.557950 0.443280 -0.590000
O7    O     O_3   0.340380 0.506470 0.533650 -0.272236
V1    V     V_3+5 0.064130 0.498800 0.493760 1.173162
O8    O     O_R   0.681160 0.443750 0.562990 -0.592876
C3    C     C_R   0.850981 0.423653 0.578877 0.977524
O9    O     O_R   0.674560 0.577180 0.545890 -0.591118
C4    C     C_R   0.842886 0.601154 0.556357 0.934090
V2    V     V_3+5 0.564560 0.501200 0.506240 1.168870
O10   O     O_3   0.838180 0.493530 0.466350 -0.272259
C5    C     C_R   0.970056 0.839464 0.909816 -0.248941
C6    C     C_R   0.848388 0.661998 0.588089 -0.110177
C7    C     C_R   0.965511 0.721438 0.907393 -0.162699
C8    C     C_R   0.964576 0.779206 0.936887 -0.221722
C9    C     C_R   0.970308 0.842039 0.851768 0.267814
C10   C     C_R   0.944606 0.783054 0.821052 -0.038862
C11   C     C_R   0.957223 0.722730 0.850062 0.167602
C12   C     C_R   0.904732 0.781125 0.763145 0.070919
C13   C     C_R   0.914626 0.720270 0.734353 0.065781
C14   C     C_R   0.947450 0.662521 0.765107 -0.188658
C15   C     C_R   0.961421 0.663744 0.821824 -0.208866
C16   C     C_R   0.837774 0.836825 0.734136 -0.087269
C17   C     C_R   0.802422 0.835359 0.678180 -0.234750
C18   C     C_R   0.824960 0.777686 0.648878 0.160199
C19   C     C_R   0.880616 0.718896 0.676242 0.107417
C20   C     C_R   0.783999 0.778081 0.592510 -0.146329
C21   C     C_R   0.793648 0.720623 0.562569 -0.140273
C22   C     C_R   0.894387 0.661101 0.644282 -0.241393
H1    H     H_    0.976473 0.617745 0.843902 0.122377
H2    H     H_    0.937153 0.614575 0.661714 0.101371
H3    H     H_    0.756641 0.721748 0.519368 0.130761
H4    H     H_    0.752132 0.879702 0.657808 0.148572
H5    H     H_    0.970213 0.675353 0.929616 0.117449
H6    H     H_    0.967050 0.776875 0.981225 0.123518
H7    H     H_    0.952810 0.614825 0.746841 0.124666
H8    H     H_    0.800597 0.881688 0.754396 0.182830
H9    H     H_    0.740244 0.822880 0.571682 0.131106
C23   C     C_3   0.828630 0.305168 0.767703 -0.161975
C24   C     C_3   0.020797 0.275797 0.789901 -0.170439
H10   H     H_    0.110680 0.296895 0.823042 0.114264
H11   H     H_    0.231923 0.274913 0.714178 0.120584
C25   C     C_1   0.960492 0.121895 0.875333 -0.240790
C26   C     C_1   0.863854 0.378108 0.624691 -0.293983
C27   C     C_3   0.736996 0.236334 0.769490 -0.156034
C28   C     C_3   0.928952 0.207586 0.791076 0.219627
C29   C     C_3   0.803530 0.224046 0.710023 -0.155995
C30   C     C_3   0.895378 0.292259 0.708850 0.223824
C31   C     C_3   0.995700 0.194670 0.732225 -0.131277
C32   C     C_3   0.087335 0.263508 0.730436 -0.166644
C33   C     C_1   0.947160 0.160337 0.837255 -0.024583
C34   C     C_1   0.877180 0.339576 0.662711 -0.040252
H12   H     H_    0.064760 0.148887 0.717819 0.135170
H13   H     H_    0.713650 0.202946 0.676882 0.122286
H14   H     H_    0.592413 0.224924 0.785750 0.121621
C35   C     C_3   0.544878 0.727146 0.215770 -0.124372
C36   C     C_3   0.352738 0.692977 0.230224 -0.211968
H15   H     H_    0.654976 0.707952 0.187311 0.115631
H16   H     H_    0.104005 0.766926 0.201163 0.142681
C37   C     C_1   0.348583 0.622030 0.375157 -0.273179
C38   C     C_1   0.475881 0.878224 0.125027 -0.295610
C39   C     C_3   0.579508 0.741970 0.277387 -0.167547
C40   C     C_3   0.387772 0.708111 0.291385 0.059614
C41   C     C_3   0.471324 0.808532 0.270239 -0.209976
C42   C     C_3   0.435925 0.792880 0.209231 0.172150
C43   C     C_3   0.282274 0.773548 0.283695 0.390008
C44   C     C_3   0.243667 0.759316 0.222876 -0.259357
C45   C     C_1   0.363902 0.660620 0.337254 0.081190
C46   C     C_1   0.460629 0.839878 0.163103 0.019460
H17   H     H_    0.518051 0.856156 0.287064 0.167180
C47   C     C_R   0.471862 0.161689 0.088975 -0.093623
C48   C     C_R   0.352776 0.338348 0.411061 -0.096352
C49   C     C_R   0.522849 0.278253 0.093626 -0.179489
C50   C     C_R   0.517415 0.220803 0.063556 -0.169942
C51   C     C_R   0.432455 0.160306 0.145388 -0.241919
C52   C     C_R   0.440110 0.218308 0.177411 0.109335
C53   C     C_R   0.485811 0.277555 0.150014 0.188499
C54   C     C_R   0.406269 0.219700 0.235409 0.055684
C55   C     C_R   0.418524 0.280319 0.264640 0.063655
C56   C     C_R   0.463683 0.337475 0.234870 -0.196827
C57   C     C_R   0.496234 0.335921 0.178925 -0.242078
C58   C     C_R   0.361195 0.162539 0.265183 -0.188764
C59   C     C_R   0.328693 0.164091 0.321132 -0.222933
C60   C     C_R   0.339043 0.222463 0.350038 0.173958
C61   C     C_R   0.384648 0.281715 0.322635 0.110886
C62   C     C_R   0.302031 0.221767 0.406428 -0.167568
C63   C     C_R   0.307366 0.279225 0.436491 -0.162745
C64   C     C_R   0.392166 0.339727 0.354649 -0.245314
H18   H     H_    0.530991 0.381206 0.157994 0.130004
H19   H     H_    0.424115 0.386846 0.337124 0.099451
H20   H     H_    0.294024 0.118801 0.342067 0.146496
H21   H     H_    0.558381 0.323472 0.072742 0.113961
H22   H     H_    0.549736 0.222390 0.020262 0.106052
H23   H     H_    0.400354 0.113194 0.162903 0.105640
H24   H     H_    0.475605 0.384716 0.253628 0.129526
H25   H     H_    0.266593 0.176543 0.427319 0.124025
O11   O     O_R   0.323550 0.942140 0.056770 -0.594390
O12   O     O_R   0.647080 0.077200 0.045890 -0.595924
O13   O     O_R   0.813610 0.057920 0.943260 -0.587824
C65   C     C_R   0.478262 0.101036 0.056726 0.916952
O14   O     O_R   0.653470 0.943760 0.063000 -0.594299
O15   O     O_R   0.820050 0.923540 0.960490 -0.587470
C66   C     C_R   0.485524 0.923692 0.078996 0.971906
O16   O     O_R   0.317110 0.076520 0.039540 -0.596747
O17   O     O_3   0.483830 0.993580 0.966380 -0.255623
V3    V     V_3+5 0.760140 0.001190 0.006240 1.188289
O18   O     O_R   0.149510 0.922740 0.954070 -0.585032
C67   C     C_R   0.980784 0.899004 0.943369 1.040844
O19   O     O_R   0.143120 0.056170 0.936970 -0.587117
C68   C     C_R   0.973351 0.076444 0.921203 1.044482
V4    V     V_3+5 0.259690 0.998700 0.993700 1.201331
O20   O     O_3   0.986130 0.006420 0.033620 -0.286695
H26   H     H_    0.759548 0.350943 0.782119 0.114479
H27   H     H_    0.304407 0.645407 0.213653 0.134277
N1    N     N_R   0.136754 0.800481 0.319861 0.228258
O21   O     O_R   0.056622 0.856648 0.308211 -0.407356
O22   O     O_R   0.084556 0.768579 0.363435 -0.417233
H28   H     H_    0.718414 0.734624 0.299535 0.181372
H29   H     H_    0.275061 0.277638 0.479785 0.111187
H30   H     H_    0.349357 0.115293 0.246429 0.139467
N2    N     N_R   0.024510 0.902032 0.825332 0.212706
O23   O     O_R   0.167889 0.902513 0.791505 -0.393400
O24   O     O_R   0.936022 0.956592 0.836375 -0.447121

loop_
_geom_bond_atom_site_label_1
_geom_bond_atom_site_label_2
_geom_bond_distance
_ccdc_geom_bond_type
C35   C42   1.543734 S    
C13   C19   1.437244 A    
C54   C58   1.411000 A    
C58   C59   1.388017 A    
C59   H20   1.084552 S    
C48   C63   1.394982 A    
C47   C65   1.475524 S    
C4    C6    1.472041 S    
C50   H22   1.083610 S    
O2    C1    1.303671 A    
C7    C8    1.388883 A    
C47   C50   1.394967 A    
C58   H30   1.076241 S    
C1    O6    1.296556 A    
O19   C68   1.301035 A    
C5    C67   1.475445 S    
C56   C57   1.387999 A    
N1    O21   1.300532 A    
C14   C15   1.388314 A    
N2    O23   1.301028 A    
C43   N1    1.457150 S    
C16   C17   1.386961 A    
C63   H29   1.083614 S    
O5    C3    1.297193 A    
C1    C37   1.455657 S    
C8    H6    1.083678 S    
C24   C28   1.539433 S    
V2    O10   2.150786 S    
C38   C46   1.217743 T    
C5    C8    1.394877 A    
C26   C34   1.215429 T    
V4    O20   2.150827 S    
O12   V3    1.997827 S    
C28   C33   1.483103 S    
C16   H8    1.076801 S    
C41   C43   1.538807 S    
C35   C39   1.554587 S    
O17   V3    2.152062 S    
O15   C67   1.295423 A    
C57   H18   1.084546 S    
O16   V4    1.994412 S    
O8    V2    1.973238 S    
C23   C30   1.539196 S    
C29   C31   1.551039 S    
C17   H4    1.084461 S    
C42   C46   1.487311 S    
C27   C29   1.550658 S    
O11   C66   1.296861 A    
O1    V2    1.989818 S    
C11   C15   1.394814 A    
C60   C62   1.403765 A    
O7    V1    2.152118 S    
C2    C48   1.475568 S    
C64   H19   1.077132 S    
O9    C4    1.296457 A    
C35   C36   1.555105 S    
C55   C61   1.438885 A    
C62   H25   1.084155 S    
O18   C67   1.298196 A    
C52   C54   1.438904 A    
N1    O22   1.300293 A    
C52   C53   1.419450 A    
O14   V3    1.964895 S    
C30   C32   1.539965 S    
C39   C40   1.547246 S    
C12   C16   1.409827 A    
C55   C56   1.410993 A    
C37   C45   1.217764 T    
C62   C63   1.391413 A    
O4    C2    1.297351 A    
C30   C34   1.483236 S    
C49   C50   1.391393 A    
C15   H1    1.084340 S    
C40   C45   1.488342 S    
C53   C57   1.394022 A    
C21   H3    1.083686 S    
C39   C41   1.557292 S    
C7    C11   1.401055 A    
C3    C26   1.451755 S    
C17   C18   1.393245 A    
C29   H13   1.110037 S    
O13   C68   1.297178 A    
C49   C53   1.403767 A    
C54   C55   1.438550 A    
C23   H26   1.110009 S    
C49   H21   1.084143 S    
C35   H15   1.110399 S    
C27   C28   1.539927 S    
C19   C22   1.424989 A    
C36   C44   1.556773 S    
O12   C65   1.297385 A    
C12   C13   1.436094 A    
C6    C22   1.406200 A    
C36   H27   1.110281 S    
O3    C4    1.297149 A    
C7    H5    1.083943 S    
C9    N2    1.436821 S    
C25   C68   1.451586 S    
O6    V2    1.964144 S    
O9    V2    1.991990 S    
C51   H23   1.077133 S    
C10   C12   1.439594 A    
O2    V1    1.964861 S    
O17   V4    1.703774 S    
O18   V4    1.991914 S    
C29   C30   1.539490 S    
C61   C64   1.427425 A    
H11   C32   1.110295 S    
C31   H12   1.110010 S    
C23   C27   1.550740 S    
C25   C33   1.215315 T    
C65   O16   1.298542 A    
C31   C32   1.550791 S    
N2    O24   1.301066 A    
O1    C2    1.298529 A    
O15   V3    1.992872 S    
C23   C24   1.550960 S    
C47   C51   1.407738 A    
C38   C66   1.455698 S    
C51   C52   1.427415 A    
C39   H28   1.110520 S    
O5    V1    1.959640 S    
O13   V3    1.959811 S    
O19   V4    1.973056 S    
O8    C3    1.301090 A    
C36   C40   1.545528 S    
V3    O20   1.705709 S    
C28   C31   1.539176 S    
C27   H14   1.110296 S    
C20   C21   1.390746 A    
C13   C14   1.410294 A    
O4    V1    1.997840 S    
O3    V1    1.992846 S    
V1    O10   1.705795 S    
C18   C20   1.403172 A    
C18   C19   1.419849 A    
O14   C66   1.303365 A    
C40   C43   1.529863 S    
C48   C64   1.407716 A    
C20   H9    1.084149 S    
C41   H17   1.110195 S    
C22   H2    1.077588 S    
H16   C44   1.110721 S    
O7    V2    1.705089 S    
C41   C42   1.544586 S    
C6    C21   1.395064 A    
C5    C9    1.418517 A    
O11   V4    1.963940 S    
C24   H10   1.110040 S    
C43   C44   1.537622 S    
C59   C60   1.394047 A    
C24   C32   1.550627 S    
C56   H24   1.076237 S    
C10   C11   1.419413 A    
C42   C44   1.545750 S    
C60   C61   1.419444 A    
C9    C10   1.437427 A    
C14   H7    1.076536 S    
