data_mof_unit_51698.cif
_audit_creation_date              2012-12-10T17:45:35-0500
_audit_creation_method            fapswitch 2.2
_symmetry_space_group_name_H-M    P1
_symmetry_Int_Tables_number       1
_space_group_crystal_system       triclinic
_cell_length_a                    11.531757
_cell_length_b                    10.637615
_cell_length_c                    9.988594
_cell_angle_alpha                 89.089502
_cell_angle_beta                  90.505407
_cell_angle_gamma                 91.216597
_cell_volume                      1224.82973592

loop_
_atom_site_label
_atom_site_type_symbol
_atom_type_description
_atom_site_fract_x
_atom_site_fract_y
_atom_site_fract_z
_atom_type_partial_charge
C1    C     C_R   0.504354 0.260798 0.501215 1.088810
C2    C     C_R   0.507369 0.871186 0.497369 -0.246391
C3    C     C_R   0.310851 0.388573 0.135923 0.578216
C4    C     C_R   0.282254 0.500013 0.499486 0.951912
C5    C     C_R   0.204832 0.379554 0.068733 0.546960
C6    C     C_R   0.202718 0.391303 0.929522 -0.053032
C7    C     C_R   0.309785 0.388160 0.863571 0.174028
C8    C     C_R   0.407241 0.445642 0.928109 -0.072679
C9    C     C_R   0.407755 0.445229 0.071780 -0.122375
C10   C     C_R   0.588067 0.552759 0.071299 -0.168230
C11   C     C_R   0.588101 0.552960 0.928775 0.689353
C12   C     C_R   0.813647 0.059747 0.625794 -0.008502
C13   C     C_R   0.499737 0.738951 0.499011 0.948812
C14   C     C_R   0.717787 0.502686 0.500329 0.937958
C15   C     C_1   0.161687 0.500397 0.498419 -0.081319
C16   C     C_1   0.059425 0.501123 0.498650 0.054494
C17   C     C_1   0.940689 0.502190 0.500088 0.061097
C18   C     C_1   0.838433 0.502832 0.500906 -0.055696
C19   C     C_R   0.714649 0.127368 0.589567 0.569795
C20   C     C_3   0.090779 0.378921 0.851756 -0.714116
C21   C     C_3   0.326935 0.266131 0.791788 -0.715753
C22   C     C_3   0.920880 0.129360 0.672903 -0.689924
C23   C     C_R   0.811026 0.928642 0.618000 0.647150
C24   C     C_R   0.710522 0.866132 0.575662 -0.221591
C25   C     C_R   0.609968 0.933064 0.539903 -0.140346
C26   C     C_R   0.611638 0.064779 0.545113 -0.135270
C27   C     C_R   0.509781 0.127962 0.504081 -0.327979
C28   C     C_R   0.409644 0.063612 0.461960 0.543453
C29   C     C_R   0.408626 0.935109 0.458111 0.541136
F1    F     F_    0.311688 0.125760 0.427874 -0.577411
F2    F     F_    0.677943 0.609196 0.863057 -0.635563
F3    F     F_    0.720905 0.253696 0.599770 -0.686833
F4    F     F_    0.905502 0.860507 0.651528 -0.628952
F5    F     F_    0.310410 0.872214 0.419303 -0.610910
F6    F     F_    0.321167 0.319873 0.249426 -0.560070
F7    F     F_    0.108247 0.343012 0.137051 -0.605845
H1    H     H_    0.712725 0.764817 0.570447 0.172458
H2    H     H_    0.900267 0.182918 0.763891 0.243696
H3    H     H_    0.992844 0.065196 0.698050 0.276215
H4    H     H_    0.659954 0.596692 0.124341 0.176925
H5    H     H_    0.014237 0.373395 0.918348 0.285546
H6    H     H_    0.081471 0.462711 0.785381 0.239364
H7    H     H_    0.090533 0.293741 0.789398 0.225147
H8    H     H_    0.416099 0.231480 0.808119 0.244956
H9    H     H_    0.270434 0.189432 0.833825 0.218625
H10   H     H_    0.303023 0.275305 0.684539 0.256417
H11   H     H_    0.951190 0.196081 0.593325 0.249675
N1    N     N_R   0.498930 0.498800 0.142780 -0.114648
N2    N     N_R   0.498900 0.498720 0.857170 -0.135413
O1    O     O_R   0.500000 0.316780 0.614690 -0.617103
O2    O     O_R   0.499990 0.316750 0.385360 -0.532360
O3    O     O_R   0.334450 0.500030 0.614670 -0.637087
O4    O     O_R   0.334440 0.500000 0.385330 -0.552583
O5    O     O_R   0.500010 0.683250 0.614640 -0.599798
O6    O     O_R   0.500000 0.683220 0.385310 -0.608460
O7    O     O_R   0.665560 0.500000 0.614670 -0.518124
O8    O     O_R   0.665550 0.499970 0.385330 -0.642599
Zn1   Zn    Zn3+2 0.500010 0.500020 0.653130 1.046523
Zn2   Zn    Zn3+2 0.499990 0.499980 0.346870 1.048241

loop_
_geom_bond_atom_site_label_1
_geom_bond_atom_site_label_2
_ccdc_geom_bond_type
C14   O7    A    
C23   C24   A    
C6    C7    A    
C3    C9    A    
O6    Zn2   S    
C4    O4    A    
C24   H1    S    
C21   H8    S    
C6    C20   S    
C1    O1    A    
C14   C18   S    
C20   H6    S    
C3    F6    S    
C1    C27   S    
C4    C15   S    
C28   F1    S    
C22   H11   S    
O4    Zn2   S    
C11   F2    S    
C7    C8    A    
C13   O5    A    
C1    O2    A    
C12   C23   A    
C26   C27   A    
O3    Zn1   S    
C4    O3    A    
C2    C29   A    
C11   N2    A    
C19   F3    S    
C8    N2    A    
C12   C19   A    
C2    C13   S    
C28   C29   A    
O7    Zn1   S    
C17   C18   T    
C2    C25   A    
C21   H9    S    
C10   N1    A    
C5    C6    A    
C13   O6    A    
O8    Zn2   S    
O2    Zn2   S    
C10   C11   A    
C22   H3    S    
C15   C16   T    
O1    Zn1   S    
C5    F7    S    
C12   C22   S    
C9    N1    A    
C20   H7    S    
C24   C25   A    
N1    Zn2   S    
C10   H4    S    
C21   H10   S    
O5    Zn1   S    
C27   C28   A    
C19   C26   A    
C14   O8    A    
C8    C9    A    
C3    C5    A    
C25   C26   A    
C7    C21   S    
C29   F5    S    
N2    Zn1   S    
C20   H5    S    
C16   C17   S    
C23   F4    S    
C22   H2    S    
