data_mof_unit_34016.cif
_audit_creation_date              2012-12-11T15:15:14-0500
_audit_creation_method            fapswitch 2.2
_symmetry_space_group_name_H-M    P1
_symmetry_Int_Tables_number       1
_space_group_crystal_system       triclinic
_cell_length_a                    19.320902
_cell_length_b                    18.899278
_cell_length_c                    20.361251
_cell_angle_alpha                 106.601209
_cell_angle_beta                  106.627183
_cell_angle_gamma                 111.716685
_cell_volume                      5943.66780292

loop_
_atom_site_label
_atom_site_type_symbol
_atom_type_description
_atom_site_fract_x
_atom_site_fract_y
_atom_site_fract_z
_atom_type_partial_charge
C1    C     C_R   0.084660 0.089617 0.354442 -0.147394
C2    C     C_R   0.755588 0.993352 0.536969 -0.102839
C3    C     C_R   0.765948 0.731221 0.286726 -0.029375
C4    C     C_R   0.965376 0.219457 0.464698 0.054318
C5    C     C_R   0.237856 0.208378 0.654307 -0.130144
C6    C     C_R   0.922729 0.756977 0.496535 -0.140248
C7    C     C_R   0.175083 0.928786 0.469298 -0.141348
C8    C     C_R   0.025423 0.050690 0.718740 -0.105462
C9    C     C_R   0.958908 0.909911 0.653320 -0.128586
C10   C     C_R   0.245741 0.071009 0.531528 -0.139465
C11   C     C_R   0.160919 0.204064 0.717991 -0.122367
C12   C     C_R   0.759228 0.924575 0.496360 -0.262420
C13   C     C_R   0.003752 0.765731 0.437221 -0.147445
C14   C     C_R   0.242062 0.236473 0.726838 0.032919
C15   C     C_R   0.951358 0.711457 0.456301 0.088295
C16   C     C_R   0.252220 0.998655 0.515591 0.079319
C17   C     C_R   0.010308 0.976147 0.725814 0.023905
C18   C     C_R   0.948691 0.580767 0.378918 -0.265120
C19   C     C_R   0.921296 0.619743 0.427679 0.112447
C20   C     C_R   0.869244 0.571615 0.452525 -0.257651
C21   C     C_R   0.854299 0.489387 0.437951 0.141814
C22   C     C_R   0.891615 0.455111 0.397746 0.027500
C23   C     C_R   0.842477 0.778486 0.288292 0.040705
C24   C     C_R   0.935850 0.499460 0.365232 0.141512
C25   C     C_R   0.809267 0.444090 0.469039 -0.199933
C26   C     C_R   0.808662 0.369594 0.467268 -0.208334
C27   C     C_R   0.853963 0.340710 0.435250 0.125514
C28   C     C_R   0.892022 0.380931 0.396906 0.030125
C29   C     C_R   0.937977 0.352347 0.364855 0.139792
C30   C     C_R   0.974640 0.392062 0.325881 -0.208132
C31   C     C_R   0.973232 0.465239 0.325755 -0.207500
C32   C     C_R   0.869321 0.278432 0.448151 -0.276018
C33   C     C_R   0.926421 0.260129 0.427542 0.126029
C34   C     C_R   0.950118 0.195225 0.519549 -0.134148
C35   C     C_R   0.954168 0.291092 0.379717 -0.258483
C36   C     C_R   0.368831 0.983600 0.578137 -0.268597
C37   C     C_R   0.325887 0.998054 0.520772 0.099623
C38   C     C_R   0.352070 0.011984 0.466726 -0.257159
C39   C     C_R   0.423773 0.011693 0.469404 0.128828
C40   C     C_R   0.469000 0.997578 0.527310 0.031753
C41   C     C_R   0.441357 0.983438 0.582043 0.145359
C42   C     C_R   0.450299 0.025153 0.415028 -0.276614
C43   C     C_R   0.522902 0.025317 0.417267 0.003744
C44   C     C_R   0.568369 0.010672 0.474871 0.066366
C45   C     C_R   0.767777 0.776004 0.354096 -0.134672
C46   C     C_R   0.541221 0.996997 0.530143 0.018304
C47   C     C_R   0.586004 0.981883 0.587948 0.133679
C48   C     C_R   0.558637 0.968447 0.642160 -0.202624
C49   C     C_R   0.486291 0.969216 0.639204 -0.205709
C50   C     C_R   0.639438 0.007452 0.478166 -0.253983
C51   C     C_R   0.682478 0.992938 0.535366 0.170203
C52   C     C_R   0.657413 0.980225 0.590186 -0.218274
C53   C     C_R   0.316841 0.277808 0.799402 0.144889
C54   C     C_R   0.314407 0.313624 0.868621 -0.201084
C55   C     C_R   0.380993 0.342563 0.937502 -0.157802
C56   C     C_R   0.026751 0.201771 0.455010 -0.123625
C57   C     C_R   0.451435 0.335849 0.938614 0.226841
C58   C     C_R   0.455050 0.302445 0.869642 -0.190125
C59   C     C_R   0.388119 0.273123 0.800479 -0.169793
C60   C     C_R   0.671100 0.496262 0.166201 -0.169893
C61   C     C_R   0.730294 0.580987 0.214627 -0.166227
C62   C     C_R   0.621188 0.613361 0.220111 -0.183466
C63   C     C_R   0.562308 0.528414 0.173526 -0.180712
C64   C     C_R   0.586666 0.470378 0.143661 0.225942
C65   C     C_2   0.526125 0.374855 0.010910 -0.220879
C66   C     C_2   0.522380 0.389753 0.077912 -0.238149
C67   C     C_R   0.829059 0.065115 0.563567 0.689381
C68   C     C_R   0.705194 0.640850 0.238382 0.134002
C69   C     C_R   0.103991 0.031557 0.237224 0.144182
C70   C     C_R   0.122420 0.968442 0.205433 -0.192659
C71   C     C_R   0.158682 0.973841 0.155712 -0.165070
C72   C     C_R   0.175677 0.041791 0.136099 0.229441
C73   C     C_R   0.163255 0.108011 0.172572 -0.182746
C74   C     C_R   0.127584 0.102936 0.222793 -0.179305
C75   C     C_R   0.170869 0.032212 0.916729 -0.161261
C76   C     C_R   0.131977 0.035876 0.849712 -0.186861
C77   C     C_R   0.014630 0.897654 0.805206 -0.173650
C78   C     C_R   0.014841 0.950145 0.289017 -0.134957
C79   C     C_R   0.053152 0.894389 0.872666 -0.180748
C80   C     C_R   0.129784 0.963213 0.930321 0.225847
C81   C     C_2   0.193359 0.039730 0.069978 -0.223134
C82   C     C_2   0.157371 0.966320 0.007044 -0.222910
C83   C     C_R   0.052362 0.969926 0.794686 0.144948
C84   C     C_R   0.062539 0.024331 0.287112 0.036081
H1    H     H_    0.133437 0.154417 0.377820 0.094277
H2    H     H_    0.872105 0.731526 0.510797 0.087162
H3    H     H_    0.159890 0.863642 0.440636 0.101072
H4    H     H_    0.059761 0.113176 0.765197 0.094450
H5    H     H_    0.936639 0.843194 0.637437 0.099598
H6    H     H_    0.295767 0.135216 0.557003 0.097571
H7    H     H_    0.141643 0.220946 0.761950 0.091150
H8    H     H_    0.032175 0.749686 0.401270 0.080893
H9    H     H_    0.985257 0.614940 0.355737 0.119954
H10   H     H_    0.845187 0.599512 0.487932 0.116919
H11   H     H_    0.778881 0.468882 0.498721 0.129905
H12   H     H_    0.713450 0.858318 0.471759 0.142841
H13   H     H_    0.777868 0.338112 0.495687 0.135562
H14   H     H_    0.842640 0.250853 0.480621 0.130079
H15   H     H_    0.994709 0.274156 0.359957 0.117363
H16   H     H_    0.008897 0.369844 0.299859 0.129410
H17   H     H_    0.006254 0.498162 0.299419 0.129539
H18   H     H_    0.345818 0.972866 0.619131 0.133112
H19   H     H_    0.316076 0.022680 0.422640 0.133495
H20   H     H_    0.414668 0.036061 0.370974 0.142476
H21   H     H_    0.662244 0.015828 0.436567 0.135740
H22   H     H_    0.693423 0.969248 0.633925 0.128177
H23   H     H_    0.592971 0.957055 0.686477 0.131924
H24   H     H_    0.465349 0.958474 0.681252 0.132451
H25   H     H_    0.261157 0.319506 0.869917 0.116035
H26   H     H_    0.795220 0.599574 0.232288 0.138348
H27   H     H_    0.600896 0.658180 0.239821 0.120824
H28   H     H_    0.463197 0.358647 0.079063 0.131524
H29   H     H_    0.509677 0.298910 0.869354 0.118785
H30   H     H_    0.690702 0.451703 0.144014 0.124264
H31   H     H_    0.391586 0.244812 0.748064 0.115816
H32   H     H_    0.906726 0.199844 0.541347 0.161130
H33   H     H_    0.585541 0.406238 0.010068 0.138963
H34   H     H_    0.377783 0.372523 0.989593 0.110703
H35   H     H_    0.497173 0.509245 0.156118 0.111730
H36   H     H_    0.108448 0.914578 0.218465 0.117279
H37   H     H_    0.163998 0.090718 0.841332 0.122449
H38   H     H_    0.953878 0.845403 0.762895 0.113083
H39   H     H_    0.128423 0.906614 0.009873 0.130249
H40   H     H_    0.176345 0.161259 0.158601 0.112246
H41   H     H_    0.231565 0.084699 0.958719 0.115548
H42   H     H_    0.115347 0.153073 0.247906 0.113483
H43   H     H_    0.725050 0.751815 0.376982 0.102823
H44   H     H_    0.216999 0.099357 0.066001 0.129239
H45   H     H_    0.170694 0.923486 0.130862 0.112235
H46   H     H_    0.020563 0.840297 0.881747 0.113360
H47   H     H_    0.053417 0.212224 0.416571 0.095565
H48   H     H_    0.997680 0.888525 0.249476 0.126023
H49   H     H_    0.289028 0.228714 0.639970 0.089048
N1    N     N_R   0.052580 0.056040 0.395500 -0.038279
N2    N     N_R   0.954640 0.834860 0.500130 -0.037580
N3    N     N_R   0.122510 0.958490 0.460420 -0.043861
N4    N     N_R   0.990180 0.030970 0.644220 -0.040824
N5    N     N_R   0.947420 0.943960 0.604500 -0.041352
N6    N     N_R   0.165270 0.045500 0.500140 -0.039993
N7    N     N_R   0.109790 0.150600 0.644220 -0.037691
N8    N     N_R   0.002890 0.838860 0.460420 -0.041969
N9    N     N_R   0.834730 0.954500 0.499860 -0.068672
N10   N     N_R   0.890210 0.849400 0.355780 -0.059282
N11   N     N_R   0.997110 0.161140 0.539580 -0.040546
N12   N     N_R   0.841950 0.845400 0.395490 -0.042082
N13   N     N_R   0.045360 0.165140 0.499870 -0.045170
N14   N     N_R   0.877490 0.041510 0.539580 -0.109504
N15   N     N_R   0.009820 0.969030 0.355780 -0.042281
N16   N     N_R   0.158050 0.154600 0.604510 -0.040221
Ni1   Ni    Ni4+2 0.104370 0.104380 0.500010 0.209893
Ni2   Ni    Ni4+2 0.895630 0.895620 0.499990 0.201818
Ni3   Ni    Ni4+2 0.006300 0.904810 0.408930 0.203979
Ni4   Ni    Ni4+2 0.993700 0.095190 0.591070 0.264069
C85   C     C_R   0.548427 0.040099 0.358251 0.143905
C86   C     C_R   0.620382 0.114366 0.378234 -0.170048
C87   C     C_R   0.642772 0.128615 0.321778 -0.111068
C88   C     C_R   0.593666 0.069140 0.245329 -0.082361
C89   C     C_R   0.521781 0.995395 0.225057 -0.111852
C90   C     C_R   0.498953 0.980972 0.281224 -0.158670
H50   H     H_    0.658724 0.161115 0.437269 0.119743
H51   H     H_    0.697898 0.185868 0.337057 0.128236
H52   H     H_    0.611165 0.080358 0.201780 0.105959
H53   H     H_    0.483624 0.949510 0.165794 0.110672
H54   H     H_    0.442951 0.923721 0.264821 0.112807
C91   C     C_R   0.869905 0.748031 0.230458 0.099288
C92   C     C_R   0.946561 0.749989 0.251544 -0.196376
C93   C     C_R   0.968998 0.715790 0.196007 -0.140527
C94   C     C_R   0.914813 0.679032 0.118707 -0.082271
C95   C     C_R   0.838421 0.677012 0.096916 -0.109918
C96   C     C_R   0.815977 0.711279 0.152418 -0.141470
H55   H     H_    0.990877 0.782387 0.310330 0.118185
H56   H     H_    0.028866 0.718830 0.212948 0.109310
H57   H     H_    0.932265 0.652712 0.075726 0.101318
H58   H     H_    0.796462 0.648685 0.037012 0.108559
H59   H     H_    0.756259 0.708655 0.134548 0.115986
F1    F     F_    0.854813 0.142452 0.618257 -0.724238

loop_
_geom_bond_atom_site_label_1
_geom_bond_atom_site_label_2
_ccdc_geom_bond_type
C40   C41   A    
C91   C92   A    
C73   C74   A    
C60   H30   S    
C19   C20   A    
C43   C44   A    
C2    C12   A    
C81   C82   D    
C53   C59   A    
C53   C54   A    
C1    C84   A    
C15   C19   S    
C34   N11   A    
C26   C27   A    
C37   C38   A    
C45   N12   A    
C76   H37   S    
C31   H17   S    
C36   C37   A    
C38   C39   A    
C11   C14   A    
C48   H23   S    
C77   C83   A    
C34   H32   S    
N1    Ni1   S    
C30   H16   S    
C5    N16   A    
C36   H18   S    
C18   C19   A    
C95   C96   A    
N11   Ni4   S    
C78   H48   S    
C20   H10   S    
C77   H38   S    
C6    C15   A    
N13   Ni1   S    
C3    C23   A    
C88   C89   A    
C7    H3    S    
C62   H27   S    
C3    C68   S    
C70   H36   S    
C50   H21   S    
C95   H58   S    
C89   C90   A    
C11   N7    A    
C70   C71   A    
C13   N8    A    
C39   C42   A    
C43   C85   S    
C5    C14   A    
C75   C80   A    
C67   F1    S    
C72   C81   S    
C78   N15   A    
N7    Ni4   S    
C86   H50   S    
C52   H22   S    
C92   H55   S    
C23   C91   S    
C21   C22   A    
C4    C56   A    
C23   N10   A    
C36   C41   A    
N3    N6    A    
C35   H15   S    
C61   H26   S    
C76   C83   A    
C41   C49   A    
N3    Ni3   S    
C44   C46   A    
C49   H24   S    
C12   H12   S    
C96   H59   S    
C77   C79   A    
C58   H29   S    
C1    H1    S    
C94   H57   S    
C4    C34   A    
C51   C52   A    
N11   N13   A    
C2    C67   A    
C9    H5    S    
C39   C40   A    
C58   C59   A    
C79   H46   S    
C3    C45   A    
C63   C64   A    
C54   H25   S    
C60   C61   A    
C8    H4    S    
C64   C66   S    
N9    Ni2   S    
C47   C52   A    
C40   C46   A    
C75   C76   A    
C38   H19   S    
C78   C84   A    
C71   H45   S    
C63   H35   S    
C9    N5    A    
C75   H41   S    
C47   C48   A    
C12   N9    A    
N2    N8    A    
C30   C31   A    
C73   H40   S    
C62   C63   A    
C50   C51   A    
C5    H49   S    
N4    Ni4   S    
C69   C74   A    
C46   C47   A    
C85   C86   A    
N12   Ni2   S    
C89   H53   S    
C9    C17   A    
C94   C95   A    
C87   H51   S    
C25   H11   S    
C13   C15   A    
C13   H8    S    
C67   N14   A    
C92   C93   A    
C18   C24   A    
C6    N2    A    
C42   C43   A    
C1    N1    A    
C28   C29   A    
C82   H39   S    
C93   C94   A    
C85   C90   A    
C44   C50   A    
C91   C96   A    
N10   N12   A    
C4    C33   S    
C21   C25   A    
C54   C55   A    
C48   C49   A    
C27   C32   A    
N9    N14   A    
C7    C16   A    
N15   Ni3   S    
C16   C37   S    
C57   C65   S    
C72   C73   A    
C42   H20   S    
C93   H56   S    
N5    Ni2   S    
N1    N15   A    
N4    N5    A    
C29   C35   A    
N6    Ni1   S    
C8    C17   A    
C6    H2    S    
C62   C68   A    
C60   C64   A    
C66   H28   S    
C32   C33   A    
C55   C57   A    
C25   C26   A    
C24   C31   A    
C7    N3    A    
C81   H44   S    
C69   C84   S    
C10   C16   A    
N16   Ni1   S    
C61   C68   A    
C57   C58   A    
C74   H42   S    
C45   H43   S    
N2    Ni2   S    
C88   H52   S    
C33   C35   A    
C80   C82   S    
C32   H14   S    
C22   C24   A    
C56   N13   A    
C69   C70   A    
N14   Ni4   S    
C56   H47   S    
C2    C51   S    
C26   H13   S    
C29   C30   A    
C79   C80   A    
C11   H7    S    
C71   C72   A    
C14   C53   S    
C87   C88   A    
C20   C21   A    
C10   H6    S    
C59   H31   S    
C65   C66   D    
C10   N6    A    
C86   C87   A    
C18   H9    S    
C65   H33   S    
C90   H54   S    
C8    N4    A    
C22   C28   A    
C17   C83   S    
N7    N16   A    
N10   Ni3   S    
N8    Ni3   S    
C27   C28   A    
C55   H34   S    
