data_mof_unit_48444.cif
_audit_creation_date              2012-12-10T20:31:56-0500
_audit_creation_method            fapswitch 2.2
_symmetry_space_group_name_H-M    P1
_symmetry_Int_Tables_number       1
_space_group_crystal_system       triclinic
_cell_length_a                    9.891038
_cell_length_b                    10.673426
_cell_length_c                    15.428972
_cell_angle_alpha                 90.065454
_cell_angle_beta                  68.056305
_cell_angle_gamma                 90.030107
_cell_volume                      1510.84693398

loop_
_atom_site_label
_atom_site_type_symbol
_atom_type_description
_atom_site_fract_x
_atom_site_fract_y
_atom_site_fract_z
_atom_type_partial_charge
C1    C     C_R   0.501509 0.739947 0.497322 0.877638
C2    C     C_R   0.694318 0.620653 0.046463 0.175651
C3    C     C_R   0.563245 0.555087 0.095033 0.096507
C4    C     C_R   0.408256 0.501528 0.676007 0.882016
C5    C     C_R   0.799576 0.635239 0.086731 -0.186519
C6    C     C_R   0.773149 0.588500 0.176097 -0.196749
C7    C     C_R   0.547100 0.498040 0.179571 -0.234275
C8    C     C_R   0.384863 0.936013 0.486418 0.144340
C9    C     C_R   0.508941 0.871365 0.482969 -0.105002
C10   C     C_R   0.641350 0.935203 0.462005 -0.224919
C11   C     C_R   0.641346 0.064783 0.461974 -0.219296
C12   C     C_R   0.387275 0.552396 0.920253 0.087349
C13   C     C_R   0.508925 0.128559 0.482924 -0.106408
C14   C     C_R   0.384855 0.063760 0.486380 0.126144
C15   C     C_3   0.231828 0.070924 0.556083 -0.470912
C16   C     C_R   0.501531 0.260039 0.497290 0.882717
C17   C     C_3   0.231856 0.928857 0.556136 -0.488240
C18   C     C_R   0.896516 0.578717 0.557579 0.170614
C19   C     C_R   0.963901 0.428815 0.438385 -0.137729
C20   C     C_R   0.107448 0.428082 0.438838 -0.126367
C21   C     C_R   0.040340 0.582354 0.554885 0.190484
C22   C     C_3   0.993171 0.592839 0.657950 -0.541406
C23   C     C_R   0.250883 0.495205 0.972463 0.113824
C24   C     C_3   0.837784 0.580339 0.662483 -0.266209
C25   C     C_R   0.590997 0.501232 0.323916 0.859682
C26   C     C_R   0.346789 0.507560 0.777748 -0.076166
C27   C     C_R   0.644294 0.522378 0.223386 -0.055558
C28   C     C_R   0.159962 0.451918 0.926293 0.004758
C29   C     C_R   0.209759 0.457019 0.829011 -0.245636
C30   C     C_R   0.429256 0.561556 0.823366 -0.252652
C31   C     C_1   0.773115 0.459903 0.704843 0.285759
C32   C     C_1   0.020916 0.392488 0.975640 0.139795
C33   C     C_R   0.484450 0.586728 0.964663 0.082577
C34   C     C_R   0.452922 0.546818 0.057458 0.073083
C35   C     C_R   0.311465 0.501763 0.110175 -0.231512
C36   C     C_R   0.211609 0.478418 0.068634 -0.236745
C37   C     C_R   0.614337 0.655405 0.918753 -0.221520
C38   C     C_R   0.717024 0.672423 0.959387 -0.229795
H1    H     H_    0.741968 0.886133 0.451945 0.170603
H2    H     H_    0.017466 0.687058 0.679309 0.187101
H3    H     H_    0.769430 0.663862 0.692102 0.136683
H4    H     H_    0.849584 0.608540 0.209471 0.153835
H5    H     H_    0.815221 0.725239 0.922012 0.148001
H6    H     H_    0.144350 0.416875 0.793131 0.153835
H7    H     H_    0.274069 0.485141 0.184424 0.146228
H8    H     H_    0.637567 0.700621 0.852439 0.138561
H9    H     H_    0.106055 0.441045 0.111785 0.158391
H10   H     H_    0.899507 0.686412 0.050572 0.139157
H11   H     H_    0.455676 0.437556 0.215068 0.142566
H12   H     H_    0.741974 0.113929 0.451879 0.169682
H13   H     H_    0.530649 0.603569 0.780540 0.139630
H14   H     H_    0.224666 0.112475 0.623816 0.205174
H15   H     H_    0.156160 0.111871 0.525602 0.206665
H16   H     H_    0.224745 0.887607 0.623884 0.199554
H17   H     H_    0.156153 0.887608 0.525735 0.205066
H18   H     H_    0.937970 0.369473 0.389841 0.140550
H19   H     H_    0.189336 0.367708 0.390883 0.140964
H20   H     H_    0.032460 0.513622 0.689058 0.217843
N1    N     N_R   0.856900 0.500860 0.500610 -0.105595
N2    N     N_R   0.142540 0.500820 0.500610 -0.097924
N3    N     N_1   0.722856 0.365340 0.738151 -0.202554
N4    N     N_1   0.909786 0.344543 0.014905 -0.192939
O1    O     O_R   0.385310 0.683210 0.499990 -0.608487
O2    O     O_R   0.614650 0.683240 0.500000 -0.625623
O3    O     O_R   0.319830 0.499970 0.632240 -0.620578
O4    O     O_R   0.549170 0.500000 0.632250 -0.604935
O5    O     O_R   0.385350 0.316760 0.500000 -0.616955
O6    O     O_R   0.614690 0.316790 0.500010 -0.614664
O7    O     O_R   0.450830 0.500000 0.367750 -0.615836
O8    O     O_R   0.680170 0.500030 0.367760 -0.619259
Zn1   Zn    Zn3+2 0.346870 0.499980 0.499990 0.939661
Zn2   Zn    Zn3+2 0.653130 0.500020 0.500010 0.946278

loop_
_geom_bond_atom_site_label_1
_geom_bond_atom_site_label_2
_ccdc_geom_bond_type
C19   H18   S    
C22   H20   S    
C4    C26   S    
C30   H13   S    
C15   C17   S    
C37   C38   A    
C16   O6    A    
C31   N3    T    
C20   H19   S    
C20   N2    A    
C18   C21   A    
C9    C10   A    
C2    C38   A    
C25   O7    A    
O5    Zn1   S    
C8    C17   S    
N2    Zn1   S    
C6    C27   A    
N1    Zn2   S    
O6    Zn2   S    
C22   H2    S    
C15   H14   S    
C33   C34   A    
C37   H8    S    
C24   C31   S    
C32   N4    T    
C38   H5    S    
C11   H12   S    
O3    Zn1   S    
C13   C14   A    
C4    O4    A    
C24   H3    S    
C11   C13   A    
C12   C23   A    
C21   N2    A    
C4    O3    A    
C35   C36   A    
C36   H9    S    
C18   C24   S    
C15   H15   S    
C21   C22   S    
C28   C29   A    
O1    Zn1   S    
C23   C36   A    
C3    C7    A    
O2    Zn2   S    
C29   H6    S    
C5    C6    A    
C5    H10   S    
C22   C24   S    
C2    C5    A    
C25   C27   S    
C10   C11   A    
C35   H7    S    
C1    O2    A    
C1    O1    A    
C18   N1    A    
C28   C32   S    
C7    C27   A    
C7    H11   S    
C26   C29   A    
O7    Zn1   S    
C34   C35   A    
C6    H4    S    
C13   C16   S    
C16   O5    A    
C17   H17   S    
C14   C15   S    
C8    C9    A    
C2    C3    A    
C25   O8    A    
C8    C14   A    
C3    C34   A    
C19   N1    A    
C12   C33   A    
C23   C28   A    
C12   C30   A    
C17   H16   S    
O8    Zn2   S    
C33   C37   A    
C1    C9    S    
C19   C20   A    
O4    Zn2   S    
C10   H1    S    
C26   C30   A    
