data_mof_unit_38796.cif
_audit_creation_date              2013-03-05T16:11:57-0500
_audit_creation_method            fapswitch 2.2
_symmetry_space_group_name_H-M    P1
_symmetry_Int_Tables_number       1
_space_group_crystal_system       triclinic
_cell_length_a                    8.495009
_cell_length_b                    16.138582
_cell_length_c                    22.888103
_cell_angle_alpha                 106.821229
_cell_angle_beta                  88.821129
_cell_angle_gamma                 83.681877
_cell_volume                      2980.85754308

loop_
_atom_site_label
_atom_site_type_symbol
_atom_site_description
_atom_site_fract_x
_atom_site_fract_y
_atom_site_fract_z
_atom_type_partial_charge
P1    P     P_3+3 0.594550 0.425840 0.359090 0.537676
O1    O     O_2   0.414630 0.451750 0.353890 -0.342209
O2    O     O_3   0.654720 0.452660 0.425060 -0.338255
O3    O     O_3   0.116150 0.611500 0.411510 -0.382121
O4    O     O_2   0.269957 0.557155 0.300988 -0.399838
O5    O     O_3   0.588153 0.312458 0.336193 -0.514523
O6    O     O_3   0.080782 0.702150 0.324264 -0.566108
H1    H     H_    0.875974 0.718759 0.382726 0.051490
C1    C     C_3   0.939477 0.841362 0.378583 -1.013859
H2    H     H_    0.006068 0.849243 0.420546 0.235230
H3    H     H_    0.000151 0.870785 0.347479 0.295326
P2    P     P_3+3 0.065650 0.701630 0.573510 0.510128
P3    P     P_3+3 0.507987 0.770084 0.466187 0.470170
O7    O     O_2   0.236590 0.714510 0.558180 -0.361452
O8    O     O_3   0.511480 0.656670 0.446630 -0.362519
O9    O     O_2   0.351548 0.814653 0.503498 -0.417916
O10   O     O_3   0.049073 0.732866 0.653790 -0.559345
O11   O     O_3   0.503910 0.802867 0.399700 -0.579754
C2    C     C_3   0.372312 0.775958 0.366998 0.520337
H4    H     H_    0.263700 0.788627 0.397372 0.123773
H5    H     H_    0.396055 0.705305 0.342418 0.161291
C3    C     C_3   0.345139 0.827165 0.320833 -0.889564
H6    H     H_    0.257609 0.798732 0.287901 0.270570
H7    H     H_    0.299855 0.896089 0.345018 0.248782
C4    C     C_3   0.669815 0.738591 0.687943 0.659114
H8    H     H_    0.771168 0.707974 0.654840 0.031247
C5    C     C_3   0.723713 0.743699 0.753482 0.086454
H9    H     H_    0.721603 0.679079 0.761077 0.065140
H10   H     H_    0.847419 0.759392 0.755585 0.090233
Ba1   Ba    Ba6+2 0.335320 0.541410 0.478120 1.623798
C6    C     C_3   0.733955 0.266664 0.342106 0.206368
H11   H     H_    0.721473 0.240883 0.381721 0.157184
H12   H     H_    0.829780 0.308316 0.350880 0.036236
C7    C     C_3   0.781123 0.189601 0.284536 -0.023990
H13   H     H_    0.905704 0.163224 0.288322 0.116119
C8    C     C_3   0.153166 0.680589 0.679084 0.272284
H14   H     H_    0.264799 0.655392 0.650728 0.107087
C9    C     C_3   0.070164 0.605612 0.686840 -0.948101
H15   H     H_    0.953935 0.628360 0.709909 0.231022
H16   H     H_    0.132920 0.573039 0.717301 0.226537
H17   H     H_    0.057958 0.558764 0.641640 0.304672
P4    P     P_3+3 0.595130 0.574230 0.640920 0.469190
O12   O     O_2   0.775060 0.548280 0.646150 -0.425383
O13   O     O_3   0.534950 0.547420 0.574950 -0.364813
O14   O     O_3   0.073530 0.388570 0.588510 -0.353120
O15   O     O_3   0.542602 0.689039 0.671754 -0.629059
P5    P     P_3+3 0.697588 0.228158 0.532143 0.489706
O16   O     O_3   0.168220 0.394330 0.455930 -0.406899
O17   O     O_3   0.678190 0.343400 0.553390 -0.356850
O18   O     O_2   0.865599 0.191842 0.502346 -0.418194
O19   O     O_3   0.694801 0.195457 0.598922 -0.593843
Ba2   Ba    Ba6+2 0.854470 0.458670 0.521900 1.615713
P6    P     P_3+3 0.104491 0.596906 0.332428 0.420704
C10   C     C_3   0.928326 0.744875 0.347617 0.351680
H18   H     H_    0.818909 0.877203 0.391378 0.251010
O20   O     O_3   0.021450 0.605740 0.544090 -0.394548
C11   C     C_3   0.125747 0.339777 0.319411 0.374325
H19   H     H_    0.005080 0.357876 0.306936 0.001670
H20   H     H_    0.161759 0.396855 0.353903 0.148377
C12   C     C_3   0.231517 0.319955 0.261408 -0.754734
H21   H     H_    0.191637 0.265590 0.225083 0.271139
H22   H     H_    0.226528 0.378492 0.244984 0.207222
H23   H     H_    0.355525 0.300930 0.270332 0.294899
P7    P     P_3+3 0.130245 0.286126 0.418327 0.476148
O21   O     O_2   0.953100 0.285520 0.441860 -0.380691
O22   O     O_3   0.127823 0.264019 0.338336 -0.559592
H24   H     H_    0.457466 0.826016 0.294850 0.283183
C13   C     C_3   0.712485 0.263677 0.652279 0.198620
H25   H     H_    0.817813 0.294897 0.646605 0.186256
H26   H     H_    0.610160 0.315415 0.661545 0.135354
C14   C     C_3   0.726800 0.223997 0.706382 -0.057074
H27   H     H_    0.814798 0.165582 0.692654 0.106165
P8    P     P_3+3 0.107643 0.379389 0.661866 0.529346
C15   C     C_3   0.139774 0.206545 0.608778 0.297754
O23   O     O_2   0.965685 0.437136 0.702804 -0.356730
O24   O     O_3   0.084822 0.271910 0.664002 -0.503397
H28   H     H_    0.102828 0.227369 0.568459 0.095921
H29   H     H_    0.121597 0.068633 0.562011 0.168657
C16   C     C_3   0.070420 0.119741 0.603982 -0.761249
H30   H     H_    0.944112 0.127230 0.596693 0.231513
H31   H     H_    0.513403 0.300944 0.035322 0.237304
C17   C     C_R   0.839231 0.510964 0.331975 -0.430896
C18   C     C_R   0.583436 0.565041 0.947698 -0.086274
C19   C     C_R   0.531521 0.563953 0.888841 0.600445
O25   O     O_2   0.542091 0.627226 0.870591 -0.540773
N1    N     N_R   0.468000 0.492588 0.852169 -0.171078
C20   C     C_R   0.446669 0.423701 0.875745 0.689446
O26   O     O_2   0.395734 0.359808 0.843371 -0.484499
C21   C     C_R   0.489844 0.423979 0.935748 -0.239422
C22   C     C_R   0.564856 0.494720 0.970988 -0.027411
C23   C     C_R   0.654326 0.635701 0.983504 -0.194494
C24   C     C_R   0.708613 0.638517 0.041551 0.435389
C25   C     C_R   0.691677 0.567340 0.066090 -0.205981
C26   C     C_R   0.620483 0.495539 0.029821 -0.021041
C27   C     C_R   0.465324 0.354965 0.961479 0.562135
C28   C     C_R   0.528423 0.354923 0.017462 -0.197075
C29   C     C_R   0.605430 0.423835 0.052022 -0.098832
C30   C     C_R   0.664296 0.422231 0.109133 0.570023
N2    N     N_R   0.725855 0.493601 0.146673 -0.176033
C31   C     C_R   0.739996 0.565271 0.125434 0.567254
C32   C     C_2   0.304208 0.448637 0.762489 -0.219214
C33   C     C_3   0.302509 0.415932 0.693673 0.330332
C34   C     C_1   0.498274 0.516413 0.689417 0.217784
C35   C     C_2   0.537441 0.518757 0.746370 -0.105612
C36   C     C_2   0.430739 0.487503 0.788216 0.161284
C37   C     C_R   0.911825 0.526252 0.233122 -0.178592
C38   C     C_R   0.943272 0.536590 0.294986 0.168322
C39   C     C_R   0.706228 0.472544 0.308630 0.216274
C40   C     C_R   0.668570 0.466256 0.247877 -0.158687
C41   C     C_R   0.769840 0.494432 0.208933 0.126335
O27   O     O_2   0.661675 0.356437 0.125161 -0.564434
O28   O     O_2   0.792359 0.628085 0.158750 -0.506060
C42   C     C_2   0.379839 0.475052 0.664302 -0.350092
H32   H     H_    0.994270 0.546772 0.205001 0.178380
H33   H     H_    0.668215 0.689775 0.965625 0.237731
H34   H     H_    0.649488 0.540602 0.762096 0.179034
H35   H     H_    0.216130 0.429804 0.789551 0.220969
H36   H     H_    0.559994 0.440589 0.231579 0.179987
H37   H     H_    0.865098 0.519024 0.379277 0.155315
H38   H     H_    0.309459 0.503838 0.635599 0.128082
C43   C     C_2   0.415157 0.232823 0.471765 -0.456789
C44   C     C_R   0.796394 0.750122 0.518715 -0.435294
C45   C     C_2   0.254515 0.118912 0.421946 -0.195801
C46   C     C_2   0.272809 0.203728 0.439115 0.214265
C47   C     C_2   0.537015 0.179047 0.481773 0.155518
C48   C     C_3   0.538375 0.082443 0.450385 0.166487
C49   C     C_3   0.370585 0.053630 0.439456 0.006873
C50   C     C_2   0.650282 0.024204 0.475829 -0.195859
C51   C     C_2   0.602958 0.961763 0.497867 -0.095859
C52   C     C_R   0.861243 0.921500 0.537752 0.094844
C53   C     C_R   0.716659 0.897204 0.514202 -0.017559
C54   C     C_R   0.971978 0.860997 0.551934 -0.192331
C55   C     C_R   0.938758 0.775580 0.542967 0.319264
C56   C     C_R   0.684559 0.810277 0.504525 0.331587
H39   H     H_    0.151352 0.096793 0.397701 0.162055
H40   H     H_    0.081339 0.881307 0.571356 0.191173
H41   H     H_    0.770652 0.683921 0.512166 0.170536
H42   H     H_    0.775918 0.029713 0.471475 0.172889
H43   H     H_    0.478016 0.954686 0.500838 0.195967
S1    S     S_3+6 0.623835 0.823056 0.819219 0.098523
O29   O     O_2   0.448211 0.835087 0.813165 -0.211989
O30   O     O_2   0.657057 0.792983 0.874520 -0.218297
O31   O     O_3   0.696299 0.918722 0.828711 -0.415689
H44   H     H_    0.636806 0.959243 0.865432 0.397048
S2    S     S_3+6 0.663386 0.102485 0.280142 0.029777
O32   O     O_2   0.713597 0.058153 0.327292 -0.278406
O33   O     O_2   0.689403 0.036757 0.217935 -0.197579
O34   O     O_3   0.469684 0.140966 0.293480 -0.487408
H45   H     H_    0.430191 0.140175 0.252933 0.379591
C57   C     C_2   0.773671 0.217278 0.227054 1.047105
O35   O     O_2   0.646375 0.243186 0.210554 -0.581162
O36   O     O_R   0.913325 0.212191 0.192245 -0.795329
H46   H     H_    0.894115 0.232858 0.154892 0.365266
C58   C     C_2   0.192606 0.733683 0.741654 1.058838
O37   O     O_2   0.148139 0.811967 0.760126 -0.524109
O38   O     O_R   0.274130 0.691768 0.779706 -0.800299
H47   H     H_    0.271216 0.729546 0.823677 0.384944
C59   C     C_2   0.819088 0.736844 0.296120 1.082531
O39   O     O_2   0.845484 0.769642 0.255544 -0.482290
O40   O     O_R   0.687744 0.691612 0.294929 -0.840960
H48   H     H_    0.622386 0.690110 0.258211 0.341886
S3    S     S_3+6 0.796990 0.293931 0.774687 0.019071
O41   O     O_2   0.722662 0.278491 0.830190 -0.254473
O42   O     O_2   0.756680 0.387823 0.777848 -0.290277
O43   O     O_3   0.994691 0.272930 0.776475 -0.425861
H49   H     H_    0.011521 0.223391 0.793915 0.388321
C60   C     C_2   0.572578 0.194931 0.720942 1.161185
O44   O     O_2   0.568381 0.120106 0.722565 -0.513837
O45   O     O_R   0.434808 0.253815 0.733066 -0.758018
H50   H     H_    0.340948 0.229421 0.746911 0.402748
C61   C     C_2   0.316192 0.188583 0.604946 0.955834
O46   O     O_2   0.393138 0.248177 0.607075 -0.660144
O47   O     O_R   0.391400 0.104393 0.598403 -0.795736
H51   H     H_    0.510202 0.100163 0.599925 0.364390
C62   C     C_2   0.093338 0.084058 0.657950 1.219723
O48   O     O_2   0.185978 0.112142 0.696798 -0.573553
O49   O     O_R   0.005734 0.018091 0.663337 -0.783603
H52   H     H_    0.030041 0.998967 0.700995 0.370326
S4    S     S_3+6 0.350061 0.268784 0.928764 0.040959
O50   O     O_2   0.193119 0.305745 0.911900 -0.236377
O51   O     O_2   0.437694 0.206874 0.872566 -0.181083
O52   O     O_3   0.315898 0.213157 0.978666 -0.523488
H53   H     H_    0.253062 0.166779 0.956539 0.399236
S5    S     S_3+6 0.797114 0.733317 0.079937 0.082617
O53   O     O_2   0.962728 0.706882 0.095290 -0.181357
O54   O     O_2   0.805702 0.793255 0.040735 -0.231697
O55   O     O_3   0.689288 0.787975 0.144789 -0.395057
H54   H     H_    0.580155 0.798238 0.131818 0.343621
C63   C     C_2   0.425792 0.323944 0.489962 1.177183
O56   O     O_2   0.496413 0.354253 0.456431 -0.568683
O57   O     O_R   0.352947 0.376299 0.544155 -0.770346
H55   H     H_    0.345692 0.438888 0.544543 0.335612
S6    S     S_3+6 0.615897 0.843964 0.676622 0.053310
O58   O     O_2   0.515005 0.907773 0.728248 -0.150310
O59   O     O_2   0.763455 0.882990 0.667417 -0.245900
O60   O     O_3   0.510419 0.829941 0.614265 -0.529815
H56   H     H_    0.399930 0.829806 0.628869 0.379108

loop_
_geom_bond_atom_site_label_1
_geom_bond_atom_site_label_2
_geom_bond_distance
_ccdc_geom_bond_type
C61   O46   1.211272 D    
O43   H49   0.990377 S    
C14   S3    1.799637 S    
O3    P6    1.762752 S    
C5    H10   1.106537 S    
O45   H50   1.010957 S    
C27   C28   1.399243 A    
S1    O31   1.682371 S    
C11   O22   1.408831 S    
C20   O26   1.211897 D    
C53   C56   1.413619 A    
P4    C34   1.873653 S    
S2    O32   1.502351 D    
C7    C57   1.507252 S    
C8    C58   1.506693 S    
C45   C46   1.337996 D    
C62   O49   1.396072 S    
O47   H51   1.006016 S    
C39   C40   1.410660 A    
C51   C53   1.475496 S    
C61   O47   1.401404 S    
C48   C49   1.550397 S    
C15   O24   1.422675 S    
P3    O11   1.749569 S    
C37   H32   1.081820 S    
C12   H23   1.104402 S    
Ba1   O16   2.825028 S    
O38   H47   1.012765 S    
C34   C42   1.318258 D    
S1    O30   1.502458 D    
C7    H13   1.111178 S    
P1    Ba1   3.414475 S    
C43   C63   1.421453 S    
C9    H15   1.084000 S    
C7    S2    1.794124 S    
O12   Ba2   2.821344 S    
C11   H20   1.102923 S    
C37   C38   1.411644 A    
O31   H44   0.990514 S    
S3    O43   1.680108 S    
P3    C56   1.838364 S    
C29   C30   1.415289 A    
S5    O53   1.503268 D    
O14   P8    1.754832 S    
P1    O1    1.555864 D    
P4    O15   1.782830 S    
C63   O57   1.371917 S    
C50   H42   1.085614 S    
O52   H53   0.990609 S    
C44   C56   1.393802 A    
C43   C46   1.483333 S    
C35   H34   1.083670 S    
C62   O48   1.220421 D    
C23   H33   1.081810 S    
C13   H25   1.097107 S    
S6    O59   1.500671 D    
C15   H28   1.109608 S    
P2    O10   1.757219 S    
C6    H12   1.097203 S    
P5    C47   1.895198 S    
C1    H18   1.108416 S    
O10   C8    1.403020 S    
C17   C39   1.390627 A    
C1    H2    1.107302 S    
C58   O38   1.399427 S    
S6    O58   1.500368 D    
S4    O52   1.682806 S    
P2    Ba1   3.453083 S    
S6    O60   1.673730 S    
O5    C6    1.400691 S    
C14   C60   1.501759 S    
C50   C51   1.344070 D    
C59   O40   1.395537 S    
P8    O23   1.549683 D    
Ba1   O13   2.804206 S    
P4    O13   1.559093 S    
C17   H37   1.082549 S    
O7    Ba1   2.885075 S    
P5    O17   1.768734 S    
C35   C36   1.529005 S    
S2    O33   1.504194 D    
C40   H36   1.081794 S    
C22   C26   1.433185 A    
P5    O18   1.546024 D    
S3    O42   1.496625 D    
C32   C36   1.362426 D    
O57   H55   1.002636 S    
C32   C33   1.510335 S    
C16   C62   1.514002 S    
C2    C3    1.525165 S    
C19   O25   1.220975 D    
C9    H17   1.105264 S    
C60   O45   1.392499 S    
C24   S5    1.783306 S    
H1    C10   1.115239 S    
C60   O44   1.223204 D    
H31   C28   1.081982 S    
H29   C16   1.112415 S    
O11   C2    1.397039 S    
C11   C12   1.521181 S    
P5    O19   1.755949 S    
C26   C29   1.408504 A    
C4    H8    1.105614 S    
P7    C46   1.869999 S    
N2    C41   1.477286 S    
Ba1   O20   2.963921 S    
P1    O5    1.758955 S    
C45   H39   1.085175 S    
C12   H21   1.109335 S    
P1    O2    1.559066 S    
P7    O22   1.762051 S    
C21   C27   1.434026 A    
O2    Ba1   2.981727 S    
C52   C54   1.391945 A    
C44   C55   1.394458 A    
C43   C47   1.343259 D    
C10   C59   1.500083 S    
C42   H38   1.066089 S    
P6    C38   1.848383 S    
C45   C49   1.508243 S    
C18   C19   1.421981 A    
C51   H43   1.082786 S    
C54   H40   1.080642 S    
O17   Ba2   2.750895 S    
C28   C29   1.400984 A    
C15   C61   1.490640 S    
C6    C7    1.537428 S    
C25   C26   1.419776 A    
C17   C38   1.386102 A    
O34   H45   0.990395 S    
C1    H3    1.110125 S    
C25   C31   1.435514 A    
C58   O37   1.223460 D    
P2    O20   1.588847 S    
C27   S4    1.783536 S    
P8    C33   1.906325 S    
P2    O7    1.537111 D    
C30   N2    1.384441 Am   
C15   C16   1.554661 S    
P3    O8    1.750636 S    
C47   C48   1.514710 S    
P8    O24   1.780841 S    
C57   O36   1.396701 S    
C16   H30   1.088229 S    
N1    C36   1.484867 S    
P4    O12   1.556183 D    
O6    P6    1.752227 S    
C23   C24   1.405256 A    
S2    O34   1.682630 S    
C4    S6    1.804817 S    
O8    Ba1   2.750142 S    
S3    O41   1.503138 D    
C37   C41   1.422792 A    
O4    P6    1.548518 D    
C18   C22   1.408226 A    
Ba1   Ba2   4.612963 S    
C8    H14   1.105874 S    
C48   C50   1.506387 S    
C30   O27   1.221844 D    
C2    H5    1.109413 S    
N1    C20   1.395523 Am   
C6    H11   1.109312 S    
C44   H41   1.082524 S    
C19   N1    1.384957 Am   
O60   H56   0.990291 S    
O2    Ba2   2.805026 S    
S5    O55   1.681891 S    
C31   O28   1.213592 D    
C4    C5    1.559367 S    
C18   C23   1.401888 A    
C5    S1    1.793581 S    
O14   Ba2   2.778280 S    
N2    C31   1.393621 Am   
O1    Ba1   2.820972 S    
P2    C55   1.818165 S    
C32   H35   1.084344 S    
O40   H48   1.012657 S    
C2    H4    1.107356 S    
C20   C21   1.427636 A    
C52   C53   1.401354 A    
O55   H54   0.990483 S    
C33   C42   1.511550 S    
C40   C41   1.424966 A    
P7    O21   1.589881 D    
C12   H22   1.110395 S    
C9    H16   1.101075 S    
O13   Ba2   2.982534 S    
C11   H19   1.100919 S    
C59   O39   1.222720 D    
C13   C14   1.551234 S    
S1    O29   1.497693 D    
C8    C9    1.516506 S    
C24   C25   1.436002 A    
S5    O54   1.503770 D    
C54   C55   1.395109 A    
C3    H7    1.110126 S    
O19   C13   1.411347 S    
C63   O56   1.204588 D    
C3    H24   1.109482 S    
O16   P7    1.777580 S    
P1    C39   1.848825 S    
S4    O50   1.503897 D    
O16   Ba2   2.963072 S    
C14   H27   1.100039 S    
O36   H46   1.013692 S    
C13   H26   1.108115 S    
O49   H52   1.013918 S    
P3    O9    1.549246 D    
C34   C35   1.342928 D    
C3    H6    1.108856 S    
C1    C10   1.527263 S    
O6    C10   1.414252 S    
S4    O51   1.503344 D    
C21   C22   1.417167 A    
C4    O15   1.407084 S    
O3    Ba1   2.778797 S    
Ba2   O21   2.885378 S    
Ba2   O20   2.824280 S    
P4    Ba2   3.414820 S    
C57   O35   1.222907 D    
C5    H9    1.107725 S    
