data_mof_unit_22876.cif
_audit_creation_date              2013-03-05T16:28:11-0500
_audit_creation_method            fapswitch 2.2
_symmetry_space_group_name_H-M    P1
_symmetry_Int_Tables_number       1
_space_group_crystal_system       triclinic
_cell_length_a                    17.236806
_cell_length_b                    18.160331
_cell_length_c                    19.390342
_cell_angle_alpha                 90.050603
_cell_angle_beta                  90.113078
_cell_angle_gamma                 84.841691
_cell_volume                      6045.08817759

loop_
_atom_site_label
_atom_site_type_symbol
_atom_site_description
_atom_site_fract_x
_atom_site_fract_y
_atom_site_fract_z
_atom_type_partial_charge
O1    O     O_R   0.500030 0.438020 0.599820 -0.583238
O2    O     O_R   0.499970 0.561980 0.400180 -0.584445
O3    O     O_R   0.500000 0.561930 0.599810 -0.583037
O4    O     O_R   0.500000 0.438070 0.400190 -0.585546
C1    C     C_R   0.499998 0.500015 0.632211 0.845085
C2    C     C_R   0.500044 0.499977 0.367905 0.842974
O5    O     O_R   0.613620 0.430860 0.500010 -0.588804
O6    O     O_R   0.386380 0.569140 0.499990 -0.588475
O7    O     O_R   0.613580 0.554770 0.500010 -0.587347
O8    O     O_R   0.386420 0.445230 0.499990 -0.587124
C3    C     C_R   0.650050 0.489600 0.499477 0.809154
C4    C     C_R   0.349957 0.510395 0.499363 0.809151
Cu1   Cu    Cu3+1 0.500020 0.426640 0.500000 0.937358
Cu2   Cu    Cu3+1 0.499980 0.573360 0.500000 0.937542
C5    C     C_R   0.734433 0.481457 0.495713 -0.062242
C6    C     C_R   0.265561 0.518487 0.495875 -0.062481
C7    C     C_R   0.772699 0.526153 0.450968 -0.331179
C8    C     C_R   0.226993 0.475135 0.449902 -0.326713
C9    C     C_R   0.853934 0.516453 0.444428 0.489983
C10   C     C_R   0.145707 0.484294 0.444413 0.486731
C11   C     C_R   0.896964 0.467690 0.490301 0.021972
C12   C     C_R   0.102932 0.531583 0.491582 0.020098
C13   C     C_R   0.857540 0.420557 0.532364 -0.244101
C14   C     C_R   0.142623 0.577609 0.534786 -0.242443
C15   C     C_R   0.776717 0.426709 0.534335 -0.204279
C16   C     C_R   0.223491 0.571714 0.536318 -0.204553
C17   C     C_2   0.982458 0.467174 0.498055 0.349853
C18   C     C_2   0.017456 0.531793 0.499150 0.347475
H1    H     H_    0.739259 0.567761 0.420487 0.140005
H2    H     H_    0.260083 0.435029 0.417583 0.142073
H3    H     H_    0.253191 0.606657 0.571043 0.145496
H4    H     H_    0.747266 0.390757 0.568104 0.146415
H5    H     H_    0.888852 0.380579 0.565724 0.159242
H6    H     H_    0.111523 0.616464 0.569305 0.159061
C19   C     C_R   0.557731 0.531969 0.256893 -0.340870
C20   C     C_R   0.550461 0.450480 0.743744 -0.302882
H7    H     H_    0.602683 0.557532 0.284907 0.141890
H8    H     H_    0.590994 0.411846 0.716364 0.164523
C21   C     C_R   0.559355 0.529221 0.184618 0.466595
C22   C     C_R   0.551989 0.451988 0.815658 0.447253
C23   C     C_R   0.497687 0.499879 0.148911 0.003542
C24   C     C_R   0.497166 0.500328 0.851736 -0.040933
C25   C     C_R   0.438026 0.468962 0.185975 0.447594
C26   C     C_R   0.443570 0.548827 0.814336 0.455913
C27   C     C_R   0.441032 0.466905 0.257800 -0.308792
C28   C     C_R   0.447180 0.550144 0.742519 -0.301709
H9    H     H_    0.396165 0.441608 0.286065 0.157830
H10   H     H_    0.407469 0.588760 0.714186 0.163904
C29   C     C_R   0.499528 0.499798 0.293070 -0.135109
C30   C     C_R   0.499261 0.500217 0.707264 -0.156921
C31   C     C_R   0.496361 0.433110 0.036487 0.327747
C32   C     C_R   0.502047 0.566502 0.964584 0.325087
C33   C     C_R   0.489756 0.433393 0.964569 0.348140
C34   C     C_R   0.497259 0.567149 0.036547 0.326003
C35   C     C_R   0.495727 0.500038 0.927931 -0.237346
C36   C     C_R   0.496695 0.500128 0.072837 -0.200590
C37   C     C_R   0.549647 0.274881 0.542374 0.057898
C38   C     C_R   0.450725 0.725162 0.542592 0.057979
H11   H     H_    0.588517 0.301876 0.575969 0.118769
H12   H     H_    0.412141 0.698203 0.576312 0.118886
C39   C     C_R   0.550629 0.197459 0.543218 -0.209718
C40   C     C_R   0.449760 0.802587 0.543456 -0.210088
H13   H     H_    0.589764 0.166057 0.578252 0.170674
H14   H     H_    0.410939 0.834019 0.578637 0.170564
C41   C     C_R   0.500470 0.161556 0.499727 0.151810
C42   C     C_R   0.499532 0.838448 0.499789 0.152408
C43   C     C_R   0.449598 0.205849 0.456820 -0.310429
C44   C     C_R   0.550038 0.794108 0.456711 -0.310784
H15   H     H_    0.410209 0.180868 0.422127 0.134529
H16   H     H_    0.589126 0.819047 0.421884 0.133697
C45   C     C_R   0.450364 0.283130 0.457667 0.097593
C46   C     C_R   0.549287 0.716828 0.457562 0.097618
H17   H     H_    0.411307 0.316572 0.424133 0.119612
H18   H     H_    0.588075 0.683353 0.423908 0.118363
N1    N     N_R   0.500010 0.316380 0.499980 -0.171037
N2    N     N_R   0.499990 0.683620 0.500020 -0.170841
C47   C     C_R   0.430216 0.045437 0.498735 -0.331421
C48   C     C_R   0.569770 0.954576 0.498420 -0.331437
H19   H     H_    0.375429 0.079680 0.499681 0.174505
H20   H     H_    0.624568 0.920340 0.499116 0.174548
C49   C     C_R   0.428749 0.967979 0.497536 0.450199
C50   C     C_R   0.571222 0.032031 0.497165 0.450372
C51   C     C_R   0.499094 0.921335 0.499018 -0.053267
C52   C     C_R   0.500895 0.078675 0.498968 -0.053211
O9    O     O_3   0.498628 0.366755 0.071625 -0.551286
C53   C     C_3   0.577249 0.338909 0.079622 0.090241
H21   H     H_    0.613050 0.381425 0.101732 0.119050
H22   H     H_    0.601952 0.320239 0.028855 0.172483
C54   C     C_3   0.581330 0.273099 0.128826 -0.317513
H23   H     H_    0.554963 0.291023 0.179090 0.228675
H24   H     H_    0.547504 0.229261 0.106902 0.228320
C55   C     C_3   0.665327 0.241550 0.140786 -0.946950
H25   H     H_    0.692656 0.222593 0.091262 0.260655
H26   H     H_    0.666265 0.193648 0.176433 0.259477
H27   H     H_    0.699677 0.284089 0.164252 0.253613
O10   O     O_3   0.508071 0.632632 0.930509 -0.540159
C56   C     C_3   0.587401 0.640773 0.917741 0.094904
H28   H     H_    0.609922 0.600954 0.877368 0.108643
H29   H     H_    0.623177 0.632055 0.965591 0.155819
C57   C     C_3   0.595086 0.718951 0.891328 -0.296792
H30   H     H_    0.559134 0.728722 0.843992 0.231541
H31   H     H_    0.573201 0.759651 0.931188 0.226056
C58   C     C_3   0.679620 0.730503 0.874622 -0.944959
H32   H     H_    0.716487 0.722093 0.921506 0.257846
H33   H     H_    0.683238 0.787777 0.855695 0.263661
H34   H     H_    0.702168 0.691241 0.833863 0.255918
O11   O     O_3   0.485250 0.366255 0.931273 -0.542997
C59   C     C_3   0.409155 0.360543 0.905418 0.089883
H35   H     H_    0.412014 0.311512 0.870927 0.173169
H36   H     H_    0.388324 0.408414 0.872736 0.097836
C60   C     C_3   0.350754 0.349046 0.963291 -0.339255
H37   H     H_    0.372439 0.300503 0.994975 0.257628
H38   H     H_    0.344463 0.398635 0.997031 0.222943
C61   C     C_3   0.270777 0.336564 0.934025 -0.956395
H39   H     H_    0.247583 0.385275 0.903261 0.251123
H40   H     H_    0.229844 0.328571 0.976956 0.262542
H41   H     H_    0.274599 0.286511 0.900807 0.263946
O12   O     O_3   0.499943 0.633419 0.071273 -0.544948
C62   C     C_3   0.423039 0.664230 0.082958 0.085452
H42   H     H_    0.392465 0.628504 0.118505 0.102858
H43   H     H_    0.389949 0.671234 0.033536 0.156781
C63   C     C_3   0.425712 0.739972 0.116658 -0.299614
H44   H     H_    0.459255 0.733829 0.165669 0.225948
H45   H     H_    0.455745 0.776651 0.081676 0.225518
C64   C     C_3   0.343967 0.775527 0.131998 -0.950735
H46   H     H_    0.309737 0.783271 0.083534 0.259739
H47   H     H_    0.347913 0.830407 0.156393 0.259033
H48   H     H_    0.313426 0.740326 0.167945 0.254367
O13   O     O_3   0.357704 0.938370 0.496751 -0.584046
C65   C     C_3   0.335047 0.929568 0.427463 0.058324
H49   H     H_    0.380547 0.895291 0.397926 0.142932
H50   H     H_    0.323395 0.984405 0.401957 0.139521
C66   C     C_3   0.260721 0.890404 0.425624 -0.765733
H51   H     H_    0.213561 0.923548 0.453743 0.250028
H52   H     H_    0.242166 0.883247 0.371336 0.196499
H53   H     H_    0.271008 0.835114 0.450151 0.249880
O14   O     O_3   0.642257 0.061639 0.496004 -0.583896
C67   C     C_3   0.664094 0.070478 0.426598 0.057963
H54   H     H_    0.618229 0.104730 0.397348 0.142847
H55   H     H_    0.675489 0.015651 0.400975 0.139274
C68   C     C_3   0.738356 0.109704 0.424370 -0.765732
H56   H     H_    0.785874 0.076580 0.452172 0.250022
H57   H     H_    0.756255 0.116902 0.369982 0.196311
H58   H     H_    0.728315 0.164977 0.449021 0.249975
O15   O     O_3   0.974253 0.600033 0.505159 -0.577418
C69   C     C_3   0.942602 0.609348 0.572367 0.012016
H59   H     H_    0.987655 0.626759 0.608385 0.131584
H60   H     H_    0.920543 0.558168 0.593408 0.115361
C70   C     C_3   0.874895 0.669723 0.570253 -0.265420
H61   H     H_    0.896554 0.722489 0.552950 0.222060
H62   H     H_    0.830458 0.654092 0.532663 0.232410
C71   C     C_3   0.836764 0.681173 0.640879 -0.938504
H63   H     H_    0.812808 0.629536 0.658277 0.256308
H64   H     H_    0.788278 0.725630 0.637556 0.261895
H65   H     H_    0.879854 0.697631 0.679319 0.254837
O16   O     O_3   0.025593 0.398727 0.502237 -0.576438
C72   C     C_3   0.057669 0.387294 0.569173 0.012679
H66   H     H_    0.012948 0.368364 0.604522 0.131768
H67   H     H_    0.079498 0.437862 0.591894 0.114659
C73   C     C_3   0.125694 0.327372 0.565271 -0.265128
H68   H     H_    0.104287 0.275104 0.546207 0.222292
H69   H     H_    0.169838 0.344577 0.528327 0.232701
C74   C     C_3   0.164206 0.313621 0.635576 -0.938230
H70   H     H_    0.187900 0.364775 0.654707 0.256820
H71   H     H_    0.212928 0.269563 0.630923 0.261262
H72   H     H_    0.121422 0.295546 0.673341 0.255049
O17   O     O_3   0.107802 0.443193 0.396879 -0.544625
C75   C     C_3   0.123787 0.467325 0.329575 0.070500
H73   H     H_    0.186743 0.456746 0.316890 0.129508
H74   H     H_    0.105787 0.527450 0.323725 0.138476
C76   C     C_3   0.078480 0.424837 0.277921 -0.780828
H75   H     H_    0.015528 0.430998 0.290585 0.255257
H76   H     H_    0.086633 0.446438 0.225130 0.191934
H77   H     H_    0.099551 0.365237 0.279293 0.249487
O18   O     O_3   0.891801 0.558359 0.397589 -0.544504
C77   C     C_3   0.870160 0.540397 0.329665 0.069072
H78   H     H_    0.806944 0.554659 0.320284 0.119236
H79   H     H_    0.884645 0.480427 0.319255 0.133890
C78   C     C_3   0.914111 0.584699 0.278700 -0.776497
H80   H     H_    0.977776 0.573158 0.286338 0.250032
H81   H     H_    0.899084 0.569452 0.225143 0.191611
H82   H     H_    0.897963 0.644745 0.286281 0.251011
O19   O     O_3   0.618570 0.557868 0.147672 -0.541592
C79   C     C_3   0.691736 0.522073 0.166531 0.057714
H83   H     H_    0.689175 0.461723 0.176020 0.119674
H84   H     H_    0.713965 0.548313 0.213543 0.140704
C80   C     C_3   0.749116 0.530420 0.108196 -0.806917
H85   H     H_    0.754686 0.589923 0.098132 0.254503
H86   H     H_    0.807156 0.503133 0.122471 0.196386
H87   H     H_    0.728455 0.504279 0.060514 0.236076
O20   O     O_3   0.604224 0.402424 0.849848 -0.531690
C81   C     C_3   0.670347 0.438422 0.868636 0.061244
H88   H     H_    0.655442 0.480269 0.909456 0.120795
H89   H     H_    0.695663 0.465415 0.823306 0.126397
C82   C     C_3   0.732008 0.381779 0.897866 -0.780655
H90   H     H_    0.749020 0.338971 0.858444 0.249752
H91   H     H_    0.784286 0.409497 0.913131 0.191339
H92   H     H_    0.708959 0.354853 0.943981 0.241251
O21   O     O_3   0.378733 0.436666 0.152611 -0.540188
C83   C     C_3   0.315703 0.490601 0.141389 0.043406
H93   H     H_    0.325604 0.521295 0.093081 0.128346
H94   H     H_    0.306598 0.530703 0.184977 0.123770
C84   C     C_3   0.241292 0.452331 0.133207 -0.798026
H95   H     H_    0.230120 0.421232 0.180924 0.247265
H96   H     H_    0.191316 0.494094 0.123744 0.194634
H97   H     H_    0.246579 0.413266 0.089088 0.254304
O22   O     O_3   0.390725 0.598947 0.847119 -0.530422
C85   C     C_3   0.324005 0.563574 0.865089 0.056000
H98   H     H_    0.337218 0.524566 0.908521 0.132283
H99   H     H_    0.301009 0.533489 0.820359 0.124657
C86   C     C_3   0.260653 0.621497 0.889122 -0.782318
H100  H     H_    0.245177 0.661525 0.846953 0.248725
H101  H     H_    0.207962 0.594320 0.903971 0.192424
H102  H     H_    0.281348 0.651633 0.934507 0.243473

loop_
_geom_bond_atom_site_label_1
_geom_bond_atom_site_label_2
_geom_bond_distance
_ccdc_geom_bond_type
C38   C40   1.404759 A    
C42   C44   1.407000 A    
C84   H95   1.110547 S    
C72   H66   1.110110 S    
C82   H91   1.110502 S    
C85   H99   1.115631 S    
C7    H1    1.083354 S    
C33   C35   1.415728 A    
C65   H50   1.114079 S    
C74   H70   1.111038 S    
C46   N2    1.363565 A    
C31   O9    1.382288 S    
C56   H28   1.111823 S    
C38   N2    1.363130 A    
C21   C23   1.411207 A    
O9    C53   1.411505 S    
C79   H83   1.116266 S    
O5    C3    1.285623 A    
C84   H96   1.110451 S    
C18   O15   1.392134 S    
O1    C1    1.288666 A    
O16   C72   1.417872 S    
C19   H7    1.083298 S    
C14   C16   1.388649 A    
C69   H59   1.110148 S    
C50   O14   1.381067 S    
C68   H57   1.110504 S    
O15   C69   1.417866 S    
C53   H22   1.113732 S    
C37   H11   1.081821 S    
C38   H12   1.081821 S    
C59   H35   1.110739 S    
C31   C36   1.406342 A    
C27   H9    1.084211 S    
O4    Cu1   1.946628 S    
C39   H13   1.082319 S    
C48   C50   1.409296 A    
O12   C62   1.410389 S    
C57   H30   1.111871 S    
C80   H87   1.111462 S    
C40   H14   1.082311 S    
C56   H29   1.116532 S    
C42   C51   1.504670 S    
C3    C5    1.450672 S    
C48   C51   1.407456 A    
C77   C78   1.520428 S    
C60   H38   1.110151 S    
C4    C6    1.450377 S    
C26   C28   1.394400 A    
C83   H93   1.111703 S    
C13   H5    1.079734 S    
C19   C29   1.395986 A    
C66   H53   1.110979 S    
O11   C59   1.415732 S    
C8    H2    1.083705 S    
C47   C49   1.409324 A    
C54   H24   1.111925 S    
C43   C45   1.404776 A    
C32   C35   1.412684 A    
C44   C46   1.404761 A    
C78   H82   1.110620 S    
C15   H4    1.083693 S    
C62   H43   1.115734 S    
C11   C17   1.480182 S    
O21   C83   1.412489 S    
C72   H67   1.113463 S    
C12   C18   1.480578 S    
Cu1   Cu2   2.664422 S    
C23   C25   1.413065 A    
O2    C2    1.287638 A    
C24   C26   1.416775 A    
C55   H26   1.110516 S    
C49   C51   1.415558 A    
C32   C34   1.397980 A    
C61   H39   1.111131 S    
C69   H60   1.113439 S    
C47   H19   1.083187 S    
C6    C16   1.396432 A    
C76   H77   1.110588 S    
C28   H10   1.083995 S    
C40   C42   1.407604 A    
O20   C81   1.411041 S    
C73   C74   1.526009 S    
Cu1   N1    2.002375 S    
C84   H97   1.109539 S    
C20   C22   1.394933 A    
C74   H72   1.110802 S    
C46   H18   1.081816 S    
C70   C71   1.526154 S    
O17   C75   1.412536 S    
C45   H17   1.081819 S    
C53   H21   1.115705 S    
C85   H98   1.110962 S    
C41   C52   1.504568 S    
C82   H90   1.110632 S    
C47   C52   1.407413 A    
C41   C43   1.406982 A    
C53   C54   1.526497 S    
C55   H27   1.111289 S    
C14   H6    1.079746 S    
O22   C85   1.411193 S    
C43   H15   1.082739 S    
Cu2   N2    2.002371 S    
C58   H34   1.111062 S    
C57   C58   1.526110 S    
C19   C21   1.402513 A    
O7    Cu2   1.956851 S    
C81   C82   1.520226 S    
O19   C79   1.413494 S    
C24   C35   1.477736 S    
C64   H48   1.111013 S    
C69   C70   1.528269 S    
C76   H76   1.110254 S    
C33   O11   1.387381 S    
C49   O13   1.381048 S    
C86   H100  1.110629 S    
C71   H65   1.110810 S    
C27   C29   1.395011 A    
O6    C4    1.285607 A    
O10   C56   1.410905 S    
C57   H31   1.111746 S    
C48   H20   1.083179 S    
C58   H33   1.110325 S    
C54   C55   1.525781 S    
O7    C3    1.289267 A    
C76   H75   1.108798 S    
O3    Cu2   1.946628 S    
O8    C4    1.289150 A    
O4    C2    1.287339 A    
C77   H78   1.111776 S    
C86   H101  1.110525 S    
C71   H64   1.110391 S    
C72   C73   1.528236 S    
C50   C52   1.415520 A    
C11   C13   1.402742 A    
C66   H51   1.110665 S    
C12   C14   1.402795 A    
C1    C30   1.455394 S    
C68   H58   1.110973 S    
C65   C66   1.520539 S    
O1    Cu1   1.946366 S    
C63   H45   1.111744 S    
C20   H8    1.083929 S    
C67   C68   1.520546 S    
C34   O12   1.382888 S    
C17   C18   1.367008 D    
C56   C57   1.526735 S    
C20   C30   1.396548 A    
C64   H47   1.110359 S    
O13   C65   1.411329 S    
C62   C63   1.526686 S    
C17   O16   1.392207 S    
C5    C7    1.395155 A    
C10   O17   1.384788 S    
C75   H73   1.112850 S    
O6    Cu2   1.966475 S    
C60   H37   1.111360 S    
C9    C11   1.416400 A    
C16   H3    1.083701 S    
C23   C36   1.475174 S    
C10   C12   1.416010 A    
C22   C24   1.416110 A    
O3    C1    1.288496 A    
O8    Cu1   1.956849 S    
C61   H40   1.110302 S    
C62   H42   1.112409 S    
C79   C80   1.520637 S    
C34   C36   1.407225 A    
C37   C39   1.404709 A    
C67   H55   1.114079 S    
O14   C67   1.411340 S    
C28   C30   1.396515 A    
C79   H84   1.111548 S    
C59   C60   1.535864 S    
C83   C84   1.520723 S    
C81   H88   1.111149 S    
C37   N1    1.363115 A    
C63   C64   1.525939 S    
C70   H62   1.111345 S    
C65   H49   1.115338 S    
C54   H23   1.112203 S    
C80   H85   1.110889 S    
C25   C27   1.393977 A    
O18   C77   1.414001 S    
C68   H56   1.110657 S    
C73   H68   1.111575 S    
C45   N1    1.363572 A    
C64   H46   1.110916 S    
C22   O20   1.383227 S    
C13   C15   1.388149 A    
C85   C86   1.520084 S    
C75   H74   1.113778 S    
C55   H25   1.111149 S    
C7    C9    1.401437 A    
C59   H36   1.109168 S    
C32   O10   1.383367 S    
C60   C61   1.525344 S    
C8    C10   1.399864 A    
C26   O22   1.383618 S    
C2    C29   1.451089 S    
O2    Cu2   1.946368 S    
C9    O18   1.386708 S    
C80   H86   1.110415 S    
C61   H41   1.110772 S    
C5    C15   1.396221 A    
C67   H54   1.115347 S    
C78   H80   1.108230 S    
C82   H92   1.110693 S    
C39   C41   1.407582 A    
O5    Cu1   1.966473 S    
C86   H102  1.110963 S    
C71   H63   1.111048 S    
C6    C8    1.395332 A    
C58   H32   1.110908 S    
C66   H52   1.110504 S    
C44   H16   1.082728 S    
C74   H71   1.110387 S    
C25   O21   1.382603 S    
C75   C76   1.520631 S    
C31   C33   1.398913 A    
C63   H44   1.111900 S    
C70   H61   1.111573 S    
C83   H94   1.117237 S    
C21   O19   1.387334 S    
C73   H69   1.111323 S    
C77   H79   1.113604 S    
C78   H81   1.110652 S    
C81   H89   1.115363 S    
