data_mof_unit_52006.cif
_audit_creation_date              2012-12-10T17:42:52-0500
_audit_creation_method            fapswitch 2.2
_symmetry_space_group_name_H-M    P1
_symmetry_Int_Tables_number       1
_space_group_crystal_system       triclinic
_cell_length_a                    15.080024
_cell_length_b                    13.705376
_cell_length_c                    15.90096
_cell_angle_alpha                 90.050815
_cell_angle_beta                  90.065256
_cell_angle_gamma                 89.851592
_cell_volume                      3286.35461475

loop_
_atom_site_label
_atom_site_type_symbol
_atom_type_description
_atom_site_fract_x
_atom_site_fract_y
_atom_site_fract_z
_atom_type_partial_charge
C1    C     C_R   0.328499 0.500081 0.500066 0.805539
C2    C     C_3   0.596552 0.484710 0.950013 -0.458228
C3    C     C_3   0.600548 0.494115 0.048863 -0.108213
C4    C     C_1   0.500631 0.499858 0.824781 -0.059677
C5    C     C_1   0.500361 0.499063 0.175404 -0.024243
C6    C     C_1   0.500062 0.499730 0.250802 -0.106150
C7    C     C_R   0.814739 0.413045 0.512146 -0.214137
C8    C     C_R   0.768186 0.500032 0.498811 -0.086968
C9    C     C_R   0.814037 0.587283 0.484876 -0.215932
C10   C     C_R   0.906757 0.588933 0.485553 0.084692
C11   C     C_R   0.953413 0.500378 0.498470 0.007636
C12   C     C_R   0.499953 0.499955 0.340199 0.834489
C13   C     C_R   0.906993 0.412448 0.511634 0.090387
C14   C     C_R   0.953853 0.676676 0.472804 0.254169
C15   C     C_R   0.046612 0.674957 0.472522 -0.280531
C16   C     C_R   0.092860 0.587619 0.485676 0.089160
C17   C     C_R   0.046418 0.499585 0.498255 0.008391
C18   C     C_R   0.093017 0.410909 0.510739 0.086725
C19   C     C_R   0.045851 0.323050 0.522666 0.253789
C20   C     C_R   0.953158 0.324965 0.523948 -0.280281
C21   C     C_R   0.185185 0.587231 0.486540 -0.224139
C22   C     C_R   0.231693 0.500050 0.499642 -0.087993
C23   C     C_R   0.671449 0.499944 0.499551 0.826526
C24   C     C_R   0.185717 0.412519 0.511906 -0.232078
C25   C     C_R   0.435062 0.793154 0.541861 0.022035
C26   C     C_R   0.435191 0.207243 0.541883 0.039092
C27   C     C_R   0.564800 0.792835 0.458260 0.049294
C28   C     C_R   0.564936 0.206794 0.458257 0.032862
C29   C     C_R   0.566710 0.895995 0.456973 -0.059329
C30   C     C_R   0.567386 0.103426 0.457173 -0.075813
C31   C     C_R   0.499908 0.948223 0.500173 -0.012571
C32   C     C_R   0.500099 0.051804 0.500106 -0.001653
C33   C     C_R   0.432795 0.896501 0.543210 -0.099196
C34   C     C_R   0.433024 0.104040 0.543071 -0.096596
C35   C     C_R   0.634064 0.947307 0.414037 0.211081
C36   C     C_R   0.635322 0.050657 0.415052 0.189084
C37   C     C_R   0.366033 0.052199 0.586450 0.211888
C38   C     C_R   0.365847 0.949132 0.586646 0.221231
C39   C     C_R   0.499994 0.500036 0.659869 0.830839
C40   C     C_3   0.456112 0.594553 0.048486 0.100845
C41   C     C_3   0.449003 0.406648 0.046836 0.123700
C42   C     C_3   0.442522 0.415038 0.949431 -0.378663
C43   C     C_3   0.462916 0.596436 0.950715 -0.350065
C44   C     C_1   0.500301 0.500071 0.749362 -0.176230
C45   C     C_3   0.500837 0.498006 0.082795 0.037726
C46   C     C_3   0.500958 0.499267 0.916861 0.171536
Cu1   Cu    Cu3+1 0.499990 0.597420 0.500010 0.941997
Cu2   Cu    Cu3+1 0.499990 0.402580 0.500010 0.943613
H1    H     H_    0.396791 0.609143 0.921543 0.184500
H2    H     H_    0.372793 0.428841 0.929495 0.204603
H3    H     H_    0.082587 0.742420 0.462823 0.142570
H4    H     H_    0.220796 0.654928 0.476769 0.148330
H5    H     H_    0.222537 0.345811 0.523068 0.180499
H6    H     H_    0.917168 0.257481 0.533496 0.145318
H7    H     H_    0.385692 0.750888 0.574601 0.138369
H8    H     H_    0.385686 0.249605 0.574707 0.138718
H9    H     H_    0.615141 0.750839 0.426006 0.167521
H10   H     H_    0.614727 0.249060 0.426100 0.144314
H11   H     H_    0.487896 0.339831 0.061317 0.168224
H12   H     H_    0.493542 0.658095 0.073811 0.142094
H13   H     H_    0.463414 0.344687 0.920380 0.141173
H14   H     H_    0.506212 0.657946 0.931002 0.169123
H15   H     H_    0.642174 0.536138 0.917894 0.223331
H16   H     H_    0.619171 0.410998 0.929359 0.178819
H17   H     H_    0.779159 0.345730 0.523351 0.147254
H18   H     H_    0.777068 0.653753 0.473162 0.192212
N1    N     N_R   0.499930 0.743810 0.499960 -0.193883
N2    N     N_R   0.499930 0.256190 0.499960 -0.188622
O1    O     O_R   0.370250 0.582280 0.500020 -0.596426
O2    O     O_R   0.370250 0.417720 0.500020 -0.598650
O3    O     O_R   0.499990 0.582310 0.379440 -0.579791
O4    O     O_R   0.499990 0.417690 0.379440 -0.570554
O5    O     O_R   0.629730 0.582260 0.499990 -0.594493
O6    O     O_R   0.629730 0.417740 0.499990 -0.593349
O7    O     O_R   0.499980 0.582240 0.620570 -0.575310
O8    O     O_R   0.499980 0.417760 0.620570 -0.577568
N3    N     N_2   0.090948 0.232572 0.533853 -0.447197
H19   H     H_    0.059424 0.185856 0.574888 0.260539
C47   C     C_3   0.114445 0.184425 0.455969 -0.720452
H20   H     H_    0.053603 0.164034 0.420607 0.232957
H21   H     H_    0.152839 0.117104 0.469918 0.230362
H22   H     H_    0.156165 0.232708 0.416369 0.240366
N4    N     N_2   0.700356 0.894613 0.368844 -0.435975
H23   H     H_    0.763255 0.923365 0.373163 0.284519
C48   C     C_3   0.676127 0.871352 0.283124 -0.665855
H24   H     H_    0.728898 0.825756 0.254245 0.229724
H25   H     H_    0.668546 0.939324 0.245697 0.238557
H26   H     H_    0.613070 0.829641 0.281398 0.227944
N5    N     N_2   0.704353 0.099861 0.371213 -0.430559
H27   H     H_    0.683099 0.154764 0.331724 0.251837
C49   C     C_3   0.779136 0.127258 0.423151 -0.718488
H28   H     H_    0.831283 0.160742 0.383368 0.238822
H29   H     H_    0.807800 0.062152 0.454724 0.226716
H30   H     H_    0.758429 0.180811 0.471718 0.215887
N6    N     N_2   0.295720 0.102491 0.627853 -0.403501
H31   H     H_    0.261902 0.152200 0.591172 0.254257
C50   C     C_3   0.314536 0.136567 0.712297 -0.672256
H32   H     H_    0.319053 0.217458 0.713129 0.205099
H33   H     H_    0.377790 0.106009 0.737062 0.221146
H34   H     H_    0.259845 0.114086 0.754614 0.241598
N7    N     N_2   0.294919 0.900078 0.627840 -0.402668
H35   H     H_    0.265188 0.846259 0.592401 0.231348
C51   C     C_3   0.313724 0.870229 0.713294 -0.663650
H36   H     H_    0.253159 0.838245 0.741619 0.224740
H37   H     H_    0.333973 0.933786 0.751961 0.242313
H38   H     H_    0.367406 0.814619 0.714567 0.207420
N8    N     N_2   0.363831 0.605399 0.075236 -0.383536
H39   H     H_    0.350612 0.578787 0.134448 0.261748
C52   C     C_3   0.326183 0.702244 0.065884 -0.706115
H40   H     H_    0.254399 0.700103 0.081253 0.238057
H41   H     H_    0.333160 0.729230 0.000495 0.230842
H42   H     H_    0.359351 0.753969 0.109564 0.217196
N9    N     N_2   0.360850 0.394385 0.083621 -0.394779
H43   H     H_    0.357440 0.408465 0.147168 0.255137
C53   C     C_3   0.316769 0.303109 0.064502 -0.696641
H44   H     H_    0.249216 0.303735 0.092241 0.236047
H45   H     H_    0.354546 0.240939 0.091693 0.219660
H46   H     H_    0.309801 0.292553 0.995632 0.231511
C54   C     C_2   0.650926 0.585978 0.076513 0.830837
O9    O     O_2   0.671131 0.649473 0.026033 -0.609815
O10   O     O_R   0.673292 0.597946 0.161354 -0.758869
H47   H     H_    0.705768 0.661309 0.172558 0.331196
C55   C     C_2   0.654965 0.408099 0.083011 0.839974
O11   O     O_2   0.730028 0.394258 0.056170 -0.580197
O12   O     O_R   0.621969 0.346750 0.145872 -0.781965
H48   H     H_    0.665691 0.293955 0.162768 0.333665
N10   N     N_2   0.908587 0.766655 0.459234 -0.436775
H49   H     H_    0.940612 0.812531 0.417852 0.252981
C56   C     C_3   0.883079 0.816686 0.535651 -0.698069
H50   H     H_    0.943018 0.839724 0.571168 0.229363
H51   H     H_    0.841857 0.768750 0.576014 0.241203
H52   H     H_    0.843455 0.882488 0.519583 0.223827

loop_
_geom_bond_atom_site_label_1
_geom_bond_atom_site_label_2
_ccdc_geom_bond_type
C36   N5    S    
C16   C21   A    
C40   H12   S    
C27   C29   A    
C34   C37   A    
C41   C42   S    
Cu2   O8    S    
C35   C36   A    
C25   N1    A    
C50   H32   S    
C55   O11   D    
C4    C46   S    
N3    H19   S    
C2    C46   S    
N7    H35   S    
N4    H23   S    
C18   C24   A    
C28   N2    A    
Cu2   O4    S    
C56   H50   S    
C38   N7    S    
C52   H41   S    
C6    C12   S    
C5    C6    T    
C55   O12   S    
C7    H17   S    
C15   C16   A    
C8    C23   S    
C37   N6    S    
C18   C19   A    
C42   C46   S    
C19   N3    S    
C9    H18   S    
Cu1   O1    S    
C26   C34   A    
C40   C43   S    
C19   C20   A    
C3    C55   S    
C8    C9    A    
C53   H45   S    
N8    H39   S    
C31   C33   A    
C15   H3    S    
N5    C49   S    
C9    C10   A    
C56   H52   S    
N3    C47   S    
C12   O4    A    
C1    C22   S    
N7    C51   S    
C21   C22   A    
N8    C52   S    
C23   O5    A    
Cu1   N1    S    
C50   H33   S    
C2    H16   S    
C54   O10   S    
C40   C45   S    
C48   H25   S    
Cu2   O6    S    
C7    C8    A    
Cu1   O5    S    
C20   H6    S    
C10   C14   A    
C52   H42   S    
Cu2   O2    S    
C49   H28   S    
C47   H21   S    
C35   N4    S    
C16   C17   A    
C4    C44   T    
C24   H5    S    
C48   H24   S    
C5    C45   S    
C3    C45   S    
C1    O1    A    
C14   N10   S    
C32   C34   A    
N10   C56   S    
C37   C38   A    
C49   H29   S    
Cu1   Cu2   S    
C53   H46   S    
Cu1   O3    S    
C17   C18   A    
C51   H37   S    
C39   O8    A    
Cu2   N2    S    
C42   H13   S    
C41   H11   S    
O10   H47   S    
C3    C54   S    
C42   H2    S    
C40   N8    S    
N4    C48   S    
C12   O3    A    
C39   O7    A    
C27   H9    S    
O12   H48   S    
C22   C24   A    
C23   O6    A    
N10   H49   S    
C51   H36   S    
C50   H34   S    
C2    H15   S    
N9    H43   S    
C48   H26   S    
C11   C17   A    
C13   C20   A    
C31   C32   A    
C43   H1    S    
C25   H7    S    
C41   N9    S    
C26   H8    S    
C47   H22   S    
C54   O9    D    
N6    C50   S    
C39   C44   S    
C28   H10   S    
C29   C35   A    
C1    O2    A    
C30   C36   A    
C26   N2    A    
C28   C30   A    
C2    C3    S    
Cu1   O7    S    
C29   C31   A    
C52   H40   S    
C49   H30   S    
C30   C32   A    
C11   C13   A    
C51   H38   S    
C43   C46   S    
C27   N1    A    
C10   C11   A    
C47   H20   S    
C7    C13   A    
N6    H31   S    
C41   C45   S    
C14   C15   A    
C33   C38   A    
N9    C53   S    
N5    H27   S    
C21   H4    S    
C53   H44   S    
C43   H14   S    
C25   C33   A    
C56   H51   S    
