data_mof_unit_27727.cif
_audit_creation_date              2012-12-11T20:17:16-0500
_audit_creation_method            fapswitch 2.2
_symmetry_space_group_name_H-M    P1
_symmetry_Int_Tables_number       1
_space_group_crystal_system       triclinic
_cell_length_a                    8.390019
_cell_length_b                    17.633836
_cell_length_c                    18.89873
_cell_angle_alpha                 100.192813
_cell_angle_beta                  91.999635
_cell_angle_gamma                 100.709795
_cell_volume                      2697.32133382

loop_
_atom_site_label
_atom_site_type_symbol
_atom_type_description
_atom_site_fract_x
_atom_site_fract_y
_atom_site_fract_z
_atom_type_partial_charge
Ba1   Ba    Ba6+2 0.852650 0.537180 0.468240 1.894154
Ba2   Ba    Ba6+2 0.337190 0.462880 0.531770 1.873716
C1    C     C_3   0.683568 0.841740 0.285616 0.619273
C2    C     C_3   0.637434 0.765491 0.317559 0.213003
C3    C     C_3   0.424063 0.287615 0.304762 0.699703
C4    C     C_3   0.385894 0.220675 0.240075 -0.210245
C5    C     C_3   0.054706 0.313149 0.727559 0.385436
C6    C     C_3   0.064822 0.297838 0.804079 -0.204796
C7    C     C_3   0.542296 0.253478 0.693877 0.410697
C8    C     C_3   0.446759 0.170511 0.693315 0.374949
C9    C     C_2   0.282967 0.535800 0.295355 -0.223415
C10   C     C_3   0.407593 0.580197 0.251725 -0.081419
C11   C     C_2   0.368305 0.565142 0.170632 0.308255
C12   C     C_3   0.116269 0.697142 0.283054 0.366780
C13   C     C_2   0.216390 0.526053 0.145002 -0.226594
C14   C     C_2   0.102747 0.484320 0.193842 0.280782
C15   C     C_1   0.144064 0.487715 0.265435 0.010457
C16   C     C_R   0.045847 0.509079 0.927885 0.536626
C17   C     C_R   0.160548 0.522420 0.067574 0.663127
C18   C     C_R   0.079824 0.529742 0.802005 -0.155371
C19   C     C_R   0.027848 0.519467 0.728931 0.051546
C20   C     C_R   0.764907 0.445597 0.753156 -0.005956
C21   C     C_R   0.816706 0.455700 0.827531 0.328793
C22   C     C_R   0.977848 0.498054 0.851838 -0.163606
C23   C     C_3   0.053229 0.706977 0.208155 0.361608
C24   C     C_R   0.872927 0.475808 0.705128 -0.257254
C25   C     C_2   0.463562 0.729332 0.484899 -0.311009
C26   C     C_3   0.335666 0.779756 0.482422 -0.067994
C27   C     C_2   0.411182 0.862076 0.479440 -0.122517
C28   C     C_2   0.563516 0.891336 0.509203 -0.040106
C29   C     C_2   0.661253 0.837675 0.538337 0.371563
C30   C     C_1   0.599626 0.759241 0.527707 -0.076141
C31   C     C_R   0.781222 0.145981 0.556000 -0.107725
C32   C     C_R   0.851451 0.224473 0.559516 0.078803
C33   C     C_R   0.610189 0.244836 0.495919 0.018353
C34   C     C_3   0.211697 0.702744 0.624641 0.322335
C35   C     C_R   0.540180 0.165427 0.491755 -0.058757
C36   C     C_R   0.624844 0.115794 0.522122 0.022118
C37   C     C_2   0.635887 0.975367 0.511604 0.118035
C38   C     C_2   0.548222 0.032647 0.518257 -0.038046
C39   C     C_R   0.763031 0.274611 0.532130 -0.161689
C40   C     C_3   0.233624 0.791802 0.644617 -0.223823
C41   C     C_3   0.006896 0.267699 0.289205 0.512496
C42   C     C_3   0.940576 0.199807 0.219870 0.644281
C43   C     C_3   0.618035 0.715235 0.707522 0.632946
C44   C     C_3   0.648650 0.804939 0.733644 0.204432
H1    H     H_    0.661226 0.779467 0.376922 0.042173
H2    H     H_    0.186425 0.815793 0.599632 0.107283
H3    H     H_    0.122474 0.296486 0.273570 -0.131553
H4    H     H_    0.022043 0.158537 0.227522 0.001068
H5    H     H_    0.495419 0.692834 0.682072 -0.065104
H6    H     H_    0.622469 0.832055 0.687600 -0.011256
H7    H     H_    0.778346 0.826909 0.752861 0.149255
H8    H     H_    0.505786 0.742069 0.305374 -0.014915
H9    H     H_    0.316976 0.292382 0.333134 -0.034263
H10   H     H_    0.359885 0.162957 0.257410 0.141795
H11   H     H_    0.279867 0.225259 0.207349 0.103464
H12   H     H_    0.488110 0.224111 0.204874 0.205504
H13   H     H_    0.689245 0.823512 0.226561 0.098356
H14   H     H_    0.129343 0.371851 0.726432 0.043477
H15   H     H_    0.925958 0.312896 0.711978 -0.183275
H16   H     H_    0.193870 0.308220 0.824540 0.167071
H17   H     H_    0.002634 0.338022 0.839914 0.084738
H18   H     H_    0.005462 0.236366 0.805415 0.178234
H19   H     H_    0.666145 0.259425 0.719124 0.007511
H20   H     H_    0.319282 0.164763 0.672323 0.063379
H21   H     H_    0.032436 0.645214 0.294985 -0.017117
H22   H     H_    0.200415 0.563028 0.820373 0.171433
H23   H     H_    0.299164 0.555089 0.353349 0.063754
H24   H     H_    0.832467 0.468946 0.648979 0.062031
H25   H     H_    0.417157 0.018917 0.520537 0.066095
H26   H     H_    0.849172 0.109011 0.579564 0.098726
H27   H     H_    0.239546 0.684802 0.280608 -0.087189
H28   H     H_    0.765843 0.990436 0.507469 0.173327
H29   H     H_    0.453683 0.675621 0.445526 0.052590
H30   H     H_    0.817681 0.335606 0.534021 0.044923
H31   H     H_    0.007101 0.647411 0.175956 -0.011240
H32   H     H_    0.312401 0.686019 0.593171 -0.119398
H33   H     H_    0.099505 0.680790 0.590224 0.098831
N1    N     N_R   0.983192 0.552777 0.982699 -0.117912
N2    N     N_R   0.037958 0.558408 0.051042 -0.141918
N3    N     N_R   0.226380 0.480533 0.012482 -0.149070
N4    N     N_R   0.170234 0.474079 0.944179 -0.225335
O1    O     O_2   0.865200 0.455450 0.325860 -0.343234
O2    O     O_3   0.736410 0.694864 0.660243 -0.605130
O3    O     O_3   0.117601 0.763979 0.336811 -0.503212
O4    O     O_2   0.324510 0.544570 0.674190 -0.429898
O5    O     O_3   0.071830 0.543290 0.586690 -0.531913
O6    O     O_3   0.531950 0.400150 0.621890 -0.511076
O7    O     O_3   0.203972 0.670628 0.687458 -0.574425
O8    O     O_3   0.606980 0.404400 0.458100 -0.430332
O9    O     O_3   0.107660 0.359170 0.583950 -0.494656
O10   O     O_2   0.183451 0.220188 0.545743 -0.426067
O11   O     O_3   0.114572 0.254893 0.681557 -0.597111
O12   O     O_3   0.117880 0.456770 0.413320 -0.544817
O13   O     O_3   0.582730 0.595670 0.541910 -0.476506
O14   O     O_2   0.334130 0.306180 0.453490 -0.451772
O15   O     O_3   0.547783 0.274099 0.349463 -0.577363
O16   O     O_2   0.434539 0.455752 0.747228 -0.381868
O17   O     O_3   0.462764 0.309925 0.731629 -0.543430
O18   O     O_3   0.657770 0.599920 0.378120 -0.452411
O19   O     O_2   0.736927 0.560283 0.249194 -0.376628
O20   O     O_3   0.920652 0.329682 0.311312 -0.545415
O21   O     O_3   0.729211 0.709329 0.287932 -0.609681
O22   O     O_2   0.855570 0.693850 0.546560 -0.424512
O23   O     O_3   0.082050 0.640900 0.416060 -0.532524
O24   O     O_2   0.003096 0.773291 0.462335 -0.387021
P1    P     P_3+3 0.032830 0.432130 0.335280 1.114212
P2    P     P_3+3 0.680690 0.682340 0.566920 1.051553
P3    P     P_3+3 0.141644 0.740807 0.423275 1.017716
P4    P     P_3+3 0.156880 0.567940 0.664730 1.058505
P5    P     P_3+3 0.065207 0.261579 0.592601 1.051830
P6    P     P_3+3 0.628444 0.612422 0.290372 1.126919
P7    P     P_3+3 0.520169 0.304788 0.440848 1.100110
P8    P     P_3+3 0.551535 0.402780 0.714891 1.114471
H34   H     H_    0.167475 0.808903 0.692887 0.225207
H35   H     H_    0.363329 0.818948 0.655746 0.066646
S1    S     S_3+6 0.019109 0.217378 0.365499 -0.052698
O25   O     O_2   0.875596 0.153273 0.367244 -0.175940
O26   O     O_2   0.165966 0.180057 0.365549 -0.333190
O27   O     O_3   0.020253 0.281615 0.441388 -0.523260
H36   H     H_    0.076616 0.332013 0.432034 0.340974
S2    S     S_3+6 0.745648 0.134207 0.216146 0.056352
O28   O     O_2   0.651611 0.155213 0.279934 -0.279797
O29   O     O_2   0.779209 0.053323 0.214835 -0.164842
O30   O     O_3   0.629272 0.129971 0.140745 -0.447046
H37   H     H_    0.537852 0.085235 0.140055 0.367649
S3    S     S_3+6 0.990420 0.209919 0.128716 0.035294
O31   O     O_2   0.039993 0.135212 0.093545 -0.239877
O32   O     O_2   0.845751 0.220218 0.084987 -0.155681
O33   O     O_3   0.143651 0.284683 0.125595 -0.486195
H38   H     H_    0.183140 0.273291 0.076791 0.386918
S4    S     S_3+6 0.639951 0.668078 0.782565 0.011927
O34   O     O_2   0.488835 0.660845 0.823192 -0.229752
O35   O     O_2   0.669202 0.587966 0.753496 -0.343043
O36   O     O_3   0.800604 0.717917 0.838241 -0.463242
H39   H     H_    0.818730 0.682298 0.871511 0.379125
S5    S     S_3+6 0.879708 0.899670 0.320348 0.034259
O37   O     O_2   0.008527 0.872126 0.275785 -0.223400
O38   O     O_2   0.889144 0.984953 0.317856 -0.134401
O39   O     O_3   0.918041 0.891821 0.405744 -0.497250
H40   H     H_    0.034978 0.915627 0.416171 0.387991
S6    S     S_3+6 0.528462 0.840293 0.804517 0.046227
O40   O     O_2   0.362434 0.789271 0.799052 -0.211802
O41   O     O_2   0.611940 0.842346 0.876687 -0.150944
O42   O     O_3   0.508061 0.931834 0.797923 -0.409836
H41   H     H_    0.620712 0.961901 0.799548 0.375671
S7    S     S_3+6 0.533637 0.903411 0.297076 0.023368
O43   O     O_2   0.373158 0.858307 0.311904 -0.274817
O44   O     O_2   0.585190 0.972190 0.357804 -0.259084
O45   O     O_3   0.511122 0.937261 0.220400 -0.411094
H42   H     H_    0.445504 0.978470 0.232422 0.390108
S8    S     S_3+6 0.481491 0.377252 0.274828 -0.073963
O46   O     O_2   0.503261 0.444417 0.337338 -0.328439
O47   O     O_2   0.636131 0.375941 0.239849 -0.198633
O48   O     O_3   0.343897 0.386893 0.212910 -0.584525
H43   H     H_    0.406723 0.405196 0.173645 0.381531
S9    S     S_3+6 0.200925 0.757008 0.157168 0.048697
O49   O     O_2   0.369059 0.747779 0.178428 -0.258745
O50   O     O_2   0.161332 0.722346 0.078635 -0.223297
O51   O     O_3   0.194224 0.852955 0.168806 -0.387968
H44   H     H_    0.241805 0.870868 0.125955 0.391716
H45   H     H_    0.549967 0.260047 0.636911 -0.203088
H46   H     H_    0.502122 0.127798 0.656814 -0.071332
S10   S     S_3+6 0.448947 0.143924 0.780127 0.025243
O52   O     O_2   0.349548 0.062573 0.774078 -0.210101
O53   O     O_2   0.620948 0.144824 0.805900 -0.241622
O54   O     O_3   0.368307 0.206734 0.839101 -0.470017
H47   H     H_    0.378466 0.189187 0.885739 0.393598
S11   S     S_3+6 0.512447 0.601065 0.110166 0.019033
O55   O     O_2   0.650658 0.662986 0.148011 -0.270026
O56   O     O_2   0.579297 0.532802 0.072030 -0.196180
O57   O     O_3   0.422889 0.639760 0.047846 -0.440661
H48   H     H_    0.501323 0.644146 0.010099 0.399288
S12   S     S_3+6 0.931755 0.417661 0.146393 0.037110
O58   O     O_2   0.881059 0.351629 0.184586 -0.219980
O59   O     O_2   0.793795 0.459455 0.139118 -0.189038
O60   O     O_3   0.974277 0.378314 0.063185 -0.478508
H49   H     H_    0.869371 0.347250 0.039785 0.422595
S13   S     S_3+6 0.685329 0.408260 0.885773 -0.021851
O61   O     O_2   0.664930 0.321197 0.860639 -0.268865
O62   O     O_2   0.749242 0.427365 0.963110 -0.228955
O63   O     O_3   0.502618 0.433858 0.881885 -0.456800
H50   H     H_    0.430786 0.395862 0.905265 0.379807
S14   S     S_3+6 0.839997 0.885688 0.595671 -0.098266
O64   O     O_2   0.796739 0.951454 0.649039 -0.312901
O65   O     O_2   0.907179 0.831977 0.636284 -0.340819
O66   O     O_3   0.987969 0.925118 0.548041 -0.511456
H51   H     H_    0.077068 0.953393 0.584283 0.358807
H52   H     H_    0.338944 0.898001 0.456577 0.137923
H53   H     H_    0.422683 0.141738 0.462822 0.127739
H54   H     H_    0.948578 0.736719 0.211899 0.134833

loop_
_geom_bond_atom_site_label_1
_geom_bond_atom_site_label_2
_ccdc_geom_bond_type
S6    O42   S    
C19   C24   A    
O6    P8    S    
S10   O52   D    
C38   H25   S    
O18   P6    S    
C4    H12   S    
C34   C40   S    
C23   H54   S    
S7    O45   S    
O63   H50   S    
S3    O31   D    
S1    O26   D    
O51   H44   S    
S2    O28   D    
S12   O59   D    
O57   H48   S    
Ba1   O1    S    
C13   C17   S    
O17   P8    S    
C26   C27   S    
O10   P5    D    
O30   H37   S    
C16   C22   S    
C3    C4    S    
O48   H43   S    
O3    P3    S    
S7    O44   D    
C10   P6    S    
O2    P2    S    
Ba1   O13   S    
O16   P8    D    
C28   C29   S    
C3    O15   S    
S2    O29   D    
O4    P4    D    
S11   O55   D    
C43   H5    S    
C34   O7    S    
S6    O40   D    
C44   H6    S    
C32   P5    S    
C33   P7    S    
Ba1   Ba2   S    
C37   H28   S    
C7    H45   S    
S1    O25   D    
C5    H15   S    
C31   H26   S    
Ba1   P2    S    
C41   S1    S    
O5    P4    S    
C9    C15   D    
C18   C22   A    
Ba2   O14   S    
C14   C15   D    
S4    O36   S    
C12   H21   S    
Ba2   O5    S    
O20   P1    S    
S8    O47   D    
C17   N3    A    
C7    C8    S    
S9    O51   S    
S13   O63   S    
Ba1   O12   S    
Ba1   O23   S    
Ba1   O5    S    
O45   H42   S    
C1    S7    S    
S10   O53   D    
S9    O50   D    
C4    H11   S    
C32   C39   A    
O7    P4    S    
C25   H29   S    
C19   P4    S    
S13   O62   D    
O60   H49   S    
S12   O60   S    
C7    H19   S    
C8    H20   S    
Ba2   P4    S    
C30   P2    S    
C12   H27   S    
O54   H47   S    
C5    C6    S    
S7    O43   D    
C12   O3    S    
O12   P1    S    
C15   P1    S    
C37   C38   D    
C41   H3    S    
S14   O66   S    
C6    H17   S    
C26   P3    S    
C43   C44   S    
S5    O39   S    
O66   H51   S    
S1    O27   S    
Ba2   O6    S    
C43   O2    S    
C41   C42   S    
C35   C36   A    
C18   H22   S    
Ba1   O8    S    
S12   O58   D    
C21   C22   A    
C29   S14   S    
C16   N4    A    
O27   H36   S    
Ba2   O4    S    
C1    S5    S    
C40   H2    S    
C18   C19   A    
S8    O48   S    
Ba2   O9    S    
C21   S13   S    
S5    O38   D    
C6    H18   S    
C14   S12   S    
C40   H34   S    
C20   P8    S    
C35   H53   S    
S10   O54   S    
C11   C13   D    
S9    O49   D    
C24   H24   S    
O24   P3    D    
C23   H31   S    
S14   O65   D    
C1    C2    S    
S3    O33   S    
Ba1   O18   S    
C5    H14   S    
C25   C26   S    
S13   O61   D    
C33   C35   A    
O42   H41   S    
O23   P3    S    
C42   H4    S    
S6    O41   D    
C5    O11   S    
O22   P2    D    
C42   S3    S    
C8    H46   S    
C2    H8    S    
C25   C30   D    
C20   C21   A    
C3    H9    S    
C29   C30   D    
O9    P5    S    
C4    H10   S    
N1    N2    A    
S2    O30   S    
C34   H33   S    
S3    O32   D    
C9    C10   S    
C9    H23   S    
C40   H35   S    
C11   S11   S    
C44   S6    S    
C7    O17   S    
O13   P2    S    
C42   S2    S    
C43   S4    S    
C31   C36   A    
O8    P7    S    
Ba2   O13   S    
O14   P7    D    
O19   P6    D    
C34   H32   S    
O39   H40   S    
C39   H30   S    
C36   C38   S    
S14   O64   D    
S4    O34   D    
S11   O56   D    
C8    S10   S    
C3    S8    S    
C13   C14   S    
C2    O21   S    
C44   H7    S    
O11   P5    S    
O1    P1    D    
C31   C32   A    
C28   C37   S    
C12   C23   S    
Ba2   O8    S    
C33   C39   A    
C41   O20   S    
O15   P7    S    
S5    O37   D    
Ba1   P1    S    
C27   C28   D    
O21   P6    S    
C10   C11   S    
C16   N1    A    
N3    N4    A    
C20   C24   A    
C6    H16   S    
C23   S9    S    
S4    O35   D    
C27   H52   S    
O36   H39   S    
Ba2   O12   S    
S8    O46   D    
C17   N2    A    
C2    H1    S    
O33   H38   S    
Ba1   O22   S    
S11   O57   S    
C1    H13   S    
