data_mof_unit_52231.cif
_audit_creation_date              2012-12-10T17:15:47-0500
_audit_creation_method            fapswitch 2.2
_symmetry_space_group_name_H-M    P1
_symmetry_Int_Tables_number       1
_space_group_crystal_system       triclinic
_cell_length_a                    10.163248
_cell_length_b                    10.617204
_cell_length_c                    10.687933
_cell_angle_alpha                 90.302894
_cell_angle_beta                  95.363525
_cell_angle_gamma                 81.887992
_cell_volume                      1136.70925574

loop_
_atom_site_label
_atom_site_type_symbol
_atom_type_description
_atom_site_fract_x
_atom_site_fract_y
_atom_site_fract_z
_atom_type_partial_charge
C1    C     C_R   0.444021 0.502823 0.266736 0.904931
C2    C     C_2   0.492311 0.434733 0.932950 -0.268737
C3    C     C_2   0.069899 0.499874 0.479880 -0.264440
C4    C     C_R   0.498236 0.260871 0.496000 0.857434
C5    C     C_2   0.923411 0.523891 0.497732 0.491497
C6    C     C_R   0.555995 0.489178 0.733429 0.777882
C7    C     C_R   0.499723 0.739348 0.496293 0.861747
C8    C     C_R   0.566197 0.121164 0.271126 -0.179564
C9    C     C_R   0.601943 0.050271 0.166279 -0.133839
C10   C     C_R   0.603665 0.919013 0.166703 -0.147349
C11   C     C_R   0.569522 0.858261 0.271913 -0.210297
C12   C     C_R   0.533077 0.060880 0.379356 0.095694
C13   C     C_R   0.534888 0.928663 0.379802 0.095889
C14   C     C_3   0.882601 0.740182 0.519774 0.107538
C15   C     C_3   0.841883 0.845409 0.611573 -0.824843
C16   C     C_3   0.738192 0.609719 0.910421 0.115648
C17   C     C_3   0.850546 0.636302 0.006830 -0.831487
C18   C     C_R   0.494394 0.129041 0.486807 -0.096763
C19   C     C_R   0.453599 0.070929 0.589834 -0.203407
C20   C     C_R   0.455490 0.942124 0.590344 -0.228267
C21   C     C_R   0.498096 0.871819 0.487800 -0.104046
C22   C     C_2   0.412715 0.485873 0.133545 -0.399223
C23   C     C_2   0.510157 0.431036 0.067627 -0.114976
C24   C     C_2   0.587705 0.469818 0.867941 0.304638
H1    H     H_    0.423559 0.125209 0.671237 0.151746
H2    H     H_    0.394069 0.423445 0.888207 0.162446
H3    H     H_    0.814605 0.754692 0.431763 0.166200
H4    H     H_    0.984839 0.750046 0.496093 0.126555
H5    H     H_    0.743349 0.835325 0.644020 0.257374
H6    H     H_    0.916858 0.839875 0.694625 0.239492
H7    H     H_    0.835582 0.939737 0.565239 0.222400
H8    H     H_    0.124596 0.603952 0.626336 0.201115
H9    H     H_    0.609471 0.396896 0.111904 0.216771
H10   H     H_    0.649103 0.681216 0.923891 0.105404
H11   H     H_    0.770110 0.621952 0.815082 0.199550
H12   H     H_    0.313622 0.520356 0.089121 0.161505
H13   H     H_    0.942139 0.568360 0.995153 0.262286
H14   H     H_    0.872395 0.734735 0.993873 0.203581
H15   H     H_    0.820809 0.626320 0.103329 0.250113
H16   H     H_    0.103637 0.437884 0.404760 0.155522
H17   H     H_    0.882855 0.375140 0.394471 0.112063
H18   H     H_    0.562868 0.223099 0.265628 0.142300
H19   H     H_    0.626992 0.097529 0.084014 0.141941
H20   H     H_    0.630139 0.864290 0.084791 0.137045
H21   H     H_    0.569031 0.756630 0.266931 0.152902
H22   H     H_    0.426360 0.896534 0.672010 0.148603
N1    N     N_2   0.157290 0.551390 0.551110 -0.190099
N2    N     N_2   0.842740 0.448550 0.448960 -0.220489
O1    O     O_R   0.568950 0.489660 0.307530 -0.626591
O2    O     O_3   0.712380 0.483839 0.927363 -0.601425
O3    O     O_R   0.348880 0.522640 0.340350 -0.603072
O4    O     O_R   0.610060 0.300270 0.483590 -0.616820
O5    O     O_R   0.389990 0.333260 0.516410 -0.603666
O6    O     O_R   0.651120 0.477360 0.659650 -0.551984
O7    O     O_R   0.431050 0.510340 0.692470 -0.633846
O8    O     O_R   0.610010 0.666740 0.483590 -0.590833
O9    O     O_R   0.389940 0.699730 0.516410 -0.604615
O10   O     O_3   0.874885 0.621002 0.575477 -0.585439
Zn1   Zn    Zn3+2 0.646940 0.477980 0.478090 0.970417
Zn2   Zn    Zn3+2 0.353060 0.522020 0.521910 0.935886

loop_
_geom_bond_atom_site_label_1
_geom_bond_atom_site_label_2
_ccdc_geom_bond_type
C16   O2    S    
C15   H7    S    
O4    Zn1   S    
C4    O5    A    
C1    O3    A    
C22   H12   S    
C9    C10   A    
C19   C20   A    
O1    Zn1   S    
O8    Zn1   S    
C6    O7    A    
C8    C12   A    
C6    C24   S    
C14   H4    S    
C12   C18   A    
C13   C21   A    
C1    C22   S    
C2    H2    S    
C17   H13   S    
O7    Zn2   S    
C20   C21   A    
C2    C24   D    
C11   C13   A    
C5    O10   S    
C6    O6    A    
C19   H1    S    
C7    O8    A    
C3    N1    D    
C5    N2    D    
O5    Zn2   S    
C4    O4    A    
C3    H16   S    
C15   H5    S    
O6    Zn1   S    
C22   C23   D    
C16   H11   S    
C24   O2    S    
C14   H3    S    
H8    N1    S    
C7    O9    A    
C9    H19   S    
C11   H21   S    
C10   C11   A    
C10   H20   S    
C3    C5    S    
C12   C13   A    
N2    Zn1   S    
C18   C19   A    
C15   H6    S    
C17   H14   S    
C2    C23   S    
C17   H15   S    
C14   C15   S    
C8    C9    A    
O9    Zn2   S    
O3    Zn2   S    
C16   H10   S    
N1    Zn2   S    
C7    C21   S    
C1    O1    A    
C4    C18   S    
H17   N2    S    
C20   H22   S    
C14   O10   S    
C8    H18   S    
C16   C17   S    
C23   H9    S    
