data_mof_unit_45244.cif
_audit_creation_date              2012-12-10T18:41:01-0500
_audit_creation_method            fapswitch 2.2
_symmetry_space_group_name_H-M    P1
_symmetry_Int_Tables_number       1
_space_group_crystal_system       triclinic
_cell_length_a                    15.084311
_cell_length_b                    13.925376
_cell_length_c                    19.447348
_cell_angle_alpha                 89.872634
_cell_angle_beta                  90.85747
_cell_angle_gamma                 89.732396
_cell_volume                      4084.49415261

loop_
_atom_site_label
_atom_site_type_symbol
_atom_type_description
_atom_site_fract_x
_atom_site_fract_y
_atom_site_fract_z
_atom_type_partial_charge
C1    C     C_R   0.329873 0.500217 0.501566 0.836085
C2    C     C_R   0.669888 0.499810 0.500545 0.840507
C3    C     C_R   0.185031 0.582821 0.486280 -0.323817
C4    C     C_R   0.814003 0.430712 0.467075 -0.338472
C5    C     C_R   0.810424 0.567472 0.544131 -0.290794
C6    C     C_R   0.188738 0.420215 0.530889 -0.347567
C7    C     C_R   0.233190 0.500865 0.505939 -0.143799
C8    C     C_R   0.766161 0.499505 0.503614 -0.162157
C9    C     C_R   0.048230 0.501254 0.511832 -0.018656
C10   C     C_R   0.950990 0.499051 0.510693 -0.028716
C11   C     C_R   0.559873 0.108419 0.541913 -0.376165
C12   C     C_R   0.456769 0.892458 0.448584 -0.380569
C13   C     C_R   0.440997 0.108609 0.458751 -0.380614
C14   C     C_R   0.546832 0.890911 0.550931 -0.375274
C15   C     C_R   0.559757 0.210113 0.540761 0.584742
C16   C     C_R   0.453332 0.790767 0.450286 0.586957
C17   C     C_R   0.440672 0.210357 0.459270 0.586195
C18   C     C_R   0.546799 0.789056 0.550004 0.593467
C19   C     C_R   0.500801 0.054987 0.500295 0.078393
C20   C     C_R   0.500950 0.945165 0.500348 0.077565
C21   C     C_R   0.499360 0.500113 0.367886 0.783596
C22   C     C_R   0.499929 0.499893 0.632028 0.775174
C23   C     C_R   0.547064 0.430116 0.744058 -0.178939
C24   C     C_R   0.535830 0.576556 0.256598 -0.171208
C25   C     C_R   0.457761 0.424852 0.256579 -0.185126
C26   C     C_R   0.449595 0.568966 0.741969 -0.223905
C27   C     C_R   0.547068 0.430835 0.815670 -0.177616
C28   C     C_R   0.535579 0.576172 0.185010 -0.178047
C29   C     C_R   0.455459 0.425603 0.184975 -0.177843
C30   C     C_R   0.447704 0.568306 0.813501 -0.168196
C31   C     C_R   0.496933 0.499632 0.851249 0.111650
C32   C     C_R   0.495088 0.500846 0.148322 0.109259
C33   C     C_R   0.498923 0.499656 0.707013 -0.026682
C34   C     C_R   0.497734 0.500448 0.292718 -0.026521
C35   C     C_R   0.490357 0.586801 0.963592 -0.178993
C36   C     C_R   0.501297 0.413606 0.035980 -0.177047
C37   C     C_R   0.488619 0.587012 0.035142 -0.176973
C38   C     C_R   0.500843 0.413235 0.964383 -0.176954
C39   C     C_R   0.494773 0.500474 0.072213 0.101692
C40   C     C_R   0.496023 0.499876 0.927340 0.099787
C41   C     C_R   0.092169 0.582254 0.486081 0.448762
C42   C     C_R   0.906396 0.431917 0.468765 0.456948
C43   C     C_R   0.902769 0.565552 0.549794 0.454653
C44   C     C_R   0.096401 0.421061 0.535991 0.454622
Cu1   Cu    Cu3+1 0.500000 0.596430 0.500000 1.009277
Cu2   Cu    Cu3+1 0.500000 0.403570 0.500000 1.004007
H1    H     H_    0.586126 0.376585 0.717607 0.169812
H2    H     H_    0.567482 0.635302 0.283741 0.157076
H3    H     H_    0.426908 0.366078 0.283706 0.179044
H4    H     H_    0.411333 0.622582 0.713858 0.138124
H5    H     H_    0.587302 0.378271 0.843008 0.124831
H6    H     H_    0.568377 0.634194 0.158586 0.125995
H7    H     H_    0.421818 0.367681 0.158484 0.126462
H8    H     H_    0.406761 0.620898 0.839048 0.124522
H9    H     H_    0.488057 0.655023 0.936840 0.122857
H10   H     H_    0.507666 0.345691 0.062808 0.125971
H11   H     H_    0.481952 0.655154 0.061265 0.125014
H12   H     H_    0.503710 0.344824 0.938187 0.125743
H13   H     H_    0.219412 0.646677 0.470237 0.153842
H14   H     H_    0.779835 0.377729 0.435868 0.168931
H15   H     H_    0.773330 0.620619 0.572604 0.193817
H16   H     H_    0.225554 0.356939 0.547089 0.160074
H17   H     H_    0.606999 0.072955 0.575409 0.156230
H18   H     H_    0.427122 0.929006 0.405250 0.157862
H19   H     H_    0.393676 0.072971 0.425863 0.155299
H20   H     H_    0.584303 0.926169 0.590818 0.154270
N1    N     N_R   0.500000 0.258690 0.500000 -0.246924
N2    N     N_R   0.500000 0.741310 0.500000 -0.248093
O1    O     O_R   0.371460 0.581430 0.500010 -0.576751
O2    O     O_R   0.628540 0.418570 0.499990 -0.572155
O3    O     O_R   0.628540 0.581430 0.499990 -0.545352
O4    O     O_R   0.371460 0.418570 0.500010 -0.569970
O5    O     O_R   0.500020 0.581470 0.400190 -0.535477
O6    O     O_R   0.499980 0.418530 0.599810 -0.548110
O7    O     O_R   0.499980 0.581470 0.599810 -0.569989
O8    O     O_R   0.500020 0.418530 0.400190 -0.553981
O9    O     O_3   0.042520 0.661263 0.464371 -0.541742
C45   C     C_3   0.068040 0.691968 0.398246 0.045835
H21   H     H_    0.087920 0.631046 0.364490 0.119295
H22   H     H_    0.123703 0.743618 0.402956 0.141283
C46   C     C_3   0.990077 0.743130 0.363584 -0.768396
H23   H     H_    0.969428 0.805761 0.394886 0.261177
H24   H     H_    0.009393 0.768722 0.311826 0.192432
H25   H     H_    0.933339 0.693025 0.357970 0.239026
O10   O     O_3   0.953295 0.364988 0.431407 -0.543154
C47   C     C_3   0.966763 0.401912 0.364741 0.057869
H26   H     H_    0.991398 0.477328 0.365882 0.128792
H27   H     H_    0.903833 0.399207 0.334198 0.144248
C48   C     C_3   0.036121 0.340830 0.329171 -0.782895
H28   H     H_    0.013709 0.265084 0.326097 0.252881
H29   H     H_    0.046742 0.368377 0.276320 0.194727
H30   H     H_    0.099864 0.343800 0.358445 0.247070
O11   O     O_3   0.946626 0.631663 0.590724 -0.537416
C49   C     C_3   0.937959 0.604407 0.660247 0.049156
H31   H     H_    0.957922 0.527993 0.668592 0.128242
H32   H     H_    0.868462 0.614854 0.677286 0.136929
C50   C     C_3   0.998102 0.666894 0.704581 -0.770672
H33   H     H_    0.979174 0.743639 0.698382 0.254132
H34   H     H_    0.991779 0.646324 0.759484 0.191802
H35   H     H_    0.068179 0.657116 0.689164 0.246315
O12   O     O_3   0.051661 0.341715 0.560451 -0.546331
C51   C     C_3   0.071289 0.328941 0.631134 0.058529
H36   H     H_    0.073952 0.398470 0.659554 0.123266
H37   H     H_    0.135746 0.290718 0.637799 0.148052
C52   C     C_3   0.999002 0.268280 0.662963 -0.795660
H38   H     H_    0.994995 0.197579 0.636802 0.257612
H39   H     H_    0.013982 0.256491 0.718425 0.197874
H40   H     H_    0.934055 0.305732 0.657612 0.239842
O13   O     O_3   0.613564 0.262353 0.585365 -0.559535
C53   C     C_3   0.704072 0.235217 0.581359 0.072832
H41   H     H_    0.743193 0.300523 0.570152 0.186559
H42   H     H_    0.719457 0.182983 0.539737 0.126011
C54   C     C_3   0.736289 0.196039 0.650575 -0.855101
H43   H     H_    0.697606 0.131807 0.665247 0.241703
H44   H     H_    0.807337 0.175583 0.647502 0.220681
H45   H     H_    0.728748 0.251771 0.690869 0.245836
O14   O     O_3   0.413274 0.738724 0.397525 -0.545805
C55   C     C_3   0.329438 0.775307 0.376437 0.047175
H46   H     H_    0.300602 0.829854 0.411634 0.113902
H47   H     H_    0.282477 0.714367 0.375292 0.151959
C56   C     C_3   0.333963 0.814032 0.303194 -0.832517
H48   H     H_    0.381672 0.874123 0.299906 0.238079
H49   H     H_    0.355340 0.756036 0.267884 0.259431
H50   H     H_    0.267437 0.840216 0.286380 0.204866
O15   O     O_3   0.387656 0.262878 0.413749 -0.559350
C57   C     C_3   0.297300 0.235654 0.415736 0.066286
H51   H     H_    0.257245 0.301226 0.424940 0.182289
H52   H     H_    0.280648 0.184339 0.457686 0.121781
C58   C     C_3   0.268265 0.195389 0.346230 -0.853206
H53   H     H_    0.196974 0.176050 0.347538 0.220748
H54   H     H_    0.277861 0.250167 0.305437 0.248680
H55   H     H_    0.307411 0.130351 0.333521 0.240694
O16   O     O_3   0.602303 0.735917 0.593401 -0.551315
C59   C     C_3   0.596905 0.764094 0.663205 0.051194
H56   H     H_    0.583597 0.699009 0.694294 0.181793
H57   H     H_    0.542184 0.815523 0.674542 0.110689
C60   C     C_3   0.685719 0.804256 0.687640 -0.830609
H58   H     H_    0.703255 0.869060 0.657588 0.243747
H59   H     H_    0.682038 0.823890 0.742833 0.207205
H60   H     H_    0.738602 0.749327 0.681362 0.251518

loop_
_geom_bond_atom_site_label_1
_geom_bond_atom_site_label_2
_ccdc_geom_bond_type
C45   H21   S    
O11   C49   S    
C10   C42   A    
O14   C55   S    
C14   C18   A    
C19   C20   S    
C4    C8    A    
C17   O15   S    
C50   H35   S    
C59   C60   S    
Cu2   O8    S    
C46   H23   S    
C13   H19   S    
O9    C45   S    
C52   H39   S    
C21   O8    A    
C11   C19   A    
C57   H51   S    
C29   H7    S    
C51   C52   S    
C35   C37   A    
C58   H53   S    
C29   C32   A    
C3    C7    A    
C26   H4    S    
C41   O9    S    
C30   C31   A    
C12   H18   S    
C45   H22   S    
Cu1   O3    S    
C18   N2    A    
C21   O5    A    
C31   C40   S    
C18   O16   S    
Cu1   O5    S    
C32   C39   S    
C15   O13   S    
C55   H46   S    
C56   H50   S    
C46   H24   S    
C53   H41   S    
C11   C15   A    
C12   C16   A    
C23   C33   A    
C25   H3    S    
C24   C34   A    
C16   N2    A    
C23   C27   A    
C48   H29   S    
C9    C10   S    
Cu2   O4    S    
C25   C34   A    
C54   H45   S    
C30   H8    S    
C5    C43   A    
C6    C44   A    
C4    H14   S    
C49   H31   S    
C22   O7    A    
C50   H34   S    
C27   H5    S    
C50   H33   S    
C55   H47   S    
C25   C29   A    
C60   H60   S    
C17   N1    A    
C1    O4    A    
C23   H1    S    
C13   C19   A    
Cu1   O1    S    
C24   H2    S    
O12   C51   S    
C14   C20   A    
C28   C32   A    
C47   H26   S    
C59   H57   S    
C21   C34   S    
C49   C50   S    
Cu1   Cu2   S    
C27   C31   A    
C35   H9    S    
C1    O1    A    
C55   C56   S    
C51   H37   S    
Cu2   O2    S    
C36   H10   S    
C60   H59   S    
C26   C33   A    
C15   N1    A    
C12   C20   A    
Cu1   N2    S    
C14   H20   S    
C5    H15   S    
C42   O10   S    
C38   H12   S    
C52   H40   S    
C48   H30   S    
C49   H32   S    
C53   C54   S    
C56   H48   S    
C6    C7    A    
C26   C30   A    
O15   C57   S    
C22   O6    A    
C2    O3    A    
Cu2   O6    S    
C46   H25   S    
C54   H43   S    
C60   H58   S    
C22   C33   S    
C3    C41   A    
C9    C44   A    
C57   H52   S    
C10   C43   A    
C1    C7    S    
C36   C39   A    
C2    C8    S    
C24   C28   A    
C47   C48   S    
O10   C47   S    
C5    C8    A    
C44   O12   S    
C59   H56   S    
C52   H38   S    
C9    C41   A    
C57   C58   S    
C13   C17   A    
Cu1   O7    S    
C58   H55   S    
C36   C38   A    
C35   C40   A    
Cu2   N1    S    
C37   C39   A    
C16   O14   S    
C38   C40   A    
C28   H6    S    
C45   C46   S    
C6    H16   S    
O16   C59   S    
C4    C42   A    
C43   O11   S    
C47   H27   S    
C51   H36   S    
C53   H42   S    
C56   H49   S    
O13   C53   S    
C58   H54   S    
C48   H28   S    
C2    O2    A    
C11   H17   S    
C37   H11   S    
C54   H44   S    
C3    H13   S    
