data_mof_unit_32844.cif
_audit_creation_date              2012-12-11T15:37:24-0500
_audit_creation_method            fapswitch 2.2
_symmetry_space_group_name_H-M    P1
_symmetry_Int_Tables_number       1
_space_group_crystal_system       triclinic
_cell_length_a                    17.406599
_cell_length_b                    24.265933
_cell_length_c                    14.94601
_cell_angle_alpha                 90.060069
_cell_angle_beta                  125.977305
_cell_angle_gamma                 89.420589
_cell_volume                      5108.44378935

loop_
_atom_site_label
_atom_site_type_symbol
_atom_type_description
_atom_site_fract_x
_atom_site_fract_y
_atom_site_fract_z
_atom_type_partial_charge
C1    C     C_R   0.808856 0.625359 0.909245 -0.124546
C2    C     C_3   0.591772 0.498523 0.550614 0.166069
C3    C     C_3   0.069367 0.982531 0.428360 -0.141324
C4    C     C_2   0.181109 0.663456 0.795214 0.962997
C5    C     C_2   0.993893 0.235616 0.211248 0.966526
C6    C     C_2   0.809939 0.650389 0.208941 0.977713
C7    C     C_2   0.002497 0.234200 0.796787 0.968044
C8    C     C_2   0.681302 0.163346 0.795259 0.962886
C9    C     C_2   0.493829 0.735622 0.211192 0.966912
C10   C     C_2   0.309557 0.150152 0.208684 0.977833
C11   C     C_2   0.502392 0.734094 0.796985 0.967790
C12   C     C_3   0.924426 0.996800 0.367856 0.162518
C13   C     C_3   0.096899 0.999730 0.542061 0.166186
C14   C     C_R   0.800350 0.232550 0.906725 -0.189120
C15   C     C_R   0.335848 0.692037 0.101259 -0.224010
C16   C     C_R   0.203436 0.228987 0.100000 -0.180982
C17   C     C_R   0.653446 0.681593 0.903752 -0.224312
C18   C     C_R   0.300281 0.732590 0.906677 -0.188763
C19   C     C_R   0.835991 0.191935 0.101303 -0.226319
C20   C     C_R   0.703417 0.729051 0.100166 -0.181106
C21   C     C_R   0.146383 0.345979 0.090768 -0.119991
C22   C     C_R   0.153321 0.181503 0.903534 -0.224122
C23   C     C_R   0.242999 0.691750 0.901577 -0.066304
C24   C     C_R   0.898293 0.229377 0.106024 -0.071843
C25   C     C_R   0.750987 0.681663 0.103525 -0.091034
C26   C     C_R   0.098172 0.224577 0.900476 -0.065688
C27   C     C_R   0.743142 0.191655 0.901623 -0.066230
C28   C     C_R   0.398213 0.729420 0.105975 -0.072095
C29   C     C_R   0.250755 0.181476 0.103304 -0.091365
C30   C     C_R   0.598129 0.724566 0.900650 -0.065479
C31   C     C_R   0.251479 0.678063 0.998970 0.050508
C32   C     C_R   0.181254 0.635649 0.090862 -0.132557
C33   C     C_R   0.868918 0.256964 0.007562 0.072508
C34   C     C_R   0.737091 0.664638 0.004536 0.060077
C35   C     C_R   0.134493 0.254679 0.998577 0.061547
C36   C     C_R   0.751642 0.177934 0.999015 0.050327
C37   C     C_R   0.368873 0.756989 0.007512 0.072362
C38   C     C_R   0.236802 0.164385 0.004312 0.059846
C39   C     C_R   0.634386 0.754679 0.998709 0.061882
C40   C     C_R   0.093842 0.451597 0.614799 -0.164195
C41   C     C_R   0.088448 0.551131 0.518252 -0.158912
C42   C     C_R   0.114542 0.452219 0.538420 -0.162218
C43   C     C_R   0.854957 0.346430 0.910967 -0.101500
C44   C     C_R   0.061440 0.549842 0.587275 -0.066908
C45   C     C_R   0.593694 0.951594 0.614680 -0.164822
C46   C     C_R   0.588385 0.051136 0.518210 -0.159616
C47   C     C_R   0.614462 0.952222 0.538366 -0.161465
C48   C     C_R   0.561314 0.049843 0.587172 -0.066858
C49   C     C_R   0.102452 0.501453 0.482392 0.122718
C50   C     C_R   0.059709 0.499958 0.632270 0.154816
C51   C     C_R   0.602407 0.001458 0.482364 0.123264
C52   C     C_R   0.559538 0.999954 0.632120 0.154817
C53   C     C_R   0.945609 0.349480 0.095396 -0.102733
C54   C     C_R   0.308528 0.124870 0.909087 -0.125868
C55   C     C_R   0.087004 0.634448 0.906568 -0.076200
C56   C     C_R   0.055693 0.348545 0.907005 -0.114392
C57   C     C_R   0.905652 0.625403 0.094601 -0.085114
C58   C     C_R   0.445597 0.849480 0.095374 -0.103235
C59   C     C_R   0.587116 0.134365 0.906588 -0.076348
C60   C     C_R   0.555643 0.848526 0.907026 -0.114367
C61   C     C_R   0.405467 0.125278 0.094487 -0.085102
C62   C     C_R   0.056015 0.545921 0.306201 -0.081853
C63   C     C_R   0.002632 0.452871 0.733468 -0.143612
C64   C     C_R   0.994849 0.545693 0.726069 -0.067234
C65   C     C_R   0.646325 0.845978 0.090789 -0.119983
C66   C     C_R   0.053528 0.453855 0.306133 -0.113805
C67   C     C_R   0.555997 0.045925 0.306190 -0.082446
C68   C     C_R   0.502525 0.952867 0.733370 -0.143909
C69   C     C_R   0.494719 0.045690 0.725952 -0.066270
C70   C     C_R   0.553516 0.953857 0.306127 -0.112981
C71   C     C_R   0.735589 0.453597 0.709498 -0.128222
C72   C     C_R   0.270124 0.544527 0.258181 -0.130374
C73   C     C_R   0.268542 0.453200 0.250611 -0.133386
C74   C     C_R   0.735429 0.545423 0.704789 -0.151239
C75   C     C_R   0.238891 0.954096 0.702843 -0.136224
C76   C     C_R   0.681383 0.135532 0.090895 -0.132657
C77   C     C_R   0.770453 0.044327 0.259365 -0.137216
C78   C     C_R   0.768522 0.952816 0.252575 -0.125666
C79   C     C_R   0.238685 0.045797 0.700949 -0.142069
C80   C     C_R   0.813254 0.637728 0.003513 0.074726
C81   C     C_R   0.113599 0.314118 0.997946 0.075082
C82   C     C_R   0.175759 0.650657 0.997820 0.070675
C83   C     C_R   0.889347 0.315245 0.005618 0.073019
C84   C     C_R   0.312942 0.137381 0.003334 0.075549
C85   C     C_R   0.613501 0.814108 0.997992 0.075419
C86   C     C_R   0.675920 0.150514 0.997856 0.070639
C87   C     C_R   0.354867 0.846460 0.910919 -0.100586
C88   C     C_R   0.389293 0.815264 0.005571 0.072713
C89   C     C_R   0.074527 0.500041 0.370480 0.044274
C90   C     C_R   0.019897 0.499197 0.694006 0.053462
C91   C     C_R   0.574505 0.000045 0.370467 0.045126
C92   C     C_R   0.519725 0.999193 0.693847 0.053412
C93   C     C_R   0.682405 0.499342 0.654425 0.045903
C94   C     C_R   0.324884 0.498478 0.280266 0.045663
C95   C     C_R   0.188395 0.000014 0.644790 0.044083
C96   C     C_R   0.824948 0.997915 0.283278 0.045507
C97   C     C_3   0.521905 0.451670 0.517283 -0.155269
C98   C     C_3   0.423231 0.497513 0.369295 0.162782
C99   C     C_3   0.493080 0.544397 0.402388 -0.150330
C100  C     C_3   0.498435 0.453492 0.400341 -0.152879
C101  C     C_3   0.516299 0.542367 0.519089 -0.152505
C102  C     C_3   0.020303 0.963658 0.530863 -0.143081
C103  C     C_3   0.000556 0.032976 0.378234 -0.137429
C104  C     C_3   0.990518 0.946447 0.415388 -0.159062
C105  C     C_3   0.030692 0.049981 0.494220 -0.153590
C106  C     C_3   0.445526 0.495583 0.484872 -0.134925
C107  C     C_3   0.570835 0.500405 0.435932 -0.133932
C108  C     C_3   0.953421 0.013831 0.482474 -0.141016
H1    H     H_    0.749376 0.631396 0.824337 0.101500
H2    H     H_    0.051938 0.648132 0.822771 0.090250
H3    H     H_    0.012019 0.337249 0.821200 0.111597
H4    H     H_    0.937476 0.632578 0.180677 0.106116
H5    H     H_    0.488802 0.838897 0.181909 0.112942
H6    H     H_    0.552102 0.148035 0.822794 0.090314
H7    H     H_    0.511958 0.837210 0.821227 0.111497
H8    H     H_    0.437238 0.132520 0.180534 0.106018
H9    H     H_    0.076926 0.587843 0.333508 0.080867
H10   H     H_    0.009973 0.410130 0.719539 0.100897
H11   H     H_    0.988800 0.587548 0.699603 0.095349
H12   H     H_    0.183133 0.331665 0.175004 0.116822
H13   H     H_    0.068839 0.411344 0.333225 0.093663
H14   H     H_    0.576885 0.087851 0.333484 0.080831
H15   H     H_    0.509845 0.910122 0.719434 0.100769
H16   H     H_    0.488612 0.087544 0.699444 0.095012
H17   H     H_    0.568822 0.911346 0.333218 0.093646
H18   H     H_    0.719803 0.411002 0.684078 0.102842
H19   H     H_    0.295712 0.585088 0.291003 0.099544
H20   H     H_    0.290368 0.410350 0.266861 0.107066
H21   H     H_    0.718873 0.587116 0.672668 0.104125
H22   H     H_    0.223707 0.911571 0.676687 0.107085
H23   H     H_    0.232405 0.649152 0.174210 0.096690
H24   H     H_    0.796323 0.085025 0.290800 0.102333
H25   H     H_    0.789664 0.909867 0.268136 0.102192
H26   H     H_    0.223838 0.087896 0.671141 0.098264
H27   H     H_    0.391811 0.493524 0.502419 0.125609
H28   H     H_    0.625800 0.502456 0.420462 0.127851
H29   H     H_    0.903879 0.026433 0.502916 0.126899
H30   H     H_    0.120577 0.970001 0.410504 0.126841
H31   H     H_    0.535656 0.414034 0.567064 0.126196
H32   H     H_    0.478298 0.581925 0.351921 0.135786
H33   H     H_    0.487876 0.417552 0.348359 0.125033
H34   H     H_    0.817305 0.332242 0.826831 0.119522
H35   H     H_    0.525933 0.578414 0.570470 0.132707
H36   H     H_    0.030570 0.935627 0.595865 0.126786
H37   H     H_    0.988919 0.060930 0.312443 0.133438
H38   H     H_    0.971617 0.904300 0.380316 0.124232
H39   H     H_    0.048549 0.092317 0.528455 0.131739
H40   H     H_    0.788181 0.246585 0.830748 0.183023
H41   H     H_    0.353933 0.673971 0.177524 0.154744
H42   H     H_    0.222294 0.246116 0.177105 0.178314
H43   H     H_    0.631636 0.662200 0.827139 0.156033
H44   H     H_    0.288134 0.746607 0.830701 0.183083
H45   H     H_    0.248753 0.130218 0.824037 0.102477
H46   H     H_    0.854097 0.173848 0.177563 0.156753
H47   H     H_    0.722196 0.746154 0.177256 0.178150
H48   H     H_    0.131518 0.162167 0.826878 0.157218
H49   H     H_    0.097899 0.412818 0.653010 0.121107
H50   H     H_    0.082739 0.590436 0.480875 0.108525
H51   H     H_    0.130531 0.413621 0.516040 0.118181
H52   H     H_    0.034752 0.587723 0.596975 0.104158
H53   H     H_    0.597728 0.912813 0.652870 0.121206
H54   H     H_    0.582715 0.090442 0.480863 0.108548
H55   H     H_    0.630471 0.913624 0.516005 0.118402
H56   H     H_    0.682994 0.831664 0.175012 0.116551
H57   H     H_    0.534636 0.087727 0.596884 0.104185
H58   H     H_    0.098627 0.670682 0.628263 0.313813
H59   H     H_    0.075904 0.232091 0.377919 0.325206
H60   H     H_    0.894188 0.652141 0.375710 0.318209
H61   H     H_    0.918114 0.232836 0.630046 0.326409
H62   H     H_    0.599004 0.170543 0.628308 0.313896
H63   H     H_    0.575850 0.732088 0.377862 0.325646
H64   H     H_    0.393587 0.151824 0.375458 0.318316
H65   H     H_    0.417867 0.732506 0.630254 0.326340
H66   H     H_    0.732525 0.149041 0.174231 0.097454
H67   H     H_    0.317095 0.832316 0.826736 0.119854
H68   H     H_    0.988800 0.338909 0.181937 0.112857
N1    N     N_R   0.892620 0.603790 0.941800 -0.047311
N2    N     N_R   0.047790 0.602400 0.942090 -0.048111
N3    N     N_R   0.047790 0.397600 0.942090 -0.042916
N4    N     N_R   0.952210 0.602400 0.057910 -0.051522
N5    N     N_R   0.452210 0.897600 0.057910 -0.045413
N6    N     N_R   0.547790 0.102400 0.942090 -0.048208
N7    N     N_R   0.547790 0.897600 0.942090 -0.042988
N8    N     N_R   0.452210 0.102400 0.057910 -0.051510
N9    N     N_R   0.026300 0.529110 0.206760 -0.040389
N10   N     N_R   0.973700 0.470890 0.793240 -0.042404
N11   N     N_R   0.973700 0.529110 0.793240 -0.049043
N12   N     N_R   0.107380 0.396210 0.058200 -0.045028
N13   N     N_R   0.026300 0.470890 0.206760 -0.041061
N14   N     N_R   0.526300 0.029110 0.206760 -0.040395
N15   N     N_R   0.473700 0.970890 0.793240 -0.042021
N16   N     N_R   0.473700 0.029110 0.793240 -0.048772
N17   N     N_R   0.526300 0.970890 0.206760 -0.041226
N18   N     N_R   0.818530 0.472270 0.792960 -0.039088
N19   N     N_R   0.181470 0.527730 0.207040 -0.042996
N20   N     N_R   0.181470 0.472270 0.207040 -0.044203
N21   N     N_R   0.818530 0.527730 0.792960 -0.038609
N22   N     N_R   0.318530 0.972270 0.792960 -0.038501
N23   N     N_R   0.107380 0.603790 0.058200 -0.043494
N24   N     N_R   0.681470 0.027730 0.207040 -0.042476
N25   N     N_R   0.681470 0.972270 0.207040 -0.043780
N26   N     N_R   0.318530 0.027730 0.792960 -0.038949
N27   N     N_R   0.892620 0.396210 0.941800 -0.046930
N28   N     N_R   0.392620 0.103790 0.941800 -0.047685
N29   N     N_R   0.607380 0.896210 0.058200 -0.045315
N30   N     N_R   0.607380 0.103790 0.058200 -0.043471
N31   N     N_R   0.392620 0.896210 0.941800 -0.047097
N32   N     N_R   0.952210 0.397600 0.057910 -0.045251
Ni1   Ni    Ni4+2 0.934150 0.565840 0.869060 0.221225
Ni2   Ni    Ni4+2 0.065850 0.434160 0.130940 0.226713
Ni3   Ni    Ni4+2 0.065850 0.565840 0.130940 0.219072
Ni4   Ni    Ni4+2 0.934150 0.434160 0.869060 0.230765
Ni5   Ni    Ni4+2 0.434150 0.065840 0.869060 0.220822
Ni6   Ni    Ni4+2 0.565850 0.934160 0.130940 0.227106
Ni7   Ni    Ni4+2 0.565850 0.065840 0.130940 0.218845
Ni8   Ni    Ni4+2 0.434150 0.934160 0.869060 0.230078
O1    O     O_2   0.177065 0.613228 0.793234 -0.656621
O2    O     O_R   0.633515 0.194055 0.697001 -0.810031
O3    O     O_2   0.561744 0.745819 0.209654 -0.660383
O4    O     O_R   0.507245 0.727449 0.312135 -0.814353
O5    O     O_2   0.314637 0.099868 0.207340 -0.638717
O6    O     O_R   0.356296 0.177795 0.309669 -0.807884
O7    O     O_2   0.436428 0.747406 0.800846 -0.667372
O8    O     O_R   0.486402 0.725367 0.694811 -0.813211
O9    O     O_R   0.133214 0.694182 0.696972 -0.809711
O10   O     O_2   0.061802 0.245848 0.209719 -0.660604
O11   O     O_R   0.007308 0.227430 0.312187 -0.813198
O12   O     O_2   0.815012 0.600102 0.207675 -0.638556
O13   O     O_R   0.856807 0.678083 0.309881 -0.808133
O14   O     O_2   0.936482 0.247443 0.800602 -0.667262
O15   O     O_R   0.986619 0.225640 0.694631 -0.812547
O16   O     O_2   0.677205 0.113119 0.793298 -0.656792

loop_
_geom_bond_atom_site_label_1
_geom_bond_atom_site_label_2
_ccdc_geom_bond_type
N30   Ni7   S    
C3    C104  S    
N2    N23   A    
C62   C89   A    
N8    N28   A    
C20   H47   S    
N10   Ni4   S    
N4    Ni3   S    
C43   C83   A    
C37   C88   S    
C70   C91   A    
C57   C80   A    
C78   N25   A    
C64   C90   A    
C87   C88   A    
N22   Ni8   S    
C53   N32   A    
C72   N19   A    
C54   C84   A    
C35   C81   S    
C67   N14   A    
C75   C95   A    
N17   Ni6   S    
C7    O15   S    
C79   C95   A    
C103  H37   S    
C64   H11   S    
C102  H36   S    
C13   C95   S    
C58   N5    A    
N5    N31   A    
C18   C37   A    
C12   C104  S    
C32   N23   A    
N13   Ni2   S    
H58   O9    S    
C16   C35   A    
C108  H29   S    
C54   N28   A    
C57   H4    S    
C65   N29   A    
C20   C25   A    
C94   C98   S    
C3    C103  S    
C105  H39   S    
C66   N13   A    
C14   H40   S    
C2    C107  S    
C101  C106  S    
N24   Ni7   S    
C5    O10   D    
C68   H15   S    
N20   Ni2   S    
N1    Ni1   S    
C32   C82   A    
C45   H53   S    
C62   H9    S    
N14   N17   A    
C51   C91   S    
H60   O13   S    
C1    N1    A    
C50   C90   S    
C48   H57   S    
C42   H51   S    
C2    C97   S    
C78   C96   A    
N24   N25   A    
C61   N8    A    
C6    O12   D    
C29   C38   A    
N22   N26   A    
N6    Ni5   S    
N9    Ni3   S    
C71   H18   S    
C102  C108  S    
N5    Ni6   S    
C14   C27   A    
C69   C92   A    
N14   Ni7   S    
C56   H3    S    
H63   O4    S    
C3    C13   S    
C75   H22   S    
C25   C34   A    
C47   H55   S    
C9    O3    D    
C60   N7    A    
C40   C42   A    
C17   C30   A    
C74   C93   A    
C17   H43   S    
N12   Ni2   S    
C73   C94   A    
C54   H45   S    
C18   H44   S    
C69   N16   A    
C41   C49   A    
C78   H25   S    
C76   N30   A    
C66   C89   A    
C31   C82   S    
C45   C47   A    
C8    O16   D    
C105  C108  S    
C46   C48   A    
C72   H19   S    
N15   N16   A    
N11   Ni1   S    
C40   H49   S    
C56   C81   A    
C8    O2    S    
C11   C30   S    
C12   C103  S    
C13   C105  S    
C2    C101  S    
C11   O7    D    
C12   C108  S    
C20   C39   A    
C10   O6    S    
C71   N18   A    
C22   H48   S    
N3    N12   A    
C45   C52   A    
C36   C86   S    
C16   C29   A    
N3    Ni4   S    
C1    H1    S    
H61   O15   S    
N2    Ni1   S    
N6    N30   A    
C77   H24   S    
C23   C31   A    
C43   H34   S    
C59   N6    A    
N19   Ni3   S    
C107  H28   S    
C104  H38   S    
N15   Ni8   S    
C58   H5    S    
C14   C33   A    
H59   O11   S    
C18   C23   A    
C74   N21   A    
N19   N20   A    
N1    N4    A    
C10   O5    D    
C61   H8    S    
C67   C91   A    
C66   H13   S    
C103  C105  S    
C3    H30   S    
C70   N17   A    
C4    O9    S    
C55   C82   A    
C102  C104  S    
C33   C83   S    
N7    N29   A    
C87   N31   A    
N10   N11   A    
C68   N15   A    
C97   C106  S    
C70   H17   S    
N18   N21   A    
C106  H27   S    
C99   C101  S    
C21   C81   A    
N29   Ni6   S    
C98   C99   S    
C98   C100  S    
C62   N9    A    
C55   H2    S    
C43   N27   A    
C44   H52   S    
C41   C44   A    
C99   H32   S    
C73   N20   A    
C65   H56   S    
C17   C34   A    
C39   C85   S    
C67   H14   S    
C76   C86   A    
N16   Ni5   S    
C15   H41   S    
C97   C100  S    
C87   H67   S    
C6    O13   S    
C9    O4    S    
C21   N12   A    
C75   N22   A    
C44   C50   A    
N7    Ni8   S    
C19   H46   S    
C79   H26   S    
C100  C107  S    
C38   C84   S    
C79   N26   A    
C2    C93   S    
C12   C96   S    
C49   C89   S    
C55   N2    A    
N8    Ni7   S    
C61   C84   A    
C58   C88   A    
C11   O8    S    
C63   H10   S    
C57   N4    A    
C47   C51   A    
C60   C85   A    
N9    N13   A    
C71   C93   A    
C27   C36   A    
C21   H12   S    
C73   H20   S    
C99   C107  S    
N27   N32   A    
C77   C96   A    
C24   C33   A    
C98   C106  S    
C53   C83   A    
C19   C36   A    
C34   C80   S    
C15   C31   A    
C76   H66   S    
C100  H33   S    
C13   C102  S    
C59   C86   A    
C72   C94   A    
C65   C85   A    
C101  H35   S    
C10   C29   S    
C15   C28   A    
C5    C24   S    
C7    C26   S    
C28   C37   A    
C59   H6    S    
C40   C50   A    
C46   C51   A    
C63   C90   A    
N31   Ni8   S    
C68   C92   A    
C30   C39   A    
C19   C24   A    
N23   Ni3   S    
C32   H23   S    
N26   Ni5   S    
N28   Ni5   S    
N27   Ni4   S    
C77   N24   A    
N25   Ni6   S    
C64   N11   A    
N21   Ni1   S    
C69   H16   S    
C42   C49   A    
N18   Ni4   S    
C41   H50   S    
C6    C25   S    
C5    O11   S    
C26   C35   A    
C48   C52   A    
C63   N10   A    
C53   H68   S    
N32   Ni2   S    
C4    O1    D    
C22   C26   A    
C74   H21   S    
H64   O6    S    
C8    C27   S    
C1    C80   A    
C60   H7    S    
C16   H42   S    
C4    C23   S    
H65   O8    S    
C46   H54   S    
C97   H31   S    
C52   C92   S    
C56   N3    A    
C9    C28   S    
H62   O2    S    
C7    O14   D    
C22   C38   A    
