data_mof_unit_5124.cif
_audit_creation_date              2012-12-11T16:27:25-0500
_audit_creation_method            fapswitch 2.2
_symmetry_space_group_name_H-M    P1
_symmetry_Int_Tables_number       1
_space_group_crystal_system       triclinic
_cell_length_a                    21.687476
_cell_length_b                    6.969362
_cell_length_c                    14.420168
_cell_angle_alpha                 90.000127
_cell_angle_beta                  102.992444
_cell_angle_gamma                 90.000018
_cell_volume                      2123.77989979

loop_
_atom_site_label
_atom_site_type_symbol
_atom_type_description
_atom_site_fract_x
_atom_site_fract_y
_atom_site_fract_z
_atom_type_partial_charge
O1    O     O_R   0.835850 0.638310 0.002120 -0.527122
O2    O     O_R   0.164150 0.361690 0.997880 -0.530534
O3    O     O_R   0.664150 0.138310 0.997880 -0.527122
O4    O     O_R   0.335850 0.861690 0.002120 -0.530534
O5    O     O_R   0.717530 0.306070 0.861970 -0.539311
O6    O     O_R   0.282470 0.693930 0.138030 -0.548552
O7    O     O_R   0.782470 0.806070 0.138030 -0.539311
O8    O     O_R   0.217530 0.193930 0.861970 -0.548551
C1    C     C_R   0.701925 0.475509 0.825431 0.697920
C2    C     C_R   0.295701 0.524217 0.175510 0.735687
C3    C     C_R   0.798075 0.975509 0.174569 0.697920
C4    C     C_R   0.204299 0.024217 0.824490 0.735686
O9    O     O_R   0.838690 0.308440 0.993250 -0.545281
O10   O     O_R   0.161310 0.691560 0.006750 -0.535736
O11   O     O_R   0.661310 0.808440 0.006750 -0.545280
O12   O     O_R   0.338690 0.191560 0.993250 -0.535736
O13   O     O_R   0.786170 0.140510 0.130090 -0.537634
O14   O     O_R   0.213830 0.859490 0.869910 -0.528767
O15   O     O_R   0.713830 0.640510 0.869910 -0.537634
O16   O     O_R   0.286170 0.359490 0.130090 -0.528767
C5    C     C_R   0.864978 0.478242 0.996532 0.756915
C6    C     C_R   0.135159 0.521555 0.004927 0.754655
C7    C     C_R   0.635022 0.978242 0.003468 0.756915
C8    C     C_R   0.364841 0.021555 0.995073 0.754655
O17   O     O_3   0.732630 0.472520 0.044740 -0.365557
O18   O     O_3   0.267370 0.527480 0.955260 -0.367490
O19   O     O_3   0.767370 0.972520 0.955260 -0.365557
O20   O     O_3   0.232630 0.027480 0.044740 -0.367490
V1    V     V_3+5 0.753220 0.196740 0.991700 1.446914
V2    V     V_3+5 0.246780 0.803260 0.008300 1.471725
V3    V     V_3+5 0.746780 0.696740 0.008300 1.446913
V4    V     V_3+5 0.253220 0.303260 0.991700 1.471725
C9    C     C_R   0.538565 0.975983 0.821394 0.094058
C10   C     C_R   0.461664 0.021406 0.177270 0.119133
C11   C     C_R   0.961435 0.475983 0.178605 0.094058
C12   C     C_R   0.038336 0.521406 0.822730 0.119133
C13   C     C_R   0.493080 0.938719 0.737076 0.265735
C14   C     C_R   0.507580 0.044901 0.262492 0.201711
C15   C     C_R   0.006920 0.438719 0.262924 0.265736
C16   C     C_R   0.992420 0.544901 0.737508 0.201711
C17   C     C_R   0.428841 0.918342 0.740230 0.321834
C18   C     C_R   0.571889 0.061730 0.259896 0.316120
C19   C     C_R   0.071159 0.418341 0.259770 0.321835
C20   C     C_R   0.928111 0.561730 0.740104 0.316120
C21   C     C_R   0.410940 0.937187 0.826752 -0.211111
C22   C     C_R   0.589578 0.050011 0.172967 -0.208567
C23   C     C_R   0.089060 0.437187 0.173247 -0.211111
C24   C     C_R   0.910422 0.550011 0.827033 -0.208568
C25   C     C_R   0.455102 0.976517 0.912495 -0.077514
C26   C     C_R   0.545098 0.018981 0.086465 -0.079982
C27   C     C_R   0.044897 0.476516 0.087504 -0.077514
C28   C     C_R   0.954902 0.518981 0.913535 -0.079982
C29   C     C_R   0.520742 0.982435 0.911591 0.016480
C30   C     C_R   0.479408 0.016155 0.087117 0.025663
C31   C     C_R   0.979258 0.482435 0.088409 0.016480
C32   C     C_R   0.020592 0.516155 0.912883 0.025663
C33   C     C_R   0.434137 0.005981 0.998470 -0.088192
C34   C     C_R   0.565919 0.993672 0.000171 -0.092827
C35   C     C_R   0.065863 0.505981 0.001530 -0.088192
C36   C     C_R   0.934081 0.493672 0.999829 -0.092827
H1    H     H_    0.361336 0.919157 0.825946 0.143685
H2    H     H_    0.639309 0.065488 0.174158 0.148292
H3    H     H_    0.138664 0.419157 0.174053 0.143685
H4    H     H_    0.860691 0.565488 0.825842 0.148292
C37   C     C_R   0.175848 0.021793 0.721421 -0.159113
C38   C     C_R   0.828405 0.978986 0.276809 -0.205653
C39   C     C_R   0.324151 0.521794 0.278579 -0.159113
C40   C     C_R   0.671595 0.478985 0.723191 -0.205654
C41   C     C_R   0.188018 0.001210 0.559390 -0.121327
C42   C     C_R   0.817717 0.010642 0.439064 -0.128515
C43   C     C_R   0.311982 0.501211 0.440610 -0.121327
C44   C     C_R   0.682282 0.510641 0.560936 -0.128515
C45   C     C_R   0.214331 0.036764 0.654813 0.305197
C46   C     C_R   0.790656 0.970562 0.344556 0.333913
C47   C     C_R   0.285669 0.536765 0.345187 0.305197
C48   C     C_R   0.709344 0.470562 0.655444 0.333913
C49   C     C_R   0.109418 0.008727 0.689690 0.105649
C50   C     C_R   0.895362 0.990314 0.307462 0.106044
C51   C     C_R   0.390582 0.508729 0.310310 0.105649
C52   C     C_R   0.604638 0.490313 0.692537 0.106045
C53   C     C_R   0.081326 0.007210 0.589211 0.064842
C54   C     C_R   0.923931 0.997478 0.407417 0.115003
C55   C     C_R   0.418674 0.507211 0.410789 0.064841
C56   C     C_R   0.576069 0.497478 0.592583 0.115004
C57   C     C_R   0.122660 0.980550 0.526751 0.015700
C58   C     C_R   0.883128 0.029993 0.470263 0.001753
C59   C     C_R   0.377340 0.480551 0.473249 0.015699
C60   C     C_R   0.616872 0.529993 0.529737 0.001753
C61   C     C_R   0.014860 0.025652 0.547321 0.050567
C62   C     C_R   0.990726 0.981000 0.448484 0.075975
C63   C     C_R   0.485140 0.525652 0.452679 0.050566
C64   C     C_R   0.509273 0.481001 0.551516 0.075976
C65   C     C_R   0.034136 0.916680 0.395785 -0.125686
C66   C     C_R   0.972196 0.097197 0.599182 -0.173334
C67   C     C_R   0.465864 0.416681 0.604214 -0.125685
C68   C     C_R   0.527804 0.597198 0.400819 -0.173335
C69   C     C_R   0.098758 0.929612 0.432113 -0.153578
C70   C     C_R   0.907579 0.086036 0.563896 -0.149092
C71   C     C_R   0.401242 0.429613 0.567887 -0.153578
C72   C     C_R   0.592421 0.586036 0.436105 -0.149092
H5    H     H_    0.130467 0.892745 0.386435 0.159403
H6    H     H_    0.876369 0.127653 0.609569 0.155646
H7    H     H_    0.369533 0.392746 0.613565 0.159403
H8    H     H_    0.623631 0.627653 0.390431 0.155646
H9    H     H_    0.218930 0.994822 0.509853 0.162628
H10   H     H_    0.787285 0.021791 0.489135 0.164701
H11   H     H_    0.281070 0.494824 0.490147 0.162628
H12   H     H_    0.712715 0.521790 0.510865 0.164701
H13   H     H_    0.019984 0.853184 0.326412 0.173097
H14   H     H_    0.987591 0.163156 0.667737 0.151200
H15   H     H_    0.480016 0.353184 0.673588 0.173097
H16   H     H_    0.512409 0.663156 0.332263 0.151200
O21   O     O_3   0.618917 0.088689 0.340731 -0.614274
H17   H     H_    0.607067 0.020396 0.394366 0.305926
O22   O     O_3   0.381965 0.882731 0.660209 -0.617272
H18   H     H_    0.391646 0.956279 0.606455 0.302235
O23   O     O_3   0.881083 0.588688 0.659269 -0.614274
H19   H     H_    0.892932 0.520396 0.605634 0.305926
O24   O     O_3   0.118035 0.382730 0.339791 -0.617273
H20   H     H_    0.108354 0.456278 0.393544 0.302236
N1    N     N_3   0.602625 0.011504 0.813435 -0.636436
H21   H     H_    0.602399 0.113035 0.760328 0.251766
H22   H     H_    0.621484 0.888773 0.789462 0.252070
N2    N     N_3   0.396892 0.002934 0.184204 -0.623407
H23   H     H_    0.383336 0.127733 0.214186 0.281457
H24   H     H_    0.393203 0.890366 0.230344 0.246783
N3    N     N_3   0.897375 0.511505 0.186564 -0.636437
H25   H     H_    0.897601 0.613036 0.239672 0.251766
H26   H     H_    0.878516 0.388774 0.210538 0.252070
N4    N     N_3   0.103108 0.502933 0.815796 -0.623407
H27   H     H_    0.116664 0.627733 0.785814 0.281457
H28   H     H_    0.106797 0.390365 0.769656 0.246782
O25   O     O_3   0.513927 0.921653 0.653573 -0.647311
H29   H     H_    0.482481 0.850074 0.605925 0.309442
O26   O     O_3   0.486993 0.057583 0.346406 -0.652505
H30   H     H_    0.516910 0.137352 0.392542 0.303788
O27   O     O_3   0.986073 0.421653 0.346426 -0.647311
H31   H     H_    0.017518 0.350073 0.394074 0.309443
O28   O     O_3   0.013007 0.557582 0.653594 -0.652504
H32   H     H_    0.983090 0.637352 0.607458 0.303788
N5    N     N_3   0.933073 0.006415 0.237432 -0.677588
H33   H     H_    0.916415 0.117381 0.190574 0.238003
H34   H     H_    0.927776 0.883620 0.195384 0.226549
N6    N     N_3   0.074079 0.973502 0.761301 -0.687090
H35   H     H_    0.063814 0.102383 0.791341 0.226267
H36   H     H_    0.033118 0.895432 0.734734 0.254202
N7    N     N_3   0.566927 0.506414 0.762568 -0.677589
H37   H     H_    0.583585 0.617380 0.809427 0.238003
H38   H     H_    0.572223 0.383619 0.804615 0.226549
N8    N     N_3   0.425921 0.473502 0.238699 -0.687088
H39   H     H_    0.436186 0.602384 0.208660 0.226267
H40   H     H_    0.466881 0.395432 0.265266 0.254202
O29   O     O_3   0.727004 0.928749 0.321457 -0.622815
H41   H     H_    0.716769 0.858914 0.260246 0.279528
O30   O     O_3   0.277860 0.080462 0.679725 -0.628708
H42   H     H_    0.287714 0.141890 0.743139 0.272020
O31   O     O_3   0.772996 0.428748 0.678543 -0.622815
H43   H     H_    0.783231 0.358913 0.739753 0.279528
O32   O     O_3   0.222140 0.580463 0.320275 -0.628708
H44   H     H_    0.212286 0.641890 0.256860 0.272020

loop_
_geom_bond_atom_site_label_1
_geom_bond_atom_site_label_2
_ccdc_geom_bond_type
C40   C52   A    
C7    C34   S    
C71   H7    S    
C15   O27   S    
O1    C5    A    
O31   H43   S    
C29   C34   A    
C43   H11   S    
O19   V1    S    
O13   V1    S    
O3    C7    A    
N7    H37   S    
C72   H8    S    
C52   C56   A    
O4    V2    S    
O15   V3    S    
C25   C33   A    
O26   H30   S    
C2    C39   S    
O18   V4    S    
C68   H16   S    
O5    C1    A    
C26   C30   A    
C22   H2    S    
O9    V1    S    
N7    H38   S    
O10   V2    S    
C14   C18   A    
N5    H34   S    
C23   H3    S    
C11   C15   A    
O4    C8    A    
C67   C71   A    
C24   H4    S    
C66   C70   A    
O22   H18   S    
C38   C46   A    
C16   O28   S    
O1    V3    S    
C37   C45   A    
O17   V1    S    
O2    V4    S    
C18   C22   A    
C61   C66   A    
O3    V1    S    
C12   C16   A    
C28   C36   A    
C63   C68   A    
C1    O15   A    
C52   N7    S    
C44   H12   S    
C2    O16   A    
C8    C33   S    
O2    C6    A    
C41   C45   A    
O14   V2    S    
C21   C25   A    
C65   H13   S    
C16   C20   A    
O5    V1    S    
C3    C38   S    
C44   C48   A    
C53   C61   A    
O11   C7    A    
O12   C8    A    
C31   C36   A    
C9    N1    S    
C17   O22   S    
C44   C60   A    
O7    C3    A    
C59   C71   A    
C9    C29   A    
C38   C50   A    
C48   O31   S    
C43   C47   A    
O7    V3    S    
C11   C31   A    
C26   C34   A    
O20   V4    S    
C37   C49   A    
C5    C36   S    
N6    H36   S    
C42   H10   S    
C50   N5    S    
C6    C35   S    
C41   H9    S    
C23   C27   A    
C27   C31   A    
C70   H6    S    
O19   V3    S    
O11   V3    S    
C66   H14   S    
C64   C67   A    
C9    C13   A    
C46   O29   S    
O8    V4    S    
N4    H28   S    
N3    H26   S    
C42   C46   A    
C12   C32   A    
C12   N4    S    
C50   C54   A    
C18   O21   S    
O32   H44   S    
C49   C53   A    
O8    C4    A    
C45   O30   S    
O9    C5    A    
C14   O26   S    
O24   H20   S    
C11   N3    S    
N1    H21   S    
C60   C72   A    
C51   N8    S    
C43   C59   A    
C4    C37   S    
O6    V2    S    
O18   V2    S    
O25   H29   S    
N8    H40   S    
C27   C35   A    
N3    H25   S    
C42   C58   A    
C65   C69   A    
C63   C64   A    
N1    H22   S    
C41   C57   A    
C62   C65   A    
N2    H24   S    
O21   H17   S    
O16   V4    S    
C47   O32   S    
C3    O13   A    
C10   N2    S    
C10   C14   A    
O17   V3    S    
C56   C60   A    
N6    H35   S    
C55   C59   A    
O6    C2    A    
C15   C19   A    
O28   H32   S    
C10   C30   A    
O12   V4    S    
C55   C63   A    
O27   H31   S    
C22   C26   A    
C54   C62   A    
C32   C35   A    
O10   C6    A    
O20   V2    S    
N4    H27   S    
C61   C62   A    
C49   N6    S    
C54   C58   A    
N5    H33   S    
C51   C55   A    
C40   C48   A    
C20   O23   S    
C25   C29   A    
C68   C72   A    
C21   H1    S    
C13   O25   S    
C13   C17   A    
C58   C70   A    
C53   C57   A    
C1    C40   S    
C57   C69   A    
C20   C24   A    
C24   C28   A    
C39   C47   A    
C4    O14   A    
O30   H42   S    
C17   C21   A    
N8    H39   S    
C67   H15   S    
C56   C64   A    
O29   H41   S    
O23   H19   S    
C19   C23   A    
C39   C51   A    
C69   H5    S    
C28   C32   A    
C19   O24   S    
N2    H23   S    
C30   C33   A    
