data_mof_unit_10306.cif
_audit_creation_date              2013-03-05T16:01:06-0500
_audit_creation_method            fapswitch 2.2
_symmetry_space_group_name_H-M    P1
_symmetry_Int_Tables_number       1
_space_group_crystal_system       triclinic
_cell_length_a                    8.175175
_cell_length_b                    12.796009
_cell_length_c                    18.850858
_cell_angle_alpha                 100.67368
_cell_angle_beta                  92.015214
_cell_angle_gamma                 98.131828
_cell_volume                      1914.55665542

loop_
_atom_site_label
_atom_site_type_symbol
_atom_site_description
_atom_site_fract_x
_atom_site_fract_y
_atom_site_fract_z
_atom_type_partial_charge
P1    P     P_3+3 0.041040 0.394770 0.336330 0.469764
O1    O     O_2   0.873090 0.425890 0.325140 -0.405487
O2    O     O_3   0.122420 0.434370 0.414380 -0.361999
O3    O     O_3   0.659500 0.627100 0.368810 -0.377082
O4    O     O_2   0.784906 0.548584 0.246191 -0.395578
O5    O     O_3   0.033597 0.254747 0.320173 -0.578816
O6    O     O_3   0.686014 0.732621 0.251789 -0.529687
H1    H     H_    0.728654 0.835802 0.350889 0.149925
C1    C     C_3   0.602581 0.904828 0.272400 -1.050933
H2    H     H_    0.567257 0.969740 0.314600 0.245055
H3    H     H_    0.718355 0.933799 0.248704 0.291284
P2    P     P_3+3 0.672880 0.754030 0.556100 0.467336
P3    P     P_3+3 0.120623 0.822496 0.403289 0.442568
O7    O     O_2   0.848200 0.768190 0.534530 -0.379414
O8    O     O_3   0.081160 0.685950 0.404810 -0.381423
O9    O     O_2   0.993069 0.876195 0.450106 -0.393974
O10   O     O_3   0.706403 0.798865 0.648340 -0.549351
O11   O     O_3   0.068893 0.840074 0.315691 -0.513801
C2    C     C_3   0.138410 0.765689 0.265891 0.445781
H4    H     H_    0.094008 0.681680 0.271516 0.127072
H5    H     H_    0.274452 0.781943 0.273365 0.023709
C3    C     C_3   0.089973 0.776963 0.189336 -0.908285
H6    H     H_    0.954606 0.752942 0.177656 0.286639
H7    H     H_    0.124801 0.861461 0.182643 0.260329
C4    C     C_3   0.213376 0.790250 0.623883 0.203933
H8    H     H_    0.331595 0.776031 0.600009 0.043124
H9    H     H_    0.111353 0.755012 0.583090 0.136560
C5    C     C_3   0.208630 0.911438 0.644575 -0.050366
H10   H     H_    0.336550 0.955655 0.655263 0.081896
H11   H     H_    0.152046 0.938367 0.597808 0.109918
Ba1   Ba    Ba6+2 0.852780 0.548340 0.465070 1.547078
C6    C     C_3   0.881669 0.197559 0.331222 0.733698
H12   H     H_    0.810786 0.246258 0.369939 0.094976
C7    C     C_3   0.921071 0.101282 0.362907 -0.887454
H13   H     H_    0.972226 0.043097 0.321396 0.274462
H14   H     H_    0.809639 0.059219 0.383137 0.209455
H15   H     H_    0.016658 0.128918 0.408625 0.258707
C8    C     C_3   0.721057 0.713883 0.683919 0.366419
H16   H     H_    0.829671 0.675927 0.665528 0.057370
H17   H     H_    0.607046 0.653497 0.673869 0.115788
C9    C     C_3   0.747342 0.760293 0.765123 -0.449097
H18   H     H_    0.879061 0.797591 0.778230 0.257346
H19   H     H_    0.720619 0.694377 0.795933 0.178990
P4    P     P_3+3 0.148670 0.605320 0.663680 0.480395
O12   O     O_2   0.316610 0.574140 0.674900 -0.369346
O13   O     O_3   0.067290 0.565720 0.585630 -0.398003
O14   O     O_3   0.530210 0.372990 0.631200 -0.372928
O15   O     O_3   0.200344 0.744973 0.685855 -0.537736
P5    P     P_3+3 0.070971 0.176627 0.596099 0.465624
O16   O     O_3   0.611340 0.366290 0.463630 -0.396466
O17   O     O_3   0.108550 0.314140 0.595200 -0.381963
O18   O     O_2   0.205696 0.125128 0.552714 -0.401804
O19   O     O_3   0.115262 0.161323 0.684717 -0.486050
Ba2   Ba    Ba6+2 0.337060 0.451750 0.534940 1.549767
P6    P     P_3+3 0.642312 0.606977 0.275561 0.444383
C10   C     C_3   0.631634 0.809388 0.305555 0.507859
H20   H     H_    0.514412 0.778448 0.327491 0.017061
H21   H     H_    0.501486 0.881813 0.228393 0.272147
O20   O     O_3   0.578370 0.633800 0.536380 -0.398198
C11   C     C_3   0.451203 0.271480 0.314472 0.439404
H22   H     H_    0.360463 0.315263 0.345330 0.131919
H23   H     H_    0.564940 0.328894 0.311904 0.086311
C12   C     C_3   0.375528 0.226256 0.237976 -1.000077
H24   H     H_    0.254331 0.175684 0.239979 0.292405
H25   H     H_    0.357404 0.292615 0.209549 0.216718
H26   H     H_    0.456882 0.175743 0.206140 0.261900
P7    P     P_3+3 0.520904 0.229629 0.439721 0.414634
O21   O     O_2   0.341510 0.231850 0.465510 -0.338246
O22   O     O_3   0.490069 0.186402 0.346108 -0.593816
H27   H     H_    0.154837 0.724078 0.150082 0.218140
C13   C     C_3   0.063404 0.246083 0.732940 0.496649
H28   H     H_    0.137368 0.324427 0.728583 0.133059
H29   H     H_    0.929788 0.249630 0.722134 -0.001140
C14   C     C_3   0.091008 0.228707 0.810096 -0.873560
H30   H     H_    0.226168 0.240587 0.825523 0.274180
H31   H     H_    0.032659 0.287212 0.847999 0.198498
H32   H     H_    0.035290 0.146071 0.814962 0.294214
P8    P     P_3+3 0.550486 0.390963 0.724765 0.432138
C15   C     C_3   0.558019 0.187492 0.692854 0.486490
H33   H     H_    0.667295 0.220047 0.666129 0.031968
O23   O     O_2   0.412468 0.453157 0.756280 -0.417001
O24   O     O_3   0.502857 0.263844 0.746713 -0.527316
H34   H     H_    0.455581 0.154503 0.651140 0.139675
H35   H     H_    0.725216 0.122656 0.760318 0.273401
C16   C     C_3   0.606545 0.096453 0.726194 -1.012104
H36   H     H_    0.624620 0.028793 0.681807 0.233640
H37   H     H_    0.506418 0.068299 0.759914 0.296948
C17   C     C_R   0.993282 0.446818 0.046677 0.012452
C18   C     C_R   0.888316 0.398863 0.093156 0.116458
C19   C     C_R   0.723370 0.357786 0.069020 -0.176956
C20   C     C_R   0.663650 0.364435 0.999738 -0.163791
C21   C     C_R   0.767797 0.411807 0.952954 0.112022
C22   C     C_R   0.933225 0.453406 0.976180 0.010723
C23   C     C_R   0.708684 0.417323 0.883305 -0.218011
C24   C     C_R   0.813429 0.461042 0.834533 -0.023569
C25   C     C_R   0.978285 0.507799 0.858340 0.002562
C26   C     C_R   0.037219 0.503363 0.929638 0.018809
C27   C     C_R   0.759004 0.456587 0.762065 0.193724
C28   C     C_R   0.868137 0.494663 0.713853 -0.558035
C29   C     C_R   0.027959 0.548323 0.736135 0.244388
C30   C     C_R   0.083968 0.557836 0.811111 -0.047352
C31   C     C_R   0.157544 0.488900 0.070877 0.000593
C32   C     C_R   0.216140 0.486939 0.142768 -0.008758
C33   C     C_R   0.108451 0.443468 0.191440 -0.045327
C34   C     C_R   0.947537 0.395343 0.163682 -0.138869
H38   H     H_    0.639809 0.321472 0.104056 0.132742
H39   H     H_    0.535496 0.332567 0.982753 0.142077
H40   H     H_    0.825333 0.485274 0.657746 0.183669
H41   H     H_    0.580270 0.385862 0.867740 0.184847
H42   H     H_    0.863042 0.360233 0.197567 0.154108
C35   C     C_R   0.240094 0.614345 0.841236 -0.039428
C36   C     C_R   0.299250 0.609086 0.912316 -0.048710
C37   C     C_R   0.200104 0.548347 0.954696 -0.008967
C38   C     C_R   0.261115 0.538280 0.024393 0.018536
C39   C     C_R   0.455853 0.663651 0.943135 0.342906
C40   C     C_R   0.522823 0.640144 0.006690 -0.275139
C41   C     C_R   0.425265 0.580660 0.048452 0.053165
C42   C     C_R   0.381776 0.531075 0.166062 -0.041895
C43   C     C_R   0.486364 0.572735 0.117054 -0.175062
C44   C     C_R   0.436224 0.537683 0.238688 0.189208
C45   C     C_R   0.326876 0.502188 0.287713 -0.546114
C46   C     C_R   0.165006 0.452791 0.266043 0.274696
H43   H     H_    0.318811 0.659226 0.808834 0.161856
H44   H     H_    0.644958 0.680009 0.028537 0.188188
H45   H     H_    0.614874 0.604228 0.132472 0.183766
H46   H     H_    0.370167 0.510811 0.343696 0.182172
C47   C     C_R   0.769928 0.179819 0.523891 -0.483533
C48   C     C_R   0.424241 0.809553 0.471378 -0.521133
C49   C     C_R   0.396396 0.984283 0.445860 -0.204399
C50   C     C_R   0.332085 0.876745 0.441919 0.195731
C51   C     C_R   0.576686 0.849385 0.509613 0.279602
C52   C     C_R   0.643019 0.960645 0.515553 -0.080885
C53   C     C_R   0.551670 0.028072 0.482216 -0.060972
C54   C     C_R   0.617725 0.138011 0.486892 0.236762
C55   C     C_R   0.862090 0.115273 0.555398 0.219412
C56   C     C_R   0.798121 0.006726 0.552319 -0.168897
H47   H     H_    0.322261 0.032637 0.420890 0.194172
H48   H     H_    0.871788 0.959211 0.577458 0.209997
H49   H     H_    0.820501 0.263072 0.525587 0.180009
H50   H     H_    0.372843 0.725884 0.467543 0.180712
N1    N     N_R   0.114543 0.937125 0.708871 0.295840
O25   O     O_R   0.970355 0.968215 0.703227 -0.400359
O26   O     O_R   0.179087 0.935679 0.772886 -0.351490
C57   C     C_3   0.787011 0.159168 0.257808 -0.972546
H51   H     H_    0.866165 0.118407 0.218268 0.258575
H52   H     H_    0.672929 0.104404 0.260046 0.271077
H53   H     H_    0.748997 0.227915 0.237758 0.217308
C58   C     C_3   0.636014 0.846210 0.788049 -0.486932
H54   H     H_    0.647320 0.907798 0.754189 0.248394
H55   H     H_    0.504161 0.808037 0.783712 0.242577
H56   H     H_    0.676333 0.893108 0.842773 0.279396
N2    N     N_R   0.530894 0.759066 0.921261 0.210270
O27   O     O_R   0.437337 0.831354 0.914126 -0.399281
O28   O     O_R   0.689626 0.789673 0.934932 -0.427302

loop_
_geom_bond_atom_site_label_1
_geom_bond_atom_site_label_2
_geom_bond_distance
_ccdc_geom_bond_type
O5    C6    1.392500 S    
C34   H42   1.066097 S    
C12   H25   1.108465 S    
P2    C51   1.869287 S    
C7    H15   1.113548 S    
C9    H18   1.113819 S    
C2    H4    1.110470 S    
C47   C54   1.390443 A    
O6    P6    1.740381 S    
O7    Ba1   2.880752 S    
H1    C10   1.114968 S    
C24   C27   1.410191 A    
C55   C56   1.403065 A    
N2    O28   1.303475 A    
C16   H36   1.117175 S    
C40   C41   1.389094 A    
C4    C5    1.533755 S    
C28   H40   1.081920 S    
O16   Ba2   2.896870 S    
C14   H31   1.106962 S    
P3    O11   1.752582 S    
C11   C12   1.524428 S    
C21   C22   1.404413 A    
C5    H10   1.109018 S    
C2    H5    1.101228 S    
C58   H55   1.112318 S    
C7    H13   1.112137 S    
N1    O26   1.304312 A    
C8    H16   1.107157 S    
O2    Ba2   2.777660 S    
C33   C46   1.443008 A    
C39   C40   1.399831 A    
P1    Ba1   3.386976 S    
C10   H20   1.107817 S    
C11   H23   1.108935 S    
P1    O1    1.501226 D    
Ba1   O20   2.897767 S    
P1    C46   1.892038 S    
C36   C37   1.413019 A    
C42   C43   1.406319 A    
P2    O20   1.591760 S    
C35   C36   1.425078 A    
C52   C53   1.430806 A    
P5    O17   1.746245 S    
C14   H32   1.112034 S    
C39   N2    1.424587 S    
P8    C27   1.843226 S    
P3    C50   1.839949 S    
C58   H56   1.106240 S    
C1    H2    1.115978 S    
P6    C44   1.837012 S    
C17   C18   1.408432 A    
P5    C55   1.851090 S    
C12   H26   1.107374 S    
C25   C30   1.434510 A    
C9    H19   1.111175 S    
C23   C24   1.414868 A    
C47   H49   1.081054 S    
O6    C10   1.405787 S    
C57   H53   1.097972 S    
C33   C34   1.409473 A    
P4    O13   1.556838 S    
Ba2   O20   2.826983 S    
C16   H37   1.114379 S    
C14   H30   1.114498 S    
C12   H24   1.110034 S    
C35   H43   1.081694 S    
P7    O21   1.563584 D    
O3    Ba1   2.780538 S    
C20   H39   1.083338 S    
C2    C3    1.520952 S    
C58   H54   1.098581 S    
C19   H38   1.083708 S    
C8    C9    1.531703 S    
C57   H52   1.091554 S    
C20   C21   1.405346 A    
C13   H29   1.112897 S    
O11   C2    1.403507 S    
C4    H8    1.104398 S    
P7    C54   1.841416 S    
Ba1   O13   2.777031 S    
P1    O5    1.752852 S    
C11   H22   1.108940 S    
P1    O2    1.556838 S    
C6    C7    1.532824 S    
P2    O10   1.726312 S    
C31   C38   1.410663 A    
C15   O24   1.406450 S    
P8    O24   1.746458 S    
C28   C29   1.398499 A    
C52   C56   1.418139 A    
P5    O18   1.544425 D    
C25   C26   1.425563 A    
O13   Ba2   2.906142 S    
C21   C23   1.400617 A    
C1    C10   1.514216 S    
H35   C16   1.118753 S    
O2    Ba1   2.905248 S    
C1    H3    1.106609 S    
C4    O15   1.397781 S    
C45   C46   1.395454 A    
O14   Ba2   2.779906 S    
C49   C53   1.410798 A    
C43   H45   1.079801 S    
C56   H48   1.071064 S    
P2    O7    1.499079 D    
O12   Ba2   2.831270 S    
P3    O8    1.737105 S    
P2    Ba1   3.410961 S    
C53   C54   1.419222 A    
C3    H7    1.109969 S    
C32   C42   1.412567 A    
C4    H9    1.100167 S    
Ba1   O16   2.827602 S    
C26   C37   1.402085 A    
C51   C52   1.432390 A    
O19   C13   1.405134 S    
C48   C51   1.397676 A    
C22   C26   1.416915 A    
C15   C16   1.514552 S    
C44   C45   1.399352 A    
C37   C38   1.423486 A    
O16   P7    1.768213 S    
C17   C22   1.421798 A    
C1    H21   1.118208 S    
C40   H44   1.084404 S    
O4    P6    1.536992 D    
P4    O12   1.501561 D    
C47   C55   1.388844 A    
C57   H51   1.109837 S    
C48   C50   1.394975 A    
C13   C14   1.525348 S    
C17   C31   1.400976 A    
O8    Ba1   2.799449 S    
Ba2   O21   2.880993 S    
C30   C35   1.417825 A    
C23   H41   1.079477 S    
O17   Ba2   2.800080 S    
C6    H12   1.104630 S    
C41   C43   1.396308 A    
C49   C50   1.389307 A    
C13   H28   1.113489 S    
O3    P6    1.726473 S    
N1    O25   1.303295 A    
C8    H17   1.109637 S    
P4    C29   1.905644 S    
P8    O23   1.544489 D    
C19   C20   1.399766 A    
C9    C58   1.535746 S    
C11   O22   1.402436 S    
P5    O19   1.748951 S    
C5    H11   1.113037 S    
C29   C30   1.448125 A    
C7    H14   1.107591 S    
O10   C8    1.395735 S    
Ba1   Ba2   4.534013 S    
C48   H50   1.081642 S    
C31   C32   1.427247 A    
C42   C44   1.408284 A    
C6    C57   1.523392 S    
C38   C41   1.400291 A    
C15   H33   1.108845 S    
C15   H34   1.108401 S    
P4    Ba2   3.387573 S    
C45   H46   1.082000 S    
C49   H47   1.079639 S    
N2    O27   1.302958 A    
C27   C28   1.399087 A    
P3    O9    1.543124 D    
C18   C34   1.409604 A    
C32   C33   1.426041 A    
C3    H6    1.108689 S    
O1    Ba1   2.830904 S    
C5    N1    1.469090 S    
O14   P8    1.734838 S    
P7    O22   1.746810 S    
C18   C19   1.403345 A    
C3    H27   1.109203 S    
C36   C39   1.417265 A    
C24   C25   1.416196 A    
P4    O15   1.744670 S    
