data_mof_unit_22507.cif
_audit_creation_date              2012-12-10T17:37:26-0500
_audit_creation_method            fapswitch 2.2
_symmetry_space_group_name_H-M    P1
_symmetry_Int_Tables_number       1
_space_group_crystal_system       triclinic
_cell_length_a                    11.955076
_cell_length_b                    12.887065
_cell_length_c                    16.6591
_cell_angle_alpha                 90.806416
_cell_angle_beta                  81.898793
_cell_angle_gamma                 93.726988
_cell_volume                      2535.58011052

loop_
_atom_site_label
_atom_site_type_symbol
_atom_type_description
_atom_site_fract_x
_atom_site_fract_y
_atom_site_fract_z
_atom_type_partial_charge
C1    C     C_R   0.523054 0.700560 0.496971 0.883929
C2    C     C_R   0.476955 0.299391 0.502646 0.880911
C3    C     C_R   0.461618 0.187713 0.506568 -0.104725
C4    C     C_R   0.538405 0.812165 0.492037 -0.107784
C5    C     C_R   0.646688 0.972793 0.453912 -0.264005
C6    C     C_R   0.353306 0.026862 0.543712 -0.263758
C7    C     C_R   0.641294 0.864833 0.457451 -0.013904
C8    C     C_R   0.358297 0.134697 0.539852 -0.015728
C9    C     C_R   0.444248 0.867029 0.521679 -0.287201
C10   C     C_R   0.556075 0.132987 0.477102 -0.283899
C11   C     C_R   0.449222 0.973359 0.516027 0.170669
C12   C     C_R   0.551059 0.026526 0.482245 0.170040
C13   C     C_R   0.963384 0.408353 0.419844 -0.362548
C14   C     C_R   0.036648 0.591848 0.580000 -0.360188
C15   C     C_R   0.845911 0.416352 0.428291 0.019280
C16   C     C_R   0.154096 0.583733 0.571641 0.018025
C17   C     C_R   0.854116 0.538535 0.535503 -0.031581
C18   C     C_R   0.145903 0.461551 0.464430 -0.025297
C19   C     C_R   0.972422 0.533081 0.529304 0.088682
C20   C     C_R   0.027614 0.467115 0.470546 0.090757
C21   C     C_R   0.484745 0.499052 0.654398 0.855443
C22   C     C_R   0.514014 0.493103 0.346002 0.849638
C23   C     C_R   0.473501 0.479658 0.741138 -0.035922
C24   C     C_R   0.516286 0.455962 0.262957 -0.027983
C25   C     C_R   0.569939 0.462357 0.776747 -0.213341
C26   C     C_R   0.417081 0.407707 0.239746 -0.206280
C27   C     C_R   0.558829 0.429371 0.856382 -0.149522
C28   C     C_R   0.419154 0.362157 0.163898 -0.165107
C29   C     C_R   0.450719 0.412139 0.901357 0.210838
C30   C     C_R   0.519771 0.366974 0.109334 0.208003
C31   C     C_R   0.354615 0.432929 0.866629 -0.187359
C32   C     C_R   0.620273 0.410193 0.133632 -0.170009
C33   C     C_R   0.365827 0.466754 0.786966 -0.214836
C34   C     C_R   0.618681 0.454465 0.210435 -0.213959
C35   C     C_2   0.436172 0.386199 0.987544 -0.231718
C36   C     C_2   0.517448 0.346394 0.023220 -0.247360
H1    H     H_    0.654081 0.472866 0.742825 0.152076
H2    H     H_    0.337928 0.403759 0.280550 0.146754
H3    H     H_    0.203719 0.628710 0.610919 0.126131
H4    H     H_    0.796276 0.371372 0.389017 0.128083
H5    H     H_    0.003488 0.356825 0.374203 0.141886
H6    H     H_    0.996553 0.643399 0.625624 0.143453
H7    H     H_    0.696688 0.488561 0.228336 0.140671
H8    H     H_    0.290270 0.480736 0.760870 0.149410
H9    H     H_    0.593048 0.318943 0.987745 0.144931
H10   H     H_    0.361540 0.414156 0.024249 0.149386
H11   H     H_    0.270858 0.423097 0.901265 0.122330
H12   H     H_    0.698459 0.414596 0.091751 0.120989
H13   H     H_    0.341266 0.326818 0.146659 0.126667
H14   H     H_    0.635383 0.420059 0.882419 0.120158
H15   H     H_    0.634629 0.173350 0.450126 0.160049
H16   H     H_    0.365846 0.826838 0.549137 0.159690
H17   H     H_    0.724647 0.014624 0.427559 0.138935
H18   H     H_    0.275116 0.984877 0.569456 0.139594
H19   H     H_    0.189821 0.410633 0.420166 0.116120
H20   H     H_    0.810170 0.589357 0.579838 0.122350
N1    N     N_R   0.206400 0.519440 0.514690 -0.093874
N2    N     N_R   0.793600 0.480560 0.485310 -0.093776
O1    O     O_R   0.421320 0.658850 0.503920 -0.622803
O2    O     O_R   0.578680 0.341150 0.496080 -0.624348
O3    O     O_R   0.609840 0.646370 0.494500 -0.605695
O4    O     O_R   0.390160 0.353630 0.505500 -0.609632
O5    O     O_R   0.394600 0.506990 0.621070 -0.623314
O6    O     O_R   0.605400 0.493010 0.378930 -0.620631
O7    O     O_R   0.583120 0.494520 0.611640 -0.622765
O8    O     O_R   0.416880 0.505480 0.388360 -0.621927
Zn1   Zn    Zn3+2 0.374120 0.508330 0.506290 0.943670
Zn2   Zn    Zn3+2 0.625880 0.491670 0.493710 0.945144
C37   C     C_R   0.255379 0.188086 0.572392 0.146969
C38   C     C_R   0.158954 0.177038 0.532863 -0.171406
C39   C     C_R   0.061448 0.227148 0.563285 -0.147050
C40   C     C_R   0.059443 0.288222 0.633391 -0.103080
C41   C     C_R   0.154654 0.298632 0.673554 -0.129852
C42   C     C_R   0.252399 0.248575 0.643419 -0.098262
H21   H     H_    0.159703 0.130292 0.478266 0.126966
H22   H     H_    0.987590 0.219011 0.532319 0.137266
H23   H     H_    0.984088 0.327413 0.656601 0.127293
H24   H     H_    0.152413 0.345232 0.728180 0.116315
H25   H     H_    0.325737 0.257246 0.674999 0.116143
C43   C     C_R   0.742639 0.810489 0.422624 0.145635
C44   C     C_R   0.739998 0.746323 0.353890 -0.095891
C45   C     C_R   0.834838 0.692718 0.322911 -0.124403
C46   C     C_R   0.933188 0.703857 0.359563 -0.103228
C47   C     C_R   0.937063 0.768988 0.427049 -0.145870
C48   C     C_R   0.842231 0.822311 0.458511 -0.171656
H26   H     H_    0.664073 0.736748 0.325210 0.103675
H27   H     H_    0.832007 0.642346 0.270620 0.114330
H28   H     H_    0.006324 0.661901 0.335782 0.129073
H29   H     H_    0.013270 0.777474 0.455387 0.137865
H30   H     H_    0.845820 0.871656 0.511376 0.127256

loop_
_geom_bond_atom_site_label_1
_geom_bond_atom_site_label_2
_ccdc_geom_bond_type
C27   C29   A    
C41   C42   A    
C35   C36   D    
C13   H5    S    
C44   C45   A    
C8    C37   S    
C43   C48   A    
O4    Zn1   S    
O6    Zn2   S    
C22   C24   S    
C5    H17   S    
C24   C26   A    
C1    O1    A    
C39   H22   S    
C2    O2    A    
C45   H27   S    
C22   O8    A    
C25   H1    S    
C19   C20   A    
C23   C33   A    
C41   H24   S    
C31   C33   A    
C38   C39   A    
C44   H26   S    
C27   H14   S    
C17   N2    A    
C14   H6    S    
O1    Zn1   S    
O8    Zn1   S    
C31   H11   S    
C32   H12   S    
C9    H16   S    
N1    Zn1   S    
C4    C7    A    
C10   H15   S    
C21   C23   S    
O5    Zn1   S    
C36   H9    S    
C47   C48   A    
C5    C12   A    
C3    C8    A    
C6    C11   A    
C5    C7    A    
C26   H2    S    
C6    C8    A    
C24   C34   A    
C32   C34   A    
C40   H23   S    
C28   H13   S    
C18   N1    A    
C46   C47   A    
C11   C12   A    
O7    Zn2   S    
C37   C42   A    
C9    C11   A    
C17   H20   S    
C10   C12   A    
C18   H19   S    
N2    Zn2   S    
C6    H18   S    
C42   H25   S    
C13   C15   A    
C15   N2    A    
C14   C16   A    
C47   H29   S    
C13   C20   A    
C21   O7    A    
C33   H8    S    
C14   C19   A    
C34   H7    S    
C43   C44   A    
C1    O3    A    
C48   H30   S    
C25   C27   A    
C29   C35   S    
C26   C28   A    
C30   C36   S    
C1    C4    S    
C28   C30   A    
C2    C3    S    
C39   C40   A    
C29   C31   A    
C3    C10   A    
C30   C32   A    
O3    Zn2   S    
C40   C41   A    
C17   C19   A    
C46   H28   S    
C18   C20   A    
C16   N1    A    
C23   C25   A    
C37   C38   A    
C15   H4    S    
C21   O5    A    
C16   H3    S    
C22   O6    A    
O2    Zn2   S    
C45   C46   A    
C38   H21   S    
C4    C9    A    
C35   H10   S    
C2    O4    A    
C7    C43   S    
