data_mof_unit_11060.cif
_audit_creation_date              2012-12-10T17:23:32-0500
_audit_creation_method            fapswitch 2.2
_symmetry_space_group_name_H-M    P1
_symmetry_Int_Tables_number       1
_space_group_crystal_system       triclinic
_cell_length_a                    18.723512
_cell_length_b                    18.901055
_cell_length_c                    18.856075
_cell_angle_alpha                 109.750154
_cell_angle_beta                  109.426774
_cell_angle_gamma                 109.477918
_cell_volume                      5121.53693725

loop_
_atom_site_label
_atom_site_type_symbol
_atom_type_description
_atom_site_fract_x
_atom_site_fract_y
_atom_site_fract_z
_atom_type_partial_charge
C1    C     C_R   0.379807 0.498806 0.381381 0.878552
C2    C     C_R   0.829973 0.804945 0.573102 -0.013681
C3    C     C_3   0.860313 0.868844 0.666667 0.608610
C4    C     C_3   0.782935 0.799201 0.659664 -0.393629
C5    C     C_R   0.238553 0.417780 0.242193 0.110610
C6    C     C_R   0.179352 0.418579 0.173418 0.132077
C7    C     C_R   0.188141 0.499100 0.182895 -0.156404
C8    C     C_R   0.260391 0.578887 0.256492 0.027981
C9    C     C_R   0.318912 0.577443 0.324567 0.379384
C10   C     C_R   0.310661 0.497526 0.315138 -0.204266
C11   C     C_R   0.325579 0.244968 0.507320 0.121988
C12   C     C_R   0.617387 0.618290 0.498602 0.881626
C13   C     C_R   0.261303 0.183549 0.509838 -0.263265
C14   C     C_R   0.186081 0.187498 0.502013 -0.194817
C15   C     C_R   0.174277 0.254154 0.492615 0.336655
C16   C     C_R   0.242591 0.321400 0.499123 0.280171
C17   C     C_R   0.316033 0.314512 0.502188 -0.172466
C18   C     C_R   0.765951 0.521652 0.691338 0.403842
C19   C     C_R   0.830265 0.523671 0.757383 -0.371420
C20   C     C_R   0.810895 0.495820 0.812024 -0.227820
C21   C     C_R   0.726160 0.466968 0.801964 0.481886
C22   C     C_R   0.666561 0.479690 0.746065 -0.024805
C23   C     C_R   0.618865 0.500473 0.618921 0.888942
C24   C     C_R   0.684647 0.500515 0.686557 -0.158874
C25   C     C_R   0.000541 0.881216 0.380920 0.876646
C26   C     C_R   0.880782 0.882452 0.501112 0.843878
C27   C     C_R   0.998365 0.117255 0.619157 0.877341
C28   C     C_R   0.119020 0.119849 0.501113 0.877682
C29   C     C_R   0.999683 0.618438 0.118419 0.951963
C30   C     C_R   0.119425 0.499746 0.117975 0.862708
C31   C     C_R   0.999317 0.381518 0.880716 0.879884
C32   C     C_R   0.880259 0.498888 0.880427 0.864047
C33   C     C_R   0.949936 0.785950 0.225970 -0.348425
C34   C     C_R   0.382373 0.381219 0.501208 0.861927
C35   C     C_R   0.950577 0.722851 0.160858 0.392428
C36   C     C_R   0.999287 0.684280 0.184861 -0.233996
C37   C     C_R   0.047780 0.708207 0.271973 0.246142
C38   C     C_R   0.054087 0.777425 0.337356 0.357455
C39   C     C_R   0.001878 0.814197 0.314120 -0.234627
C40   C     C_R   0.916103 0.181103 0.672162 0.120146
C41   C     C_R   0.917966 0.250832 0.733442 0.122713
C42   C     C_R   0.997377 0.314738 0.812094 -0.204232
C43   C     C_R   0.075296 0.313260 0.828037 0.273386
C44   C     C_R   0.074004 0.244867 0.766838 0.306111
C45   C     C_R   0.763185 0.742654 0.570916 -0.039846
C46   C     C_R   0.995757 0.181705 0.686893 -0.228870
C47   C     C_R   0.682528 0.682968 0.495719 -0.141831
C48   C     C_R   0.668700 0.682315 0.417169 0.045608
C49   C     C_R   0.731858 0.752047 0.420376 0.432198
C50   C     C_R   0.813185 0.814016 0.499060 -0.260850
Cu1   Cu    Cu3+1 0.499970 0.561780 0.561770 0.928678
Cu2   Cu    Cu3+1 0.500030 0.438220 0.438230 0.929419
Cu3   Cu    Cu3+1 0.061810 1.000000 0.561760 0.910586
Cu4   Cu    Cu3+1 0.938190 0.000070 0.438240 0.933099
Cu5   Cu    Cu3+1 0.938200 0.438300 0.000110 0.950928
Cu6   Cu    Cu3+1 0.061800 0.561880 0.000070 0.930479
H1    H     H_    0.268327 0.130528 0.515013 0.166779
H2    H     H_    0.895412 0.546797 0.765799 0.185789
H3    H     H_    0.908373 0.812358 0.207679 0.184733
H4    H     H_    0.801518 0.773073 0.703221 0.209002
H5    H     H_    0.730038 0.814131 0.658691 0.166201
O1    O     O_R   0.409790 0.552170 0.461990 -0.578695
O2    O     O_R   0.947790 0.909920 0.357650 -0.599463
O3    O     O_R   0.962030 0.909820 0.552150 -0.613358
O4    O     O_R   0.857630 0.909880 0.447840 -0.565419
O5    O     O_R   0.052210 0.090150 0.642360 -0.584245
O6    O     O_R   0.947820 0.090210 0.538040 -0.584561
O7    O     O_R   0.142360 0.090190 0.552160 -0.600543
O8    O     O_R   0.037970 0.090250 0.447850 -0.576958
O9    O     O_R   0.947800 0.538090 0.090240 -0.583008
O10   O     O_R   0.052170 0.642450 0.090210 -0.596941
O11   O     O_R   0.038000 0.447920 0.090280 -0.592527
O12   O     O_R   0.409840 0.447810 0.357660 -0.590247
O13   O     O_R   0.142370 0.552280 0.090250 -0.596231
O14   O     O_R   0.947830 0.357730 0.909970 -0.598828
O15   O     O_R   0.052200 0.462090 0.909940 -0.590371
O16   O     O_R   0.857630 0.447900 0.909930 -0.557147
O17   O     O_R   0.962000 0.552260 0.909900 -0.605863
O18   O     O_R   0.590140 0.642360 0.552170 -0.597132
O19   O     O_R   0.590190 0.538010 0.447840 -0.594241
O20   O     O_R   0.590160 0.552190 0.642340 -0.594364
O21   O     O_R   0.590210 0.447830 0.538010 -0.592219
O22   O     O_R   0.409810 0.461990 0.552160 -0.582109
O23   O     O_R   0.409860 0.357640 0.447830 -0.597744
O24   O     O_R   0.052180 0.909860 0.461960 -0.552292
C51   C     C_3   0.585809 0.610626 0.331828 -0.804423
H6    H     H_    0.527575 0.608907 0.336158 0.222672
H7    H     H_    0.583304 0.618452 0.275537 0.249366
H8    H     H_    0.581905 0.547013 0.316982 0.245565
O25   O     O_3   0.388423 0.654647 0.398681 -0.607523
C52   C     C_3   0.359281 0.683883 0.457129 0.074806
H9    H     H_    0.324818 0.631612 0.468317 0.145381
H10   H     H_    0.313532 0.705881 0.431579 0.141642
C53   C     C_3   0.438447 0.760498 0.544211 -0.309833
H11   H     H_    0.486549 0.740607 0.569043 0.240150
H12   H     H_    0.470437 0.814871 0.534581 0.210362
C54   C     C_3   0.411776 0.791801 0.611641 -0.958960
H13   H     H_    0.362693 0.810828 0.587740 0.263814
H14   H     H_    0.470192 0.849104 0.673204 0.260809
H15   H     H_    0.383560 0.739583 0.625248 0.260385
C55   C     C_3   0.403404 0.235294 0.511000 -0.825898
H16   H     H_    0.403807 0.182070 0.523627 0.213740
H17   H     H_    0.401349 0.219683 0.447850 0.247773
H18   H     H_    0.465359 0.296110 0.563801 0.213612
O26   O     O_3   0.100069 0.258319 0.486306 -0.609782
C56   C     C_3   0.046051 0.239039 0.401306 0.106362
H19   H     H_    0.002531 0.167435 0.358492 0.152049
H20   H     H_    0.083421 0.262661 0.371025 0.154465
C57   C     C_3   0.989918 0.281624 0.405585 -0.324919
H21   H     H_    0.950158 0.257303 0.433430 0.224214
H22   H     H_    0.033331 0.353202 0.448918 0.223321
C58   C     C_3   0.928902 0.262140 0.315574 -0.948437
H23   H     H_    0.967348 0.286451 0.286722 0.261720
H24   H     H_    0.890108 0.295021 0.321289 0.263649
H25   H     H_    0.883129 0.191030 0.271761 0.254643
O27   O     O_3   0.233685 0.389318 0.492884 -0.617148
C59   C     C_3   0.248852 0.449070 0.573277 0.110235
H26   H     H_    0.312574 0.469668 0.628260 0.143204
H27   H     H_    0.195319 0.420080 0.585720 0.171095
C60   C     C_3   0.251462 0.529394 0.569692 -0.339694
H28   H     H_    0.305393 0.559774 0.558341 0.231974
H29   H     H_    0.188625 0.509690 0.514683 0.220142
C61   C     C_3   0.265724 0.595954 0.654103 -0.959460
H30   H     H_    0.212353 0.566923 0.666619 0.258309
H31   H     H_    0.265630 0.652613 0.648677 0.259635
H32   H     H_    0.329695 0.618886 0.709750 0.258692
O28   O     O_3   0.786083 0.553860 0.640354 -0.609038
C62   C     C_3   0.801742 0.497810 0.583963 0.064587
H33   H     H_    0.746363 0.429478 0.546425 0.143177
H34   H     H_    0.863714 0.500525 0.621430 0.136101
C63   C     C_3   0.810427 0.527405 0.519688 -0.299304
H35   H     H_    0.748653 0.524312 0.481169 0.235917
H36   H     H_    0.864522 0.595957 0.556266 0.223463
C64   C     C_3   0.829386 0.470568 0.457655 -0.946145
H37   H     H_    0.891860 0.474073 0.494717 0.255677
H38   H     H_    0.835223 0.493800 0.411970 0.261064
H39   H     H_    0.775335 0.401917 0.419237 0.256437
O29   O     O_3   0.705925 0.435338 0.853510 -0.578104
C65   C     C_3   0.638837 0.346406 0.801196 0.050538
H40   H     H_    0.587681 0.330290 0.737669 0.140566
H41   H     H_    0.604801 0.332509 0.837234 0.164862
C66   C     C_3   0.676734 0.286140 0.784612 -0.334114
H42   H     H_    0.712217 0.300382 0.749923 0.211437
H43   H     H_    0.723244 0.297425 0.847689 0.243033
C67   C     C_3   0.604600 0.190746 0.729062 -0.946849
H44   H     H_    0.568250 0.174293 0.762493 0.259306
H45   H     H_    0.634137 0.148826 0.718313 0.257306
H46   H     H_    0.558135 0.177231 0.664711 0.259252
C68   C     C_3   0.586925 0.475453 0.752915 -0.823213
H47   H     H_    0.525972 0.424923 0.690107 0.207738
H48   H     H_    0.582570 0.461565 0.804391 0.249727
H49   H     H_    0.590736 0.539399 0.770783 0.249993
O30   O     O_3   0.715316 0.758336 0.346138 -0.591607
C69   C     C_3   0.663823 0.798686 0.337700 0.075950
H50   H     H_    0.697091 0.863878 0.396611 0.145280
H51   H     H_    0.598819 0.758458 0.328286 0.143328
C70   C     C_3   0.649324 0.809893 0.258475 -0.302945
H52   H     H_    0.713695 0.851193 0.267562 0.229541
H53   H     H_    0.616309 0.745235 0.199323 0.219111
C71   C     C_3   0.593026 0.852058 0.245187 -0.956878
H54   H     H_    0.527629 0.810855 0.234171 0.259214
H55   H     H_    0.583921 0.859398 0.187331 0.258890
H56   H     H_    0.625401 0.917408 0.303092 0.256821
O31   O     O_3   0.896524 0.690216 0.072928 -0.593350
C72   C     C_3   0.911418 0.757539 0.052926 0.050204
H57   H     H_    0.982628 0.806209 0.087730 0.133168
H58   H     H_    0.875512 0.790527 0.070324 0.145082
C73   C     C_3   0.876582 0.717526 0.954904 -0.304665
H59   H     H_    0.913391 0.686033 0.937149 0.233093
H60   H     H_    0.806217 0.667040 0.918949 0.236761
C74   C     C_3   0.886266 0.785784 0.927343 -0.905777
H61   H     H_    0.848595 0.817142 0.942888 0.250727
H62   H     H_    0.860553 0.754191 0.855963 0.271932
H63   H     H_    0.956321 0.836167 0.961256 0.256866
O32   O     O_3   0.093520 0.667329 0.293534 -0.634760
C75   C     C_3   0.045408 0.605800 0.310169 0.094493
H64   H     H_    0.979305 0.556751 0.251719 0.149699
H65   H     H_    0.037821 0.638177 0.366470 0.177444
C76   C     C_3   0.094343 0.558857 0.332001 -0.337202
H66   H     H_    0.102607 0.526399 0.276632 0.229793
H67   H     H_    0.160222 0.606847 0.390520 0.208763
C77   C     C_3   0.044835 0.490461 0.349410 -0.939365
H68   H     H_    0.038844 0.521616 0.407062 0.258509
H69   H     H_    0.081005 0.456046 0.362339 0.261658
H70   H     H_    0.978446 0.441939 0.291856 0.262472
O33   O     O_3   0.107258 0.804967 0.423668 -0.586839
C78   C     C_3   0.194104 0.863566 0.450666 0.109022
H71   H     H_    0.197127 0.916124 0.435101 0.116524
H72   H     H_    0.221563 0.828364 0.418366 0.161759
C79   C     C_3   0.250201 0.905723 0.549211 -0.321766
H73   H     H_    0.223516 0.941326 0.582118 0.231138
H74   H     H_    0.247631 0.854387 0.566172 0.213306
C80   C     C_3   0.345302 0.969180 0.582202 -0.958324
H75   H     H_    0.373664 0.934950 0.550640 0.260034
H76   H     H_    0.384388 0.997975 0.653733 0.263116
H77   H     H_    0.349447 0.022481 0.568101 0.255687
C81   C     C_3   0.829152 0.105356 0.593203 -0.808062
H78   H     H_    0.829668 0.043273 0.573483 0.216107
H79   H     H_    0.774643 0.094433 0.607210 0.225497
H80   H     H_    0.814436 0.117812 0.538022 0.237853
C82   C     C_3   0.836154 0.258223 0.713302 -0.838338
H81   H     H_    0.850977 0.325227 0.753013 0.206155
H82   H     H_    0.801717 0.241839 0.644520 0.229535
H83   H     H_    0.791711 0.213519 0.724916 0.237603
O34   O     O_3   0.150770 0.374154 0.908010 -0.623428
C83   C     C_3   0.208102 0.436550 0.898717 0.100268
H84   H     H_    0.174187 0.464354 0.865864 0.144156
H85   H     H_    0.234845 0.407119 0.860380 0.176552
C84   C     C_3   0.284261 0.510116 0.989284 -0.323853
H86   H     H_    0.258475 0.539975 0.028496 0.241777
H87   H     H_    0.318782 0.483251 0.022672 0.222464
C85   C     C_3   0.349318 0.580134 0.984325 -0.948141
H88   H     H_    0.377180 0.552038 0.946692 0.258862
H89   H     H_    0.403653 0.632354 0.051135 0.262697
H90   H     H_    0.316546 0.609100 0.952661 0.256120
O35   O     O_3   0.150780 0.242701 0.782743 -0.597728
C86   C     C_3   0.167960 0.209945 0.839875 0.113350
H91   H     H_    0.109446 0.147752 0.816501 0.117639
H92   H     H_    0.187685 0.258149 0.906467 0.178132
C87   C     C_3   0.243013 0.192633 0.844494 -0.318936
H93   H     H_    0.222085 0.140397 0.779466 0.227399
H94   H     H_    0.300269 0.252576 0.862506 0.224501
C88   C     C_3   0.270520 0.165186 0.911694 -0.967695
H95   H     H_    0.295709 0.218359 0.977855 0.263463
H96   H     H_    0.323215 0.150595 0.911501 0.261806
H97   H     H_    0.214180 0.106108 0.896025 0.249640
O36   O     O_3   0.937908 0.883125 0.732143 -0.601926
C89   C     C_3   0.015677 0.931723 0.734839 0.082135
H98   H     H_    0.065850 0.979216 0.804434 0.143865
H99   H     H_    0.010736 0.971056 0.703401 0.163601
C90   C     C_3   0.047770 0.871594 0.697412 -0.312103
H100  H     H_    0.055431 0.835943 0.733146 0.217187
H101  H     H_    0.998694 0.822851 0.627783 0.233125
C91   C     C_3   0.135494 0.922568 0.705394 -0.902954
H102  H     H_    0.130389 0.960247 0.671681 0.271043
H103  H     H_    0.155316 0.876801 0.675134 0.248161
H104  H     H_    0.186832 0.967897 0.775010 0.244754
C92   C     C_3   0.853565 0.951276 0.681419 -0.922410
H105  H     H_    0.786819 0.933923 0.635394 0.209114
H106  H     H_    0.867578 0.987675 0.749046 0.248475
H107  H     H_    0.900302 0.994589 0.670796 0.199623
C93   C     C_3   0.222405 0.332250 0.239083 -0.801405
H108  H     H_    0.151315 0.286788 0.208104 0.222765
H109  H     H_    0.249404 0.302010 0.201874 0.234056
H110  H     H_    0.251984 0.340786 0.305176 0.230482
C94   C     C_3   0.109782 0.333815 0.088728 -0.791573
H111  H     H_    0.135274 0.288816 0.073233 0.223103
H112  H     H_    0.051518 0.302289 0.093938 0.229319
H113  H     H_    0.089756 0.343748 0.032133 0.239502
C95   C     C_3   0.276467 0.665424 0.262268 -0.782079
H114  H     H_    0.219353 0.673594 0.257328 0.253148
H115  H     H_    0.335289 0.722357 0.323386 0.239736
H116  H     H_    0.288322 0.668503 0.209243 0.237177

loop_
_geom_bond_atom_site_label_1
_geom_bond_atom_site_label_2
_ccdc_geom_bond_type
C48   C51   S    
Cu5   Cu6   S    
C55   H16   S    
Cu6   O15   S    
C23   O21   A    
C17   C34   S    
C43   O34   S    
C11   C13   A    
C41   C42   A    
C28   O8    A    
C83   C84   S    
C74   H61   S    
C63   C64   S    
C1    O1    A    
C54   H15   S    
C64   H39   S    
C89   H99   S    
C67   H44   S    
O25   C52   S    
C88   H97   S    
C68   H47   S    
C7    C8    A    
Cu4   O4    S    
O34   C83   S    
C94   H113  S    
C86   C87   S    
C40   C46   A    
C74   H62   S    
C29   C36   S    
C8    C95   S    
C72   H57   S    
C91   H103  S    
C18   C24   A    
C49   O30   S    
C36   C37   A    
C31   C42   S    
C26   C50   S    
C25   O2    A    
C5    C6    A    
C30   O13   A    
C65   C66   S    
C83   H85   S    
C61   H31   S    
C37   O32   S    
C40   C81   S    
C91   H104  S    
C95   H115  S    
C15   C16   A    
C12   O18   A    
C12   O19   A    
C84   C85   S    
Cu6   O17   S    
O27   C59   S    
C58   H25   S    
C81   H79   S    
C18   C19   A    
C82   H81   S    
Cu2   O23   S    
Cu3   O7    S    
C26   O3    A    
C77   H68   S    
C87   H93   S    
C78   C79   S    
C2    C50   A    
C79   C80   S    
C54   H14   S    
C32   O16   A    
C92   H105  S    
C70   H52   S    
C11   C17   A    
C88   H95   S    
C44   C46   A    
C16   C17   A    
C80   H76   S    
C47   C48   A    
C93   H109  S    
C23   C24   S    
O28   C62   S    
C75   H64   S    
C5    C93   S    
C9    C10   A    
Cu1   O20   S    
C69   H51   S    
Cu5   O11   S    
C60   C61   S    
C76   C77   S    
Cu5   O14   S    
Cu6   O10   S    
C95   H116  S    
C73   H60   S    
Cu1   O22   S    
C22   C68   S    
C33   H3    S    
C7    C30   S    
C44   O35   S    
C13   C14   A    
C62   H33   S    
C82   H82   S    
C66   C67   S    
C53   H11   S    
Cu1   O1    S    
C34   O23   A    
C21   O29   S    
C12   C47   S    
C16   O27   S    
C58   H24   S    
C58   H23   S    
C67   H45   S    
C60   H29   S    
C54   H13   S    
C92   H106  S    
C4    C45   S    
C45   C47   A    
C19   H2    S    
C74   H63   S    
C94   H112  S    
C93   H110  S    
Cu6   O13   S    
Cu1   Cu2   S    
C71   H56   S    
C73   H59   S    
C61   H30   S    
O35   C86   S    
C69   C70   S    
C90   H101  S    
Cu2   O12   S    
O29   C65   S    
C59   C60   S    
C52   H9    S    
C83   H84   S    
C8    C9    A    
C61   H32   S    
C64   H38   S    
Cu4   O6    S    
C53   C54   S    
C86   H91   S    
C38   O33   S    
C4    H5    S    
C57   C58   S    
C35   C36   A    
C71   H55   S    
C70   H53   S    
C81   H80   S    
C53   H12   S    
C43   C44   A    
C79   H73   S    
C37   C38   A    
O32   C75   S    
C18   O28   S    
C52   H10   S    
Cu4   O2    S    
C31   O14   A    
O36   C89   S    
C92   H107  S    
C85   H90   S    
C80   H77   S    
C4    H4    S    
C25   O24   A    
C84   H86   S    
C11   C55   S    
C33   C39   A    
C56   H19   S    
C85   H88   S    
Cu2   O21   S    
Cu3   O5    S    
Cu1   O18   S    
C69   H50   S    
C6    C7    A    
O33   C78   S    
C27   C46   S    
C40   C41   A    
C85   H89   S    
C49   C50   A    
C72   C73   S    
Cu5   O16   S    
C82   H83   S    
C22   C24   A    
C34   O22   A    
C68   H49   S    
C86   H92   S    
C42   C43   A    
C41   C82   S    
C63   H35   S    
C62   C63   S    
C3    O36   S    
C67   H46   S    
C60   H28   S    
C29   O9    A    
C20   C32   S    
C94   H111  S    
O31   C72   S    
C79   H74   S    
C23   O20   A    
C28   O7    A    
C51   H6    S    
C26   O4    A    
C6    C94   S    
C1    C10   S    
C14   C15   A    
C29   O10   A    
C63   H36   S    
C51   H8    S    
C62   H34   S    
C9    O25   S    
C30   O11   A    
C65   H40   S    
C88   H96   S    
Cu3   Cu4   S    
C64   H37   S    
C70   C71   S    
O26   C56   S    
C35   O31   S    
C57   H22   S    
C55   H17   S    
C87   H94   S    
C1    O12   A    
C71   H54   S    
C75   C76   S    
C19   C20   A    
C59   H27   S    
C2    C3    S    
C95   H114  S    
C78   H71   S    
C27   O5    A    
Cu2   O19   S    
C59   H26   S    
C25   C39   S    
C52   C53   S    
C65   H41   S    
C33   C35   A    
C15   O26   S    
C31   O15   A    
C38   C39   A    
Cu4   O8    S    
C56   H20   S    
C48   C49   A    
C93   H108  S    
C75   H65   S    
C89   H98   S    
Cu3   O3    S    
C90   C91   S    
C51   H7    S    
C87   C88   S    
C81   H78   S    
C77   H69   S    
C78   H72   S    
Cu5   O9    S    
C27   O6    A    
C2    C45   A    
C3    C92   S    
C32   O17   A    
C76   H66   S    
C68   H48   S    
C5    C10   A    
C13   H1    S    
C20   C21   A    
C72   H58   S    
C80   H75   S    
C91   H102  S    
C57   H21   S    
C90   H100  S    
C84   H87   S    
C66   H42   S    
Cu3   O24   S    
C55   H18   S    
C73   C74   S    
C14   C28   S    
O30   C69   S    
C21   C22   A    
C77   H70   S    
C89   C90   S    
C66   H43   S    
C3    C4    S    
C76   H67   S    
C56   C57   S    
