data_mof_unit_43325.cif
_audit_creation_date              2012-12-10T17:36:42-0500
_audit_creation_method            fapswitch 2.2
_symmetry_space_group_name_H-M    P1
_symmetry_Int_Tables_number       1
_space_group_crystal_system       triclinic
_cell_length_a                    12.026735
_cell_length_b                    12.830709
_cell_length_c                    15.725906
_cell_angle_alpha                 89.354868
_cell_angle_beta                  85.957507
_cell_angle_gamma                 93.373562
_cell_volume                      2416.16716079

loop_
_atom_site_label
_atom_site_type_symbol
_atom_type_description
_atom_site_fract_x
_atom_site_fract_y
_atom_site_fract_z
_atom_type_partial_charge
C1    C     C_R   0.522207 0.700133 0.498607 0.917250
C2    C     C_R   0.507722 0.019933 0.541437 -0.107193
C3    C     C_R   0.957622 0.422533 0.406682 0.032229
C4    C     C_R   0.042377 0.577458 0.593326 0.034222
C5    C     C_R   0.839603 0.421938 0.421159 0.657059
C6    C     C_R   0.160396 0.578050 0.578849 0.657641
C7    C     C_R   0.856438 0.531969 0.540327 -0.147662
C8    C     C_R   0.143562 0.468036 0.459671 -0.147961
C9    C     C_R   0.974390 0.527472 0.534085 -0.036141
C10   C     C_R   0.025609 0.472529 0.465918 -0.036194
C11   C     C_R   0.500244 0.501651 0.661902 0.860113
C12   C     C_R   0.477793 0.299867 0.501422 0.916982
C13   C     C_R   0.499756 0.498347 0.338092 0.860202
C14   C     C_3   0.453144 0.587353 0.030032 0.042886
C15   C     C_3   0.546985 0.414613 0.970018 0.045113
C16   C     C_3   0.559014 0.587193 0.968337 0.041153
C17   C     C_3   0.441327 0.414770 0.031499 0.043792
C18   C     C_1   0.500128 0.501874 0.750640 -0.178221
C19   C     C_1   0.499931 0.498534 0.249340 -0.178439
C20   C     C_3   0.395009 0.501490 0.977922 0.546445
C21   C     C_3   0.605206 0.500201 0.022027 0.546486
C22   C     C_3   0.500235 0.501290 0.916556 -0.055522
C23   C     C_R   0.548691 0.955906 0.604949 0.244050
C24   C     C_3   0.499971 0.500301 0.083398 -0.055545
C25   C     C_1   0.499921 0.501693 0.825798 0.067154
C26   C     C_1   0.500207 0.499227 0.174170 0.067086
C27   C     C_R   0.464325 0.189421 0.490723 -0.195135
C28   C     C_R   0.535668 0.810580 0.509326 -0.195153
C29   C     C_3   0.620840 0.684928 0.928763 -0.881639
C30   C     C_3   0.376839 0.317474 0.069378 -0.846610
C31   C     C_3   0.404854 0.685306 0.067530 -0.893931
C32   C     C_3   0.598045 0.317118 0.934129 -0.858067
C33   C     C_3   0.796342 0.518351 0.989535 -0.277966
C34   C     C_R   0.451274 0.044089 0.395114 0.244424
C35   C     C_3   0.206487 0.521203 0.010029 -0.276278
C36   C     C_3   0.507505 0.231714 0.675245 -0.304034
C37   C     C_3   0.492400 0.768339 0.324814 -0.306056
C38   C     C_3   0.439777 0.227313 0.334533 -0.870279
C39   C     C_3   0.560201 0.772674 0.665512 -0.871599
C40   C     C_3   0.603357 0.002172 0.681062 -0.815848
C41   C     C_3   0.396570 0.997820 0.319018 -0.816221
C42   C     C_3   0.231125 0.741596 0.606197 -0.284095
C43   C     C_3   0.768887 0.258379 0.393847 -0.281551
C44   C     C_3   0.009677 0.374027 0.327311 -0.912310
C45   C     C_R   0.548851 0.848248 0.591947 0.080866
C46   C     C_3   0.990321 0.625948 0.672706 -0.915818
C47   C     C_R   0.451131 0.151747 0.408105 0.080575
C48   C     C_R   0.518276 0.877388 0.440765 0.431560
C49   C     C_R   0.481703 0.122618 0.559295 0.431350
C50   C     C_R   0.492248 0.980067 0.458625 -0.107186
H1    H     H_    0.185455 0.423327 0.410590 0.177033
H2    H     H_    0.336486 0.663585 0.116724 0.227690
H3    H     H_    0.471233 0.732529 0.097617 0.250204
H4    H     H_    0.631493 0.272225 0.986344 0.260648
H5    H     H_    0.533052 0.267705 0.904413 0.241287
H6    H     H_    0.666427 0.339056 0.885058 0.227012
H7    H     H_    0.815199 0.603999 0.985005 0.175140
H8    H     H_    0.776352 0.487404 0.926225 0.149068
H9    H     H_    0.873314 0.482408 0.007200 0.184681
H10   H     H_    0.199459 0.606938 0.012884 0.175659
H11   H     H_    0.222142 0.489495 0.073955 0.148188
H12   H     H_    0.814545 0.576683 0.589406 0.177009
H13   H     H_    0.124616 0.486171 0.993058 0.184041
H14   H     H_    0.456746 0.300528 0.673800 0.183569
H15   H     H_    0.591604 0.248438 0.641946 0.145545
H16   H     H_    0.520233 0.215340 0.743158 0.183997
H17   H     H_    0.408324 0.751610 0.358149 0.146010
H18   H     H_    0.543139 0.699508 0.326192 0.183405
H19   H     H_    0.479606 0.784785 0.256932 0.184048
H20   H     H_    0.442194 0.189895 0.271350 0.241382
H21   H     H_    0.360768 0.267559 0.344499 0.241353
H22   H     H_    0.511526 0.285799 0.330640 0.246202
H23   H     H_    0.659254 0.731608 0.979193 0.252178
H24   H     H_    0.557789 0.810087 0.728695 0.241266
H25   H     H_    0.488445 0.714197 0.669401 0.246020
H26   H     H_    0.639205 0.732420 0.655543 0.241603
H27   H     H_    0.669487 0.953049 0.702195 0.222463
H28   H     H_    0.648602 0.077801 0.663305 0.224714
H29   H     H_    0.540161 0.011330 0.734960 0.263141
H30   H     H_    0.330453 0.046959 0.297885 0.222426
H31   H     H_    0.459747 0.988630 0.265112 0.263300
H32   H     H_    0.351299 0.922210 0.336798 0.224533
H33   H     H_    0.153329 0.777448 0.629846 0.159653
H34   H     H_    0.686601 0.662906 0.880367 0.229296
H35   H     H_    0.244294 0.754173 0.535886 0.152045
H36   H     H_    0.301266 0.783940 0.635722 0.201131
H37   H     H_    0.755682 0.245824 0.464159 0.151523
H38   H     H_    0.846703 0.222534 0.370234 0.159617
H39   H     H_    0.698773 0.216010 0.364307 0.201237
H40   H     H_    0.069786 0.431736 0.293103 0.238317
H41   H     H_    0.053943 0.304284 0.344984 0.232551
H42   H     H_    0.947206 0.350387 0.281502 0.279715
H43   H     H_    0.930207 0.568235 0.706905 0.238814
H44   H     H_    0.052790 0.649573 0.718521 0.278502
H45   H     H_    0.561217 0.732672 0.897149 0.253352
H46   H     H_    0.946059 0.695698 0.655043 0.232544
H47   H     H_    0.337983 0.272904 0.017978 0.257927
H48   H     H_    0.434775 0.267655 0.100776 0.244599
H49   H     H_    0.310909 0.339649 0.117516 0.228476
H50   H     H_    0.372396 0.732391 0.016170 0.254645
N1    N     N_R   0.207800 0.519340 0.515560 -0.160863
N2    N     N_R   0.792200 0.480660 0.484440 -0.160876
O1    O     O_R   0.421700 0.658830 0.504150 -0.621559
O2    O     O_3   0.288193 0.497518 0.945668 -0.583820
O3    O     O_3   0.446289 0.145775 0.642875 -0.596478
O4    O     O_3   0.553684 0.854231 0.357188 -0.596674
O5    O     O_3   0.229405 0.634905 0.630240 -0.579525
O6    O     O_3   0.770596 0.365062 0.369782 -0.579034
O7    O     O_R   0.578300 0.341170 0.495850 -0.621576
O8    O     O_R   0.609310 0.646410 0.494170 -0.604865
O9    O     O_R   0.390690 0.353590 0.505830 -0.604611
O10   O     O_R   0.406210 0.506220 0.628210 -0.549036
O11   O     O_R   0.593790 0.493780 0.371790 -0.549221
O12   O     O_R   0.593830 0.493800 0.618230 -0.640214
O13   O     O_R   0.406170 0.506200 0.381770 -0.640242
O14   O     O_3   0.711381 0.494834 0.054359 -0.583396
Zn1   Zn    Zn3+2 0.374730 0.508290 0.506660 0.973732
Zn2   Zn    Zn3+2 0.625270 0.491710 0.493340 0.973515

loop_
_geom_bond_atom_site_label_1
_geom_bond_atom_site_label_2
_ccdc_geom_bond_type
C38   H20   S    
C11   C18   S    
C33   H8    S    
C23   C45   A    
C37   H19   S    
C31   H2    S    
O8    Zn2   S    
C41   H30   S    
C15   C32   S    
C4    C46   S    
C34   C41   S    
C30   H47   S    
C43   H39   S    
C43   H38   S    
C24   C26   S    
O10   Zn1   S    
C36   H16   S    
C6    N1    A    
C29   H23   S    
C23   C40   S    
C37   H18   S    
C17   C20   S    
C15   C17   S    
C39   H24   S    
C14   C24   S    
C11   O12   A    
C19   C26   T    
C2    C50   A    
C38   H21   S    
C15   C22   S    
C48   O4    S    
O13   Zn1   S    
C22   C25   S    
C1    C28   S    
C33   H7    S    
C6    O5    S    
C42   H36   S    
C39   H25   S    
C9    C10   A    
C1    O1    A    
C32   H5    S    
C44   H42   S    
C39   C45   S    
C48   C50   A    
C11   O10   A    
C33   H9    S    
C17   C30   S    
O1    Zn1   S    
C18   C25   T    
C21   O14   S    
C32   H4    S    
C12   O7    A    
O7    Zn2   S    
C28   C45   A    
C38   H22   S    
C3    C44   S    
C34   C50   A    
C17   C24   S    
C13   C19   S    
C12   C27   S    
C14   C20   S    
C29   H34   S    
C4    C6    A    
C35   O2    S    
C29   H45   S    
C36   H15   S    
C49   O3    S    
C16   C29   S    
C39   H26   S    
C30   H49   S    
C7    N2    A    
C35   H10   S    
C7    H12   S    
C2    C49   A    
C1    O8    A    
C46   H44   S    
C41   H31   S    
C40   H29   S    
C35   H11   S    
C42   H35   S    
C13   O13   A    
C31   H50   S    
C31   H3    S    
C8    H1    S    
C38   C47   S    
O12   Zn2   S    
C44   H41   S    
C20   C22   S    
C14   C16   S    
C44   H40   S    
C42   O5    S    
C27   C47   A    
C7    C9    A    
C5    N2    A    
C28   C48   A    
C33   O14   S    
C16   C22   S    
C36   O3    S    
C42   H33   S    
C3    C5    A    
N2    Zn2   S    
C16   C21   S    
C20   O2    S    
C8    N1    A    
C30   H48   S    
O9    Zn1   S    
N1    Zn1   S    
C14   C31   S    
C43   H37   S    
C37   O4    S    
C3    C10   A    
C46   H43   S    
C41   H32   S    
C37   H17   S    
C40   H28   S    
C43   O6    S    
O11   Zn2   S    
C15   C21   S    
C46   H46   S    
C8    C10   A    
C21   C24   S    
C2    C23   A    
C40   H27   S    
C35   H13   S    
C34   C47   A    
C4    C9    A    
C36   H14   S    
C32   H6    S    
C12   O9    A    
C13   O11   A    
C27   C49   A    
C5    O6    S    
