data_mof_unit_41241.cif
_audit_creation_date              2012-10-26T21:01:02-0400
_audit_creation_method            fapswitch 2.2
_symmetry_space_group_name_H-M    P1
_symmetry_Int_Tables_number       1
_space_group_crystal_system       triclinic
_cell_length_a                    10.930423
_cell_length_b                    10.818479
_cell_length_c                    9.548278
_cell_angle_alpha                 89.918177
_cell_angle_beta                  89.756892
_cell_angle_gamma                 90.214411
_cell_volume                      1129.06989463

loop_
_atom_site_label
_atom_site_type_symbol
_atom_type_description
_atom_site_fract_x
_atom_site_fract_y
_atom_site_fract_z
_atom_type_partial_charge
C1    C     C_R   0.497045 0.262337 0.500028 0.551079
C2    C     C_R   0.432599 0.416715 0.075428 -0.011065
C3    C     C_R   0.429468 0.417981 0.925369 0.369886
C4    C     C_R   0.265334 0.497674 0.500328 0.553068
C5    C     C_R   0.558518 0.591557 0.925915 0.111358
C6    C     C_3   0.691364 0.622813 0.919611 -0.280749
C7    C     C_3   0.690748 0.623731 0.078457 -0.269156
C8    C     C_R   0.497672 0.737711 0.499874 0.545939
C9    C     C_R   0.734678 0.501084 0.499898 0.548596
C10   C     C_2   0.933449 0.486528 0.386195 -0.161886
C11   C     C_2   0.866712 0.507151 0.501725 -0.119546
C12   C     C_R   0.483638 0.129274 0.499741 0.008377
C13   C     C_2   0.067340 0.492945 0.385430 -0.160904
C14   C     C_2   0.133341 0.490034 0.503279 -0.118189
C15   C     C_R   0.479770 0.063456 0.625494 0.038372
C16   C     C_3   0.243079 0.316549 0.895656 -0.021160
C17   C     C_3   0.220606 0.186553 0.951836 -0.400999
C18   C     C_R   0.469658 0.064571 0.373084 -0.167807
C19   C     C_R   0.470286 0.935697 0.372974 -0.164093
C20   C     C_R   0.484816 0.870797 0.499507 0.007234
C21   C     C_R   0.480686 0.936240 0.625318 0.018357
C22   C     C_3   0.563183 0.930445 0.749441 -0.281100
C23   C     C_3   0.561555 0.070747 0.750162 -0.258114
C24   C     C_R   0.558033 0.591910 0.073129 0.138776
Cu1   Cu    Cu3+1 0.499990 0.499980 0.640670 0.990139
Cu2   Cu    Cu3+1 0.500010 0.500020 0.359330 0.927964
H1    H     H_    0.889192 0.465960 0.287396 0.134985
H2    H     H_    0.091836 0.478621 0.605595 0.088334
H3    H     H_    0.464631 0.112807 0.273785 0.129512
H4    H     H_    0.465633 0.887711 0.273636 0.134757
H5    H     H_    0.517207 0.888691 0.842299 0.136823
H6    H     H_    0.654488 0.891571 0.723366 0.131039
H7    H     H_    0.513984 0.109834 0.843123 0.168328
H8    H     H_    0.183807 0.329879 0.802718 0.154233
H9    H     H_    0.212815 0.386214 0.974468 0.089881
H10   H     H_    0.278560 0.168965 0.044859 0.133029
H11   H     H_    0.122994 0.175885 0.982361 0.103618
H12   H     H_    0.651987 0.113155 0.725565 0.134397
H13   H     H_    0.242830 0.117328 0.869833 0.162501
H14   H     H_    0.382677 0.346939 0.133412 0.117482
H15   H     H_    0.747839 0.547078 0.875120 0.148467
H16   H     H_    0.708505 0.715432 0.873201 0.118660
H17   H     H_    0.746986 0.548626 0.123849 0.146176
H18   H     H_    0.706937 0.716967 0.123670 0.126357
H19   H     H_    0.907590 0.531232 0.601088 0.092279
H20   H     H_    0.112260 0.498113 0.283846 0.142306
N1    N     N_R   0.500780 0.500930 0.147930 -0.261108
N2    N     N_R   0.500780 0.500890 0.852020 -0.221544
O1    O     O_R   0.500000 0.319640 0.618810 -0.445817
O2    O     O_R   0.500010 0.319680 0.381230 -0.521212
O3    O     O_R   0.321940 0.499980 0.618760 -0.478082
O4    O     O_R   0.321950 0.500020 0.381180 -0.507047
O5    O     O_R   0.499990 0.680320 0.618770 -0.502075
O6    O     O_R   0.500000 0.680360 0.381190 -0.505007
O7    O     O_R   0.678050 0.499980 0.618820 -0.513987
O8    O     O_R   0.678060 0.500020 0.381240 -0.499274
O9    O     O_3   0.366403 0.328123 0.851297 -0.532386

loop_
_geom_bond_atom_site_label_1
_geom_bond_atom_site_label_2
_ccdc_geom_bond_type
C8    O5    A    
C10   H1    S    
Cu1   O3    S    
C2    H14   S    
C6    C7    S    
C9    O7    A    
C17   H10   S    
C7    H17   S    
C2    N1    A    
C23   H12   S    
C1    O2    A    
C19   C20   A    
C12   C15   A    
C16   H8    S    
C10   C11   D    
C24   N1    A    
C15   C23   S    
C2    C3    A    
C18   H3    S    
C17   H11   S    
C7    H18   S    
C9    C11   S    
Cu1   N2    S    
C8    C20   S    
C5    C24   A    
C22   H6    S    
Cu2   N1    S    
C4    O4    A    
C3    O9    S    
C21   C22   S    
Cu1   O5    S    
Cu2   O4    S    
C16   O9    S    
Cu2   O2    S    
C16   H9    S    
C4    C14   S    
C5    C6    S    
C5    N2    A    
Cu1   O1    S    
C11   H19   S    
C22   H5    S    
C4    O3    A    
C12   C18   A    
C7    C24   S    
Cu2   O6    S    
C3    N2    A    
C15   C21   A    
C20   C21   A    
C18   C19   A    
C17   H13   S    
C8    O6    A    
C9    O8    A    
C13   H20   S    
C13   C14   D    
C14   H2    S    
Cu1   Cu2   S    
C22   C23   S    
C19   H4    S    
C1    O1    A    
C10   C13   S    
C1    C12   S    
Cu1   O7    S    
Cu2   O8    S    
C16   C17   S    
C23   H7    S    
C6    H15   S    
C6    H16   S    
