data_mof_unit_65856.cif
_audit_creation_date              2012-12-10T20:58:26-0500
_audit_creation_method            fapswitch 2.2
_symmetry_space_group_name_H-M    P1
_symmetry_Int_Tables_number       1
_space_group_crystal_system       triclinic
_cell_length_a                    15.876328
_cell_length_b                    15.085242
_cell_length_c                    11.570457
_cell_angle_alpha                 90.00026
_cell_angle_beta                  89.979804
_cell_angle_gamma                 90.000128
_cell_volume                      2771.10403045

loop_
_atom_site_label
_atom_site_type_symbol
_atom_type_description
_atom_site_fract_x
_atom_site_fract_y
_atom_site_fract_z
_atom_type_partial_charge
C1    C     C_R   0.338967 0.500000 0.500048 0.905639
C2    C     C_R   0.550556 0.046855 0.577849 -0.161718
C3    C     C_R   0.550555 0.953145 0.577849 -0.161715
C4    C     C_R   0.449427 0.046855 0.422161 -0.162772
C5    C     C_1   0.499996 0.807145 0.500001 0.044012
C6    C     C_1   0.499996 0.192855 0.500001 0.044012
C7    C     C_1   0.500003 0.499999 0.161134 -0.185915
C8    C     C_1   0.499982 0.500000 0.838866 -0.185963
C9    C     C_1   0.499994 0.500000 0.059192 0.002620
C10   C     C_1   0.499986 0.500000 0.940808 0.002599
C11   C     C_R   0.955865 0.581113 0.501273 0.068646
C12   C     C_R   0.661037 0.500000 0.499950 0.898846
C13   C     C_R   0.043770 0.418698 0.498597 0.039826
C14   C     C_R   0.043767 0.581319 0.501269 0.039816
C15   C     C_R   0.955869 0.418899 0.498614 0.068632
C16   C     C_R   0.912909 0.500005 0.499955 0.055607
C17   C     C_R   0.087079 0.500009 0.499943 0.033452
C18   C     C_1   0.823916 0.500004 0.499954 0.039883
C19   C     C_1   0.176106 0.500007 0.499980 -0.065011
C20   C     C_1   0.250786 0.500003 0.500017 -0.190791
C21   C     C_1   0.749231 0.500001 0.499950 -0.173466
C22   C     C_R   0.499992 0.905035 0.500004 0.079993
C23   C     C_R   0.499992 0.094965 0.500004 0.079996
C24   C     C_R   0.500011 0.500000 0.281331 0.905244
C25   C     C_R   0.499984 0.500000 0.718669 0.905226
C26   C     C_R   0.449427 0.953144 0.422161 -0.162775
H1    H     H_    0.409784 0.081799 0.361126 0.134557
H2    H     H_    0.927095 0.698458 0.576370 0.202774
H3    H     H_    0.126414 0.332491 0.570434 0.198357
H4    H     H_    0.126436 0.333930 0.423877 0.197500
H5    H     H_    0.590200 0.918201 0.638884 0.135865
H6    H     H_    0.590200 0.081799 0.638884 0.135857
H7    H     H_    0.409783 0.918200 0.361126 0.134555
H8    H     H_    0.126403 0.666116 0.575927 0.198291
H9    H     H_    0.126437 0.667511 0.429368 0.197581
H10   H     H_    0.927122 0.301582 0.423464 0.203320
H11   H     H_    0.927120 0.300136 0.569831 0.202811
H12   H     H_    0.927132 0.699850 0.429999 0.203342
N1    N     N_1   0.500000 0.270550 0.500000 -0.085424
N2    N     N_1   0.500000 0.729450 0.500000 -0.085424
N3    N     N_3   0.087961 0.664340 0.502610 -0.468632
N4    N     N_3   0.909662 0.337121 0.497264 -0.446507
N5    N     N_3   0.909655 0.662890 0.502599 -0.446526
N6    N     N_3   0.087966 0.335681 0.497205 -0.468652
O1    O     O_R   0.378020 0.573650 0.500040 -0.611663
O2    O     O_R   0.621980 0.426350 0.499960 -0.606253
O3    O     O_R   0.621980 0.573650 0.499960 -0.606252
O4    O     O_R   0.378020 0.426350 0.500040 -0.611662
O5    O     O_R   0.500010 0.573670 0.334460 -0.608575
O6    O     O_R   0.499990 0.426330 0.665540 -0.608627
O7    O     O_R   0.499990 0.573670 0.665540 -0.608628
O8    O     O_R   0.500010 0.426330 0.334460 -0.608576
Zn1   Zn    Zn3+2 0.500000 0.598370 0.500000 0.981335
Zn2   Zn    Zn3+2 0.500000 0.401630 0.500000 0.981335

loop_
_geom_bond_atom_site_label_1
_geom_bond_atom_site_label_2
_ccdc_geom_bond_type
C24   O8    A    
C4    C26   A    
C25   O7    A    
C1    O4    A    
C11   N5    S    
C18   C21   T    
C9    C10   S    
H2    N5    S    
H10   N4    S    
C19   C20   T    
C13   C17   A    
O3    Zn1   S    
H4    N6    S    
O2    Zn2   S    
C13   C15   A    
C2    C3    A    
O1    Zn1   S    
H12   N5    S    
C13   N6    S    
C3    H5    S    
C8    C25   S    
C14   C17   A    
C1    O1    A    
O6    Zn2   S    
H8    N3    S    
C12   O3    A    
O5    Zn1   S    
C6    C23   S    
C2    H6    S    
C17   C19   S    
O8    Zn2   S    
H11   N4    S    
C14   N3    S    
H3    N6    S    
H9    N3    S    
C11   C14   A    
N1    Zn2   S    
C7    C24   S    
C7    C9    T    
C24   O5    A    
C4    H1    S    
C16   C18   S    
N2    Zn1   S    
C22   C26   A    
C5    N2    T    
C2    C23   A    
O4    Zn2   S    
C4    C23   A    
C6    N1    T    
C3    C22   A    
C26   H7    S    
O7    Zn1   S    
C25   O6    A    
C11   C16   A    
C12   C21   S    
C8    C10   T    
C5    C22   S    
C15   C16   A    
C15   N4    S    
C1    C20   S    
C12   O2    A    
