data_mof_unit_11976.cif
_audit_creation_date              2012-12-11T15:55:48-0500
_audit_creation_method            fapswitch 2.2
_symmetry_space_group_name_H-M    P1
_symmetry_Int_Tables_number       1
_space_group_crystal_system       triclinic
_cell_length_a                    11.061256
_cell_length_b                    11.11502
_cell_length_c                    18.784905
_cell_angle_alpha                 90.825173
_cell_angle_beta                  90.909964
_cell_angle_gamma                 59.048435
_cell_volume                      1980.35670898

loop_
_atom_site_label
_atom_site_type_symbol
_atom_type_description
_atom_site_fract_x
_atom_site_fract_y
_atom_site_fract_z
_atom_type_partial_charge
C1    C     C_R   0.362904 0.759651 0.394082 0.541243
C2    C     C_R   0.637304 0.117840 0.166167 0.083146
C3    C     C_R   0.371312 0.330885 0.159289 -0.003868
C4    C     C_R   0.484761 0.235758 0.272087 0.302990
C5    C     C_R   0.493703 0.228817 0.197719 -0.049023
C6    C     C_R   0.058143 0.633993 0.353798 -0.086713
C7    C     C_R   0.922504 0.704210 0.381330 -0.098411
C8    C     C_R   0.663330 0.002025 0.121400 -0.085573
C9    C     C_R   0.798758 0.899573 0.100545 -0.116826
C10   C     C_R   0.260862 0.445842 0.195318 0.300871
C11   C     C_R   0.245852 0.445695 0.269275 -0.085063
C12   C     C_R   0.385242 0.354449 0.386831 0.559783
C13   C     C_R   0.817162 0.693166 0.346950 -0.069631
C14   C     C_R   0.845373 0.621677 0.282497 -0.110248
C15   C     C_R   0.984174 0.539129 0.259341 -0.045461
C16   C     C_R   0.096681 0.537245 0.296987 0.045112
C17   C     C_R   0.364369 0.341615 0.309259 -0.050522
C18   C     C_R   0.866014 0.332479 0.183672 0.018534
C19   C     C_R   0.960037 0.238419 0.233832 -0.065188
C20   C     C_R   0.928202 0.250350 0.304334 -0.005535
C21   C     C_R   0.694825 0.440564 0.277465 -0.134299
C22   C     C_R   0.727402 0.427778 0.204636 0.307142
C23   C     C_R   0.771352 0.381550 0.401976 0.555154
C24   C     C_3   0.112413 0.178601 0.248500 -0.281137
C25   C     C_3   0.076093 0.196091 0.327459 -0.273395
C26   C     C_R   0.801724 0.359917 0.327852 -0.007236
C27   C     C_R   0.370574 0.817048 0.170668 0.068870
C28   C     C_R   0.456583 0.840245 0.218092 0.023688
C29   C     C_R   0.448202 0.827389 0.291074 -0.014839
C30   C     C_R   0.301731 0.730984 0.270462 -0.159056
C31   C     C_R   0.308137 0.744874 0.197317 -0.090607
C32   C     C_3   0.471416 0.964201 0.230985 -0.263796
C33   C     C_3   0.450925 0.955998 0.309316 -0.255160
C34   C     C_R   0.342763 0.771020 0.603521 0.539930
C35   C     C_R   0.361615 0.784396 0.318424 -0.005908
C36   C     C_R   0.297396 0.305737 0.808096 0.020994
C37   C     C_R   0.415596 0.202422 0.772778 0.039928
C38   C     C_R   0.429393 0.206191 0.701159 -0.049587
C39   C     C_R   0.193740 0.406211 0.692548 -0.139284
C40   C     C_R   0.179501 0.400676 0.766788 -0.116694
C41   C     C_3   0.567836 0.146650 0.788217 0.252968
C42   C     C_3   0.584488 0.151467 0.709004 -0.160220
C43   C     C_R   0.325398 0.316753 0.660848 -0.008750
C44   C     C_R   0.833448 0.320188 0.832100 -0.026741
C45   C     C_R   0.369092 0.348896 0.594725 0.533096
C46   C     C_R   0.794656 0.445761 0.799149 0.011688
C47   C     C_R   0.786562 0.457251 0.726923 -0.009967
C48   C     C_R   0.866203 0.211356 0.714274 0.171966
C49   C     C_R   0.876415 0.199779 0.788979 -0.135420
C50   C     C_3   0.667398 0.586309 0.811133 -0.259146
C51   C     C_3   0.657092 0.599707 0.731062 -0.238751
C52   C     C_R   0.814437 0.343815 0.682974 0.020757
C53   C     C_R   0.290594 0.869769 0.821170 0.015728
C54   C     C_R   0.200545 0.837503 0.785729 -0.001280
C55   C     C_R   0.209813 0.818493 0.713404 0.109308
C56   C     C_R   0.763900 0.376876 0.610014 0.566686
C57   C     C_R   0.379577 0.891790 0.706596 -0.175524
C58   C     C_R   0.373082 0.907570 0.780565 -0.166097
C59   C     C_3   0.175865 0.719588 0.797589 0.245435
C60   C     C_3   0.186140 0.698160 0.717665 0.292747
C61   C     C_R   0.305973 0.835346 0.673308 -0.000934
C62   C     C_R   0.911658 0.315881 0.111380 0.599807
C63   C     C_R   0.332453 0.295462 0.090526 0.585766
C64   C     C_R   0.310405 0.896602 0.104700 0.542584
C65   C     C_R   0.883578 0.308234 0.904754 0.558673
C66   C     C_R   0.291878 0.284818 0.883684 0.576484
C67   C     C_R   0.914734 0.901204 0.127928 -0.058725
C68   C     C_R   0.272415 0.900517 0.896447 0.587034
C69   C     C_R   0.895136 0.004081 0.176960 -0.081245
C70   C     C_R   0.758781 0.111692 0.194749 -0.022641
Cr1   Cr    Cr6+3 0.601740 0.606840 0.505840 1.012982
Cr2   Cr    Cr6+3 0.291500 0.601560 0.495070 1.038977
Cr3   Cr    Cr6+3 0.606780 0.291630 0.499130 1.098489
Cr4   Cr    Cr6+3 0.062440 0.063060 0.008240 1.040003
Cr5   Cr    Cr6+3 0.062950 0.375000 0.998920 1.083071
Cr6   Cr    Cr6+3 0.374550 0.061770 0.992470 1.043664
H1    H     H_    0.713984 0.741673 0.369728 0.139847
H2    H     H_    0.759575 0.629897 0.250937 0.146611
H3    H     H_    0.002709 0.479462 0.210802 0.173268
H4    H     H_    0.589802 0.516875 0.294781 0.141175
H5    H     H_    0.153404 0.244871 0.229819 0.119049
H6    H     H_    0.172748 0.067461 0.231400 0.146621
H7    H     H_    0.119868 0.094917 0.356003 0.149413
H8    H     H_    0.090904 0.277144 0.354750 0.146178
H9    H     H_    0.246310 0.682422 0.289058 0.145733
H10   H     H_    0.813987 0.813656 0.066364 0.138356
H11   H     H_    0.250111 0.714136 0.162405 0.195195
H12   H     H_    0.388720 0.060441 0.204369 0.127521
H13   H     H_    0.582096 0.933561 0.223592 0.181726
H14   H     H_    0.541424 0.939650 0.342299 0.192544
H15   H     H_    0.350016 0.042574 0.329488 0.139918
H16   H     H_    0.107287 0.486677 0.661599 0.198046
H17   H     H_    0.080057 0.473293 0.791696 0.164072
H18   H     H_    0.588946 0.219212 0.820010 0.136297
H19   H     H_    0.611833 0.230956 0.694459 0.138370
H20   H     H_    0.898340 0.770671 0.428029 0.132826
H21   H     H_    0.649616 0.046296 0.683904 0.222410
H22   H     H_    0.919778 0.097397 0.812861 0.178448
H23   H     H_    0.693258 0.660477 0.837646 0.181710
H24   H     H_    0.579044 0.580747 0.835041 0.179681
H25   H     H_    0.563377 0.600050 0.708722 0.142765
H26   H     H_    0.675754 0.682366 0.711044 0.181319
H27   H     H_    0.451087 0.911056 0.676951 0.149958
H28   H     H_    0.436590 0.944445 0.805877 0.211964
H29   H     H_    0.070368 0.753852 0.819859 0.181092
H30   H     H_    0.019585 0.818921 0.113593 0.183361
H31   H     H_    0.278100 0.597351 0.699592 0.126868
H32   H     H_    0.986482 0.997839 0.202217 0.131841
H33   H     H_    0.747204 0.185430 0.235417 0.158894
H34   H     H_    0.127065 0.663543 0.375789 0.184957
H35   H     H_    0.585013 0.975740 0.108041 0.169374
O1    O     O_R   0.748670 0.497520 0.427970 -0.525591
O2    O     O_R   0.300170 0.471020 0.567120 -0.494951
O3    O     O_R   0.491630 0.259030 0.574940 -0.516970
O4    O     O_R   0.718640 0.304340 0.577850 -0.461257
O5    O     O_3   0.500010 0.500010 0.500020 -0.286062
O6    O     O_R   0.186620 0.923750 0.087000 -0.538603
O7    O     O_R   0.957350 0.194160 0.084660 -0.505280
O8    O     O_R   0.935120 0.407280 0.085350 -0.494269
O9    O     O_R   0.203800 0.365060 0.067090 -0.430178
O10   O     O_R   0.417470 0.174910 0.067830 -0.560669
O11   O     O_R   0.375160 0.946380 0.070880 -0.511776
O12   O     O_R   0.476470 0.723930 0.429450 -0.504796
O13   O     O_R   0.160500 0.919670 0.926690 -0.494975
O14   O     O_R   0.933140 0.190380 0.936050 -0.504744
O15   O     O_R   0.909010 0.403210 0.925030 -0.508451
O16   O     O_R   0.179590 0.361290 0.918480 -0.495949
O17   O     O_R   0.391360 0.170840 0.907510 -0.482364
O18   O     O_R   0.350950 0.942600 0.922260 -0.510930
O19   O     O_3   0.166650 0.166610 0.999880 -0.291122
O20   O     O_R   0.264730 0.744140 0.416740 -0.547063
O21   O     O_R   0.309440 0.472410 0.418220 -0.548411
O22   O     O_R   0.501630 0.260530 0.414310 -0.421443
O23   O     O_R   0.727920 0.305730 0.428950 -0.472413
O24   O     O_R   0.738670 0.496020 0.588600 -0.519788
O25   O     O_R   0.467190 0.722540 0.578350 -0.517890
O26   O     O_R   0.254720 0.742640 0.577370 -0.453868
F1    F     F_    0.595963 0.131136 0.308330 -0.645469
F2    F     F_    0.627584 0.510280 0.156203 -0.638886
F3    F     F_    0.634926 0.010674 0.813492 -0.628515
Cl1   Cl    Cl    0.913890 0.061258 0.662029 -0.559287
F4    F     F_    0.287125 0.609202 0.833504 -0.678292
F5    F     F_    0.058521 0.730940 0.686692 -0.610109
F6    F     F_    0.156601 0.552746 0.156841 -0.663836

loop_
_geom_bond_atom_site_label_1
_geom_bond_atom_site_label_2
_ccdc_geom_bond_type
C44   C49   A    
C7    C13   A    
Cr4   O13   S    
C21   C26   A    
C41   C42   S    
C19   C20   A    
C40   H17   S    
C68   O13   A    
C9    C67   A    
C53   C54   A    
C51   H26   S    
C7    H20   S    
C50   H23   S    
C59   H29   S    
Cr3   O5    S    
C30   C35   A    
Cr6   O10   S    
Cr1   O12   S    
C36   C37   A    
C38   C42   S    
C33   H15   S    
C60   F5    S    
Cr1   O24   S    
C30   C31   A    
C36   C66   S    
Cr4   O14   S    
C20   C25   S    
C15   C16   A    
C32   H12   S    
C29   C33   S    
C66   O16   A    
C18   C19   A    
C11   C16   S    
C23   C26   S    
C53   C68   S    
C24   H6    S    
C41   F3    S    
C49   H22   S    
C54   C55   A    
Cr6   O19   S    
C45   O3    A    
C15   H3    S    
C41   H18   S    
C59   F4    S    
C8    C9    A    
C12   C17   S    
Cr1   O5    S    
C25   H8    S    
C34   O25   A    
Cr5   O19   S    
C55   C60   S    
C59   C60   S    
C21   C22   A    
C6    H34   S    
C44   C65   S    
C69   C70   A    
Cr4   O7    S    
C63   O10   A    
C69   H32   S    
C44   C46   A    
C46   C50   S    
Cr2   O21   S    
C54   C59   S    
Cr2   O26   S    
C57   H27   S    
C13   H1    S    
C31   H11   S    
C27   C31   A    
C42   H19   S    
C36   C40   A    
Cr5   O8    S    
C24   C25   S    
C10   C11   A    
C42   H21   S    
C39   C40   A    
C18   C62   S    
C39   C43   A    
C1    O20   A    
C6    C16   A    
Cr2   O2    S    
C34   C61   S    
C64   O6    A    
C67   C69   A    
C65   O14   A    
C24   H5    S    
C1    O12   A    
C37   C38   A    
C23   O1    A    
C70   H33   S    
C9    H10   S    
Cr6   O18   S    
C32   H13   S    
C28   C32   S    
Cr1   O1    S    
C50   C51   S    
C10   F6    S    
C30   H9    S    
C43   C45   S    
C62   O8    A    
C47   C52   A    
C60   H31   S    
C4    C17   A    
C48   C49   A    
Cr3   O22   S    
C12   O22   A    
Cr4   O19   S    
Cr6   O17   S    
C8    H35   S    
C2    C5    S    
C58   H28   S    
C55   C61   A    
C39   H16   S    
Cr1   O25   S    
C56   O24   A    
C1    C35   S    
Cr2   O20   S    
Cr4   O6    S    
C29   C35   A    
C46   C47   A    
C28   C29   A    
C12   O21   A    
C23   O23   A    
C18   C22   A    
C2    C8    A    
Cr5   O9    S    
C4    C5    A    
C3    C5    A    
C11   C17   A    
C47   C51   S    
C53   C58   A    
C67   H30   S    
C57   C61   A    
C6    C7    A    
C3    C63   S    
C51   H25   S    
Cr2   O5    S    
C34   O26   A    
C50   H24   S    
Cr3   O4    S    
Cr5   O15   S    
Cr6   O11   S    
C65   O15   A    
C19   C24   S    
C38   C43   A    
C3    C10   A    
C2    C70   A    
C33   H14   S    
C32   C33   S    
C63   O9    A    
C57   C58   A    
C20   C26   A    
C64   O11   A    
C22   F2    S    
C21   H4    S    
C56   O4    A    
C66   O17   A    
C48   Cl1   S    
Cr5   O16   S    
C14   H2    S    
C37   C41   S    
C68   O18   A    
C62   O7    A    
C27   C64   S    
Cr3   O3    S    
C4    F1    S    
C45   O2    A    
C48   C52   A    
Cr3   O23   S    
C27   C28   A    
C25   H7    S    
C14   C15   A    
C13   C14   A    
C52   C56   S    
