data_mof_unit_22882.cif
_audit_creation_date              2012-12-10T18:02:09-0500
_audit_creation_method            fapswitch 2.2
_symmetry_space_group_name_H-M    P1
_symmetry_Int_Tables_number       1
_space_group_crystal_system       triclinic
_cell_length_a                    10.927002
_cell_length_b                    9.709752
_cell_length_c                    23.534796
_cell_angle_alpha                 89.687599
_cell_angle_beta                  93.361146
_cell_angle_gamma                 89.693263
_cell_volume                      2492.63345475

loop_
_atom_site_label
_atom_site_type_symbol
_atom_type_description
_atom_site_fract_x
_atom_site_fract_y
_atom_site_fract_z
_atom_type_partial_charge
C1    C     C_R   0.262633 0.499769 0.500181 0.860595
C2    C     C_R   0.737147 0.499373 0.497705 0.850553
C3    C     C_R   0.607964 0.404962 0.246650 0.378216
C4    C     C_R   0.409635 0.399963 0.755719 0.391711
C5    C     C_R   0.606905 0.424004 0.305897 0.308667
C6    C     C_R   0.401767 0.422949 0.695981 0.310974
C7    C     C_R   0.508619 0.495173 0.328981 -0.295585
C8    C     C_R   0.497217 0.493982 0.670897 -0.275809
C9    C     C_R   0.416098 0.553654 0.292044 0.054772
C10   C     C_R   0.595553 0.547260 0.705084 0.076308
C11   C     C_R   0.433030 0.560584 0.233476 0.443753
C12   C     C_R   0.585583 0.554198 0.764082 0.434210
C13   C     C_R   0.523387 0.477576 0.209862 0.017826
C14   C     C_R   0.498376 0.472393 0.790342 0.019297
C15   C     C_R   0.063820 0.373204 0.488564 0.143395
C16   C     C_R   0.935634 0.622036 0.493495 0.139157
C17   C     C_R   0.936733 0.371716 0.492051 0.162032
C18   C     C_R   0.062447 0.620838 0.505717 0.142458
C19   C     C_R   0.871464 0.497270 0.494684 -0.202738
C20   C     C_R   0.128083 0.497822 0.498241 -0.177691
C21   C     C_R   0.494374 0.072443 0.450726 0.462417
C22   C     C_R   0.526476 0.926133 0.549096 0.408670
C23   C     C_R   0.509902 0.073013 0.550147 0.408187
C24   C     C_R   0.459609 0.929648 0.452950 0.372422
C25   C     C_R   0.500825 0.499561 0.391323 0.898841
C26   C     C_R   0.498724 0.499194 0.608516 0.939742
C27   C     C_R   0.610971 0.435957 0.882005 0.630146
C28   C     C_R   0.414955 0.430987 0.118711 0.629506
C29   C     C_R   0.396275 0.482740 0.880146 0.617745
C30   C     C_R   0.628354 0.482373 0.120716 0.626411
C31   C     C_R   0.397544 0.465146 0.939314 -0.091614
C32   C     C_R   0.627764 0.466076 0.061510 -0.085121
C33   C     C_R   0.510916 0.454676 0.970440 -0.089076
C34   C     C_R   0.514787 0.453468 0.030355 -0.087155
C35   C     C_R   0.620269 0.446611 0.941756 -0.122083
C36   C     C_R   0.405680 0.441910 0.058991 -0.126714
C37   C     C_R   0.288560 0.459892 0.967894 -0.250547
C38   C     C_R   0.736679 0.466416 0.032788 -0.254892
C39   C     C_R   0.291476 0.444890 0.027247 0.491472
C40   C     C_R   0.734475 0.448583 0.973518 0.494704
Cu1   Cu    Cu3+1 0.500000 0.640660 0.500000 0.988506
Cu2   Cu    Cu3+1 0.500000 0.359340 0.500000 1.036589
H1    H     H_    0.200482 0.463978 0.944268 0.196845
H2    H     H_    0.824136 0.478390 0.056277 0.187434
N1    N     N_R   0.501498 0.463052 0.851974 -0.440325
N2    N     N_R   0.523161 0.461529 0.148683 -0.432379
N3    N     N_R   0.500000 0.852070 0.500000 -0.276722
N4    N     N_R   0.500000 0.147930 0.500000 -0.268148
O1    O     O_R   0.319640 0.618740 0.500000 -0.556537
O2    O     O_R   0.680360 0.381260 0.500000 -0.536113
O3    O     O_R   0.680360 0.618740 0.500000 -0.578304
O4    O     O_R   0.319640 0.381260 0.500000 -0.546627
O5    O     O_R   0.499960 0.618810 0.417880 -0.611755
O6    O     O_R   0.500040 0.381190 0.582120 -0.540526
O7    O     O_R   0.500040 0.618810 0.582120 -0.513252
O8    O     O_R   0.499960 0.381190 0.417880 -0.501662
O9    O     O_2   0.709890 0.397284 0.854163 -0.466123
O10   O     O_2   0.316861 0.390758 0.146727 -0.465301
O11   O     O_2   0.291022 0.520677 0.851315 -0.491513
O12   O     O_2   0.732559 0.521201 0.149683 -0.517514
O13   O     O_3   0.182371 0.432572 0.053767 -0.552576
C41   C     C_3   0.129900 0.564715 0.058567 -0.226889
H3    H     H_    0.194197 0.636879 0.081534 0.178018
H4    H     H_    0.047568 0.555860 0.083725 0.202363
H5    H     H_    0.099595 0.607434 0.016067 0.153078
O14   O     O_3   0.843157 0.452284 0.946106 -0.535203
C42   C     C_3   0.910968 0.331010 0.959198 -0.220446
H6    H     H_    0.990705 0.327849 0.932148 0.202898
H7    H     H_    0.855588 0.236996 0.949746 0.151607
H8    H     H_    0.947442 0.329966 0.004278 0.169904
O15   O     O_3   0.696607 0.321877 0.224648 -0.510438
C43   C     C_3   0.654804 0.184855 0.223487 -0.270375
H9    H     H_    0.559377 0.176016 0.204380 0.133843
H10   H     H_    0.662299 0.139178 0.266912 0.186849
H11   H     H_    0.714883 0.123631 0.196704 0.186505
O16   O     O_3   0.325855 0.314550 0.779978 -0.524249
C44   C     C_3   0.385681 0.191969 0.799202 -0.327690
H12   H     H_    0.435739 0.207366 0.841047 0.175329
H13   H     H_    0.449586 0.150499 0.768173 0.122177
H14   H     H_    0.315149 0.112297 0.805182 0.192204
O17   O     O_3   0.696227 0.361755 0.341485 -0.515806
C45   C     C_3   0.798986 0.449055 0.345672 -0.254126
H15   H     H_    0.872489 0.397560 0.372530 0.173540
H16   H     H_    0.776413 0.548059 0.366374 0.133988
H17   H     H_    0.836231 0.468801 0.303382 0.192803
O18   O     O_3   0.297789 0.391793 0.661350 -0.567281
C46   C     C_3   0.260808 0.253510 0.666429 -0.113361
H18   H     H_    0.337010 0.181710 0.679234 0.171404
H19   H     H_    0.221879 0.219177 0.624281 0.161696
H20   H     H_    0.186702 0.245975 0.696566 0.185204
N5    N     N_2   0.301885 0.595533 0.312566 -0.441791
H21   H     H_    0.255552 0.669991 0.288282 0.290961
C47   C     C_3   0.222348 0.483604 0.326985 -0.695786
H22   H     H_    0.194834 0.423504 0.288304 0.263987
H23   H     H_    0.138713 0.525846 0.345327 0.204844
H24   H     H_    0.268908 0.414449 0.359164 0.227184
N6    N     N_2   0.706191 0.589093 0.680921 -0.411819
H25   H     H_    0.758576 0.656272 0.705697 0.293137
C48   C     C_3   0.780952 0.477369 0.661420 -0.712077
H26   H     H_    0.812646 0.410320 0.697847 0.253870
H27   H     H_    0.862251 0.520055 0.641393 0.222931
H28   H     H_    0.729215 0.414781 0.629139 0.212354
O19   O     O_3   0.351992 0.636901 0.198491 -0.539175
C49   C     C_3   0.405461 0.766016 0.188773 -0.368275
H29   H     H_    0.491485 0.755050 0.166047 0.173225
H30   H     H_    0.423316 0.823135 0.229316 0.145483
H31   H     H_    0.340325 0.828433 0.161257 0.197750
O20   O     O_3   0.668042 0.632582 0.796665 -0.522904
C50   C     C_3   0.615295 0.763679 0.803830 -0.318139
H32   H     H_    0.529904 0.756768 0.827260 0.167751
H33   H     H_    0.596502 0.816966 0.762169 0.150260
H34   H     H_    0.681300 0.827576 0.829587 0.197390
N7    N     N_2   0.127234 0.247180 0.479864 -0.386518
H35   H     H_    0.112863 0.169782 0.508679 0.253468
C51   C     C_3   0.132970 0.202508 0.421485 -0.661821
H36   H     H_    0.088194 0.100676 0.415734 0.210086
H37   H     H_    0.230346 0.192076 0.411593 0.256343
H38   H     H_    0.087178 0.276875 0.390970 0.208241
N8    N     N_2   0.880957 0.735083 0.462605 -0.400418
H39   H     H_    0.917945 0.753073 0.423924 0.233969
C52   C     C_3   0.855288 0.858485 0.493531 -0.637345
H40   H     H_    0.905605 0.945690 0.475664 0.206445
H41   H     H_    0.882851 0.847476 0.539426 0.213148
H42   H     H_    0.755984 0.882170 0.488094 0.231119
N9    N     N_2   0.873993 0.244118 0.489179 -0.366028
H43   H     H_    0.898693 0.177922 0.457786 0.265378
C53   C     C_3   0.858557 0.179189 0.543607 -0.686046
H44   H     H_    0.939877 0.115629 0.556923 0.189885
H45   H     H_    0.776653 0.113277 0.539220 0.216835
H46   H     H_    0.843847 0.256661 0.577049 0.225584
N10   N     N_2   0.115839 0.725431 0.541261 -0.402249
H47   H     H_    0.077238 0.734551 0.580042 0.244163
C54   C     C_3   0.145156 0.855591 0.515624 -0.519667
H48   H     H_    0.242581 0.879119 0.526890 0.269928
H49   H     H_    0.127749 0.854105 0.468665 0.243949
H50   H     H_    0.090214 0.938989 0.533683 0.157483
O21   O     O_3   0.534355 0.134095 0.401772 -0.520241
C55   C     C_3   0.471304 0.090155 0.351317 -0.281195
H51   H     H_    0.370840 0.084991 0.355193 0.163536
H52   H     H_    0.511142 0.992243 0.336685 0.133880
H53   H     H_    0.484234 0.168195 0.317808 0.180179
O22   O     O_3   0.552660 0.859012 0.599919 -0.528782
C56   C     C_3   0.681054 0.846992 0.609123 -0.283856
H54   H     H_    0.714086 0.749658 0.591020 0.229724
H55   H     H_    0.703682 0.847114 0.655512 0.167472
H56   H     H_    0.732723 0.934412 0.592424 0.080472
O23   O     O_3   0.481452 0.135406 0.600530 -0.541968
C57   C     C_3   0.581600 0.135165 0.641394 -0.255742
H57   H     H_    0.671669 0.145139 0.622499 0.128844
H58   H     H_    0.577536 0.044692 0.670039 0.181874
H59   H     H_    0.573223 0.225016 0.669509 0.155475
O24   O     O_3   0.338263 0.913582 0.434699 -0.633457
C58   C     C_3   0.323541 0.824680 0.388391 -0.261334
H60   H     H_    0.288729 0.725252 0.403637 0.236333
H61   H     H_    0.407083 0.810126 0.364342 0.170636
H62   H     H_    0.251310 0.868071 0.358269 0.144349

loop_
_geom_bond_atom_site_label_1
_geom_bond_atom_site_label_2
_ccdc_geom_bond_type
C56   H56   S    
C38   C40   A    
C46   H18   S    
C47   H22   S    
C8    C26   S    
Cu1   Cu2   S    
O23   C57   S    
C57   H59   S    
C21   O21   S    
C26   O7    A    
C9    N5    S    
C49   H30   S    
N6    H25   S    
C55   H51   S    
N10   C54   S    
C44   H12   S    
C28   N2    A    
C25   O5    A    
C50   H33   S    
C13   N2    S    
C56   H54   S    
O20   C50   S    
C56   H55   S    
Cu1   O7    S    
C52   H42   S    
C41   H4    S    
C2    O2    A    
Cu2   O8    S    
C29   O11   S    
C51   H37   S    
C30   O12   S    
C54   H50   S    
C25   O8    A    
C32   C38   A    
C58   H61   S    
C24   O24   S    
C18   C20   A    
C3    C13   A    
C21   N4    A    
C27   N1    A    
N8    C52   S    
O14   C42   S    
C2    C19   S    
C47   H23   S    
C40   O14   S    
C18   N10   S    
C43   H11   S    
C26   O6    A    
Cu1   O1    S    
C49   H29   S    
N6    C48   S    
O17   C45   S    
C14   N1    S    
C44   H13   S    
C15   C20   A    
C39   O13   S    
C52   H41   S    
C42   H6    S    
O16   C44   S    
C43   H10   S    
C27   O9    S    
C50   H34   S    
N5    H21   S    
C12   O20   S    
O18   C46   S    
C17   C19   A    
C6    C8    A    
C27   C35   A    
C23   O23   S    
C31   C37   A    
C29   N1    A    
C42   H7    S    
C32   C34   A    
C37   H1    S    
C10   N6    S    
C3    O15   S    
C53   H45   S    
C38   H2    S    
C41   H3    S    
N5    C47   S    
C5    O17   S    
C48   H26   S    
C29   C31   A    
C51   H38   S    
C22   O22   S    
C31   C33   A    
C33   C34   A    
Cu1   N3    S    
C16   C18   A    
Cu2   N4    S    
C57   H57   S    
C58   H62   S    
N9    C53   S    
C9    C11   A    
Cu1   O5    S    
C52   H40   S    
C10   C12   A    
Cu2   O2    S    
C4    C6    A    
C48   H27   S    
C12   C14   A    
C47   H24   S    
C45   H16   S    
C46   H19   S    
C54   H48   S    
C16   N8    S    
C21   C24   A    
C53   H44   S    
C5    C7    A    
N7    H35   S    
C44   H14   S    
C15   C17   A    
C1    C20   S    
C23   N4    A    
C41   H5    S    
C15   N7    S    
O22   C56   S    
C24   N3    A    
C30   N2    A    
C36   C39   A    
C57   H58   S    
C43   H9    S    
C3    C5    A    
C55   H53   S    
C7    C25   S    
N8    H39   S    
C55   H52   S    
C28   O10   S    
C45   H17   S    
O21   C55   S    
C6    O18   S    
C42   H8    S    
C35   C40   A    
C53   H46   S    
O15   C43   S    
C37   C39   A    
C50   H32   S    
Cu2   O6    S    
C30   C32   A    
C11   C13   A    
C17   N9    S    
C51   H36   S    
N9    H43   S    
C16   C19   A    
C33   C35   A    
C22   N3    A    
C34   C36   A    
C4    C14   A    
O13   C41   S    
C1    O4    A    
C4    O16   S    
C2    O3    A    
C7    C9    A    
C48   H28   S    
O24   C58   S    
C28   C36   A    
C8    C10   A    
C45   H15   S    
C46   H20   S    
O19   C49   S    
C54   H49   S    
C22   C23   A    
C11   O19   S    
C58   H60   S    
C1    O1    A    
Cu1   O3    S    
C49   H31   S    
N10   H47   S    
Cu2   O4    S    
N7    C51   S    
