data_mof_unit_68056.cif
_audit_creation_date              2012-12-11T14:39:23-0500
_audit_creation_method            fapswitch 2.2
_symmetry_space_group_name_H-M    P1
_symmetry_Int_Tables_number       1
_space_group_crystal_system       triclinic
_cell_length_a                    7.323624
_cell_length_b                    14.240244
_cell_length_c                    16.201799
_cell_angle_alpha                 90.000105
_cell_angle_beta                  98.307459
_cell_angle_gamma                 90.000099
_cell_volume                      1671.95881562

loop_
_atom_site_label
_atom_site_type_symbol
_atom_type_description
_atom_site_fract_x
_atom_site_fract_y
_atom_site_fract_z
_atom_type_partial_charge
O1    O     O_R   0.525340 0.338340 0.164530 -0.534595
O2    O     O_R   0.474660 0.661660 0.835470 -0.534595
O3    O     O_R   0.974660 0.838340 0.835470 -0.534596
O4    O     O_R   0.025340 0.161660 0.164530 -0.534594
O5    O     O_R   0.253520 0.352000 0.336710 -0.545157
O6    O     O_R   0.746480 0.648000 0.663290 -0.545154
O7    O     O_R   0.246480 0.852000 0.663290 -0.545151
O8    O     O_R   0.753520 0.148000 0.336710 -0.545149
O9    O     O_R   0.083330 0.168380 0.337300 -0.513916
O10   O     O_R   0.916670 0.831620 0.662700 -0.513913
O11   O     O_R   0.416670 0.668380 0.662700 -0.513905
O12   O     O_R   0.583330 0.331620 0.337300 -0.513896
C1    C     C_R   0.432531 0.360861 0.368994 0.714582
C2    C     C_R   0.567469 0.639137 0.631007 0.714570
C3    C     C_R   0.067469 0.860863 0.631007 0.714550
C4    C     C_R   0.932531 0.139137 0.368993 0.714535
O13   O     O_R   0.195840 0.349670 0.165140 -0.522451
O14   O     O_R   0.804160 0.650330 0.834860 -0.522455
O15   O     O_R   0.304160 0.849670 0.834860 -0.522464
O16   O     O_R   0.695840 0.150330 0.165140 -0.522446
C5    C     C_R   0.356564 0.370283 0.137153 0.743396
C6    C     C_R   0.643436 0.629715 0.862845 0.743419
C7    C     C_R   0.143435 0.870286 0.862844 0.743407
C8    C     C_R   0.856564 0.129715 0.137155 0.743375
O17   O     O_3   0.387830 0.193120 0.250910 -0.375352
O18   O     O_3   0.612170 0.806880 0.749090 -0.375365
O19   O     O_3   0.112170 0.693120 0.749090 -0.375350
O20   O     O_3   0.887830 0.306880 0.250910 -0.375347
V1    V     V_3+5 0.113010 0.264540 0.250910 1.552442
V2    V     V_3+5 0.886990 0.735460 0.749090 1.552423
V3    V     V_3+5 0.386990 0.764540 0.749090 1.552420
V4    V     V_3+5 0.613010 0.235460 0.250910 1.552456
H1    H     H_    0.025932 0.851547 0.237580 0.171106
H2    H     H_    0.974048 0.148453 0.762417 0.171110
H3    H     H_    0.474046 0.351553 0.762421 0.171109
H4    H     H_    0.525933 0.648447 0.237579 0.171114
C9    C     C_R   0.952337 0.192802 0.553632 -0.035753
C10   C     C_R   0.047653 0.807197 0.446366 -0.035746
C11   C     C_R   0.547651 0.692802 0.446365 -0.035740
C12   C     C_R   0.452346 0.307196 0.553637 -0.035742
C13   C     C_R   0.959058 0.210872 0.640709 -0.037598
C14   C     C_R   0.040926 0.789127 0.359288 -0.037605
C15   C     C_R   0.540924 0.710870 0.359287 -0.037609
C16   C     C_R   0.459066 0.289129 0.640715 -0.037604
C17   C     C_R   0.970942 0.136447 0.696147 -0.108551
C18   C     C_R   0.029042 0.863552 0.303850 -0.108564
C19   C     C_R   0.529042 0.636443 0.303850 -0.108576
C20   C     C_R   0.470942 0.363556 0.696151 -0.108576
C21   C     C_R   0.990922 0.045972 0.669413 -0.127036
C22   C     C_R   0.009068 0.954027 0.330585 -0.127030
C23   C     C_R   0.509068 0.545969 0.330586 -0.127027
C24   C     C_R   0.490920 0.454030 0.669415 -0.127038
C25   C     C_R   0.996185 0.023810 0.584599 0.080360
C26   C     C_R   0.003808 0.976189 0.415399 0.080358
C27   C     C_R   0.503808 0.523809 0.415400 0.080346
C28   C     C_R   0.496188 0.476189 0.584601 0.080341
C29   C     C_R   0.968703 0.096839 0.523835 0.062473
C30   C     C_R   0.031291 0.903160 0.476164 0.062478
C31   C     C_R   0.531290 0.596839 0.476164 0.062477
C32   C     C_R   0.468708 0.403159 0.523838 0.062469
C33   C     C_R   0.030703 0.929356 0.561977 -0.106976
C34   C     C_R   0.969295 0.070644 0.438022 -0.106982
C35   C     C_R   0.469295 0.429354 0.438024 -0.106970
C36   C     C_R   0.530703 0.570644 0.561978 -0.106970
H5    H     H_    0.006628 0.993754 0.718227 0.099401
H6    H     H_    0.993363 0.006245 0.281772 0.099407
H7    H     H_    0.493364 0.493750 0.281773 0.099409
H8    H     H_    0.506621 0.506249 0.718227 0.099409
C37   C     C_2   0.145794 0.944900 0.926710 -0.357038
C38   C     C_2   0.854202 0.055104 0.073283 -0.357092
C39   C     C_2   0.354202 0.444887 0.073277 -0.357111
C40   C     C_2   0.645800 0.555104 0.926715 -0.357069
C41   C     C_2   0.010242 0.955144 0.976200 -0.051110
C42   C     C_2   0.989781 0.044847 0.023808 -0.051112
C43   C     C_2   0.489787 0.455149 0.023807 -0.051113
C44   C     C_2   0.510230 0.544849 0.976195 -0.051116
H9    H     H_    0.748260 0.002360 0.074446 0.171841
H10   H     H_    0.251697 0.997661 0.925527 0.171750
H11   H     H_    0.751735 0.502356 0.925547 0.171787
H12   H     H_    0.248247 0.497621 0.074426 0.171822
C45   C     C_2   0.930803 0.277178 0.499204 0.800609
O21   O     O_2   0.803122 0.330366 0.503398 -0.559189
O22   O     O_R   0.067249 0.305523 0.454037 -0.653076
H13   H     H_    0.041505 0.371161 0.430876 0.313982
C46   C     C_2   0.069198 0.722819 0.500793 0.800615
O23   O     O_2   0.196869 0.669630 0.496592 -0.559197
O24   O     O_R   0.932779 0.694478 0.545974 -0.653069
H14   H     H_    0.958550 0.628848 0.569147 0.313987
C47   C     C_2   0.569199 0.777181 0.500790 0.800619
O25   O     O_2   0.696860 0.830374 0.496581 -0.559199
O26   O     O_R   0.432794 0.805519 0.545981 -0.653064
H15   H     H_    0.458570 0.871148 0.569155 0.313987
C48   C     C_2   0.430798 0.222816 0.499212 0.800620
O27   O     O_2   0.303142 0.169619 0.503426 -0.559195
O28   O     O_R   0.567204 0.194481 0.454018 -0.653060
H16   H     H_    0.541440 0.128848 0.430847 0.313982
C49   C     C_2   0.962551 0.306977 0.678311 0.785768
O29   O     O_2   0.032726 0.373037 0.646280 -0.549849
O30   O     O_R   0.892588 0.320737 0.753326 -0.661739
H17   H     H_    0.903871 0.388290 0.773215 0.298581
C50   C     C_2   0.037429 0.693022 0.321685 0.785775
O31   O     O_2   0.967254 0.626963 0.353716 -0.549847
O32   O     O_R   0.107390 0.679263 0.246669 -0.661741
H18   H     H_    0.096105 0.611710 0.226780 0.298583
C51   C     C_2   0.537425 0.806973 0.321682 0.785790
O33   O     O_2   0.467240 0.873031 0.353709 -0.549848
O34   O     O_R   0.607393 0.820732 0.246668 -0.661734
H19   H     H_    0.596104 0.888284 0.226777 0.298588
C52   C     C_2   0.462565 0.193027 0.678321 0.785796
O35   O     O_2   0.532760 0.126969 0.646296 -0.549851
O36   O     O_R   0.392584 0.179267 0.753332 -0.661740
H20   H     H_    0.403874 0.111715 0.773223 0.298574
C53   C     C_2   0.115603 0.125002 0.013889 0.819229
O37   O     O_2   0.282265 0.116388 0.033922 -0.548428
O38   O     O_R   0.041225 0.211210 0.984605 -0.648309
H21   H     H_    0.139413 0.260727 0.981423 0.322409
C54   C     C_2   0.884494 0.874967 0.986148 0.819229
O39   O     O_2   0.717817 0.883552 0.966160 -0.548434
O40   O     O_R   0.958962 0.788768 0.015402 -0.648315
H22   H     H_    0.860824 0.739232 0.018608 0.322424
C55   C     C_2   0.384424 0.625008 0.986122 0.819243
O41   O     O_2   0.217757 0.616401 0.966094 -0.548439
O42   O     O_R   0.458825 0.711214 0.015404 -0.648261
H23   H     H_    0.360650 0.760737 0.018589 0.322446
C56   C     C_2   0.615612 0.374998 0.013892 0.819250
O43   O     O_2   0.782271 0.383617 0.033919 -0.548443
O44   O     O_R   0.541239 0.288788 0.984615 -0.648308
H24   H     H_    0.639427 0.239273 0.981433 0.322410

loop_
_geom_bond_atom_site_label_1
_geom_bond_atom_site_label_2
_ccdc_geom_bond_type
O24   H14   S    
O1    C5    A    
C48   O27   D    
C12   C32   A    
C27   C31   A    
O13   V1    S    
C41   C42   S    
C7    C37   S    
O3    C7    A    
O28   H16   S    
C12   C48   S    
C40   C44   D    
O15   V3    S    
C45   O21   D    
C8    C38   S    
O42   H23   S    
C46   O23   D    
C51   O34   S    
C31   C36   A    
C50   O31   D    
C21   H5    S    
C5    C39   S    
C32   C35   A    
C44   C55   S    
O20   V1    S    
O9    C4    A    
C10   C14   A    
C40   H11   S    
O10   C3    A    
C52   O36   S    
C14   C18   A    
O4    C8    A    
O11   C2    A    
O38   H21   S    
H4    C19   S    
C15   C51   S    
C45   O22   S    
C10   C30   A    
C25   C33   A    
O16   C8    A    
C27   C35   A    
C38   C42   D    
O34   H19   S    
C28   C36   A    
C37   C41   D    
O14   V2    S    
O19   V2    S    
C47   O26   S    
O5    C1    A    
O4    V1    S    
C24   H8    S    
O9    V1    S    
C16   C52   S    
C30   C33   A    
O7    C3    A    
O11   V3    S    
O18   V3    S    
C50   O32   S    
O12   V4    S    
C38   H9    S    
H1    C18   S    
C9    C45   S    
C37   H10   S    
C4    C34   S    
H3    C20   S    
C6    C40   S    
C39   H12   S    
C49   O30   S    
O16   V4    S    
C49   O29   D    
O5    V1    S    
C46   O24   S    
O7    V3    S    
C10   C46   S    
O8    V4    S    
C29   C34   A    
C41   C54   S    
O26   H15   S    
C25   C29   A    
C19   C23   A    
C26   C34   A    
C42   C53   S    
O1    V4    S    
O13   C5    A    
C28   C32   A    
O2    V3    S    
C43   C56   S    
O3    V2    S    
O15   C7    A    
C43   C44   S    
O2    C6    A    
O6    C2    A    
O10   V2    S    
O30   H17   S    
C1    C35   S    
C17   C21   A    
C11   C31   A    
C3    C33   S    
H2    C17   S    
C23   H7    S    
C22   H6    S    
C55   O41   D    
C2    C36   S    
O6    V2    S    
C56   O43   D    
C13   C49   S    
O22   H13   S    
O44   H24   S    
C14   C50   S    
C53   O37   D    
C26   C30   A    
O36   H20   S    
O14   C6    A    
C11   C15   A    
O40   H22   S    
C51   O33   D    
C18   C22   A    
C54   O40   S    
C22   C26   A    
C54   O39   D    
C39   C43   D    
C48   O28   S    
O17   V4    S    
C21   C25   A    
C23   C27   A    
C9    C13   A    
C55   O42   S    
C16   C20   A    
C12   C16   A    
O12   C1    A    
O8    C4    A    
C52   O35   D    
O32   H18   S    
C56   O44   S    
C13   C17   A    
C47   O25   D    
C20   C24   A    
C15   C19   A    
C11   C47   S    
C9    C29   A    
C24   C28   A    
C53   O38   S    
