data_mof_unit_51912.cif
_audit_creation_date              2012-10-26T21:13:18-0400
_audit_creation_method            fapswitch 2.2
_symmetry_space_group_name_H-M    P1
_symmetry_Int_Tables_number       1
_space_group_crystal_system       triclinic
_cell_length_a                    13.441477
_cell_length_b                    15.978627
_cell_length_c                    17.007891
_cell_angle_alpha                 83.632039
_cell_angle_beta                  89.123804
_cell_angle_gamma                 110.058932
_cell_volume                      3404.56894537

loop_
_atom_site_label
_atom_site_type_symbol
_atom_type_description
_atom_site_fract_x
_atom_site_fract_y
_atom_site_fract_z
_atom_type_partial_charge
C1    C     C_R   0.500602 0.510775 0.348468 0.602268
C2    C     C_R   0.821123 0.579646 0.497586 0.054361
C3    C     C_R   0.495884 0.516962 0.261675 0.015036
C4    C     C_R   0.703359 0.548263 0.500220 0.638757
C5    C     C_R   0.419930 0.448151 0.226366 0.208210
C6    C     C_R   0.416902 0.453348 0.143201 0.278126
C7    C     C_R   0.490003 0.528698 0.096243 0.132359
C8    C     C_R   0.560568 0.598148 0.131696 -0.154380
C9    C     C_R   0.564216 0.594000 0.214534 0.209608
C10   C     C_R   0.569788 0.560866 0.856937 -0.124974
C11   C     C_R   0.571335 0.565670 0.774407 0.178432
C12   C     C_R   0.981918 0.540173 0.497977 -0.012869
C13   C     C_R   0.524947 0.478647 0.904857 0.144950
C14   C     C_R   0.517123 0.487256 0.738695 -0.029402
C15   C     C_R   0.479424 0.403224 0.787330 0.208540
C16   C     C_R   0.505068 0.490771 0.651635 0.627538
C17   C     C_R   0.487244 0.399086 0.870055 0.280079
C18   C     C_R   0.561403 0.262987 0.464769 0.312246
C19   C     C_R   0.575038 0.178632 0.482184 0.220996
C20   C     C_R   0.490392 0.106238 0.521212 0.138405
C21   C     C_R   0.410724 0.127205 0.560389 -0.196944
C22   C     C_R   0.413594 0.218092 0.559331 0.372579
C23   C     C_R   0.876727 0.522407 0.527616 -0.051472
C24   C     C_R   0.486634 0.836367 0.555231 0.148093
C25   C     C_R   0.459745 0.743312 0.547805 0.391417
C26   C     C_R   0.535432 0.899677 0.488554 0.163822
C27   C     C_R   0.574585 0.778017 0.432230 -0.020286
C28   C     C_R   0.296810 0.451712 0.499173 0.531320
C29   C     C_R   0.582375 0.869452 0.427724 0.200060
C30   C     C_R   0.039780 0.343684 0.600695 0.296368
C31   C     C_R   0.179735 0.420799 0.503634 -0.040640
C32   C     C_R   0.879150 0.665766 0.457765 0.269913
C33   C     C_R   0.986728 0.687617 0.437589 -0.124613
C34   C     C_R   0.030902 0.474488 0.515627 -0.039781
C35   C     C_R   0.036515 0.625719 0.455720 -0.103753
C36   C     C_3   0.660060 0.746324 0.214093 -0.082666
C37   C     C_3   0.497026 0.271967 0.759652 -0.026156
C38   C     C_3   0.531576 0.294115 0.949955 -0.055281
C39   C     C_3   0.265213 0.395315 0.301206 -0.032749
C40   C     C_3   0.272418 0.172941 0.657144 -0.033841
C41   C     C_3   0.741920 0.951087 0.364001 -0.064700
C42   C     C_3   0.083175 0.338279 0.728639 -0.073774
C43   C     C_3   0.101587 0.499253 0.343932 -0.119891
C44   C     C_3   0.875607 0.807239 0.466678 -0.118538
C45   C     C_R   0.982992 0.401192 0.576171 -0.078742
C46   C     C_3   0.788817 0.490195 0.705461 -0.070643
C47   C     C_R   0.880138 0.386816 0.608949 0.287289
C48   C     C_R   0.832205 0.451333 0.589314 0.281758
C49   C     C_R   0.127350 0.479291 0.475748 0.273221
C50   C     C_R   0.123066 0.342152 0.552236 0.211903
Cu1   Cu    Cu3+1 0.505120 0.585970 0.496130 1.139704
Cu2   Cu    Cu3+1 0.494880 0.414030 0.503870 1.212836
H1    H     H_    0.606541 0.621089 0.884575 0.199835
H2    H     H_    0.699584 0.794292 0.255740 0.151820
H3    H     H_    0.468597 0.218745 0.810811 0.151861
H4    H     H_    0.583070 0.311018 0.763100 0.156858
H5    H     H_    0.489930 0.237567 0.706240 0.166596
H6    H     H_    0.257111 0.350482 0.983946 0.381937
H7    H     H_    0.502117 0.221163 0.971007 0.171275
H8    H     H_    0.559821 0.329866 0.002081 0.183090
H9    H     H_    0.599578 0.307431 0.906369 0.079634
H10   H     H_    0.290835 0.447016 0.342096 0.104046
H11   H     H_    0.206620 0.334107 0.334224 0.210965
H12   H     H_    0.616138 0.653579 0.093420 0.145945
H13   H     H_    0.224604 0.419536 0.251950 0.128318
H14   H     H_    0.252728 0.541260 0.652283 0.327680
H15   H     H_    0.639878 0.937182 0.660654 0.363623
H16   H     H_    0.636767 0.198093 0.656921 0.365945
H17   H     H_    0.315401 0.142204 0.699958 0.101470
H18   H     H_    0.217243 0.121140 0.624719 0.162149
H19   H     H_    0.223857 0.201235 0.691937 0.195268
H20   H     H_    0.787465 0.089631 0.527093 0.381751
H21   H     H_    0.766026 0.893463 0.352775 0.091189
H22   H     H_    0.771376 0.975223 0.421180 0.141114
H23   H     H_    0.348828 0.071484 0.593397 0.150722
H24   H     H_    0.780813 0.006484 0.316099 0.193928
H25   H     H_    0.637245 0.230675 0.287540 0.369113
H26   H     H_    0.068520 0.401714 0.735284 0.110663
H27   H     H_    0.168551 0.352688 0.712490 0.112424
H28   H     H_    0.064148 0.296334 0.787100 0.186326
H29   H     H_    0.027283 0.514703 0.346364 0.166265
H30   H     H_    0.081176 0.425383 0.345230 0.141204
H31   H     H_    0.144276 0.531953 0.286197 0.143249
H32   H     H_    0.935581 0.856391 0.423168 0.134905
H33   H     H_    0.912619 0.799102 0.523970 0.122822
H34   H     H_    0.614020 0.756648 0.386780 0.181122
H35   H     H_    0.813046 0.835325 0.479125 0.130137
H36   H     H_    0.842381 0.560990 0.689896 0.158673
H37   H     H_    0.832596 0.452554 0.740160 0.144437
H38   H     H_    0.722408 0.489375 0.744955 0.141424
H39   H     H_    0.769849 0.708822 0.621907 0.360897
H40   H     H_    0.119233 0.648779 0.437817 0.236960
H41   H     H_    0.031660 0.752354 0.405224 0.139373
H42   H     H_    0.192918 0.172031 0.457423 0.360609
H43   H     H_    0.585369 0.758145 0.198497 0.130303
H44   H     H_    0.715879 0.761551 0.161354 0.135957
N1    N     N_2   0.496772 0.536231 0.012703 -0.179340
N2    N     N_2   0.519120 0.473741 0.988461 -0.157528
N3    N     N_R   0.487180 0.284900 0.509690 -0.230436
N4    N     N_2   0.482151 0.012958 0.526154 -0.113849
N5    N     N_2   0.541925 0.992849 0.480016 -0.085577
N6    N     N_R   0.512820 0.715120 0.490310 -0.287622
O1    O     O_R   0.504790 0.580580 0.382450 -0.508622
O2    O     O_2   0.021899 0.228029 0.454118 -0.261844
O3    O     O_3   0.213741 0.232979 0.473873 -0.497865
O4    O     O_3   0.640771 0.658315 0.251391 -0.531357
O5    O     O_3   0.431602 0.325077 0.753838 -0.526655
O6    O     O_2   0.374563 0.296172 0.086962 -0.228161
O7    O     O_2   0.223837 0.319659 0.149816 -0.244282
O8    O     O_3   0.292155 0.404397 0.010432 -0.480768
O9    O     O_3   0.446952 0.316790 0.916667 -0.508375
O10   O     O_3   0.351327 0.373625 0.273015 -0.470430
O11   O     O_2   0.279760 0.722765 0.638372 -0.206890
O12   O     O_R   0.496140 0.435390 0.388990 -0.415496
O13   O     O_2   0.262278 0.649366 0.521334 -0.311532
O14   O     O_3   0.328302 0.580598 0.646747 -0.490740
O15   O     O_2   0.376665 0.901424 0.652284 -0.215922
O16   O     O_2   0.456979 0.799077 0.717078 -0.160227
O17   O     O_3   0.580204 0.959899 0.664028 -0.449705
O18   O     O_2   0.828971 0.205986 0.644004 -0.137805
O19   O     O_2   0.810437 0.289548 0.751952 -0.293742
O20   O     O_3   0.672336 0.263817 0.643855 -0.526404
O21   O     O_3   0.342800 0.243236 0.604012 -0.482210
O22   O     O_2   0.709764 0.130781 0.392726 -0.243401
O23   O     O_R   0.657420 0.608020 0.495150 -0.457844
O24   O     O_2   0.788196 0.260121 0.465387 -0.198662
O25   O     O_3   0.722078 0.100076 0.543479 -0.457182
O26   O     O_3   0.631169 0.928970 0.361593 -0.525181
O27   O     O_2   0.518977 0.313152 0.317338 -0.253318
O28   O     O_2   0.679068 0.416076 0.367932 -0.241533
O29   O     O_3   0.686522 0.273180 0.319600 -0.433677
O30   O     O_3   0.017550 0.290308 0.672888 -0.462571
O31   O     O_3   0.167626 0.533901 0.405258 -0.565341
O32   O     O_3   0.828459 0.725968 0.434108 -0.546064
O33   O     O_3   0.747609 0.450528 0.637145 -0.523181
O34   O     O_R   0.648770 0.462830 0.501690 -0.452619
O35   O     O_2   0.586099 0.717767 0.683597 -0.224151
O36   O     O_2   0.727930 0.725854 0.773511 -0.274297
O37   O     O_3   0.724967 0.648541 0.647279 -0.558443
O38   O     O_R   0.503860 0.564610 0.611010 -0.411581
O39   O     O_R   0.495210 0.419420 0.617550 -0.438882
O40   O     O_R   0.351230 0.537170 0.498310 -0.427357
O41   O     O_R   0.342580 0.391980 0.504850 -0.434376
O42   O     O_2   0.058793 0.162691 0.581966 -0.253062
S1    S     S_3+6 0.102561 0.238301 0.515950 0.038704
S2    S     S_3+6 0.324173 0.364819 0.098634 0.099568
S3    S     S_3+6 0.330561 0.673996 0.589634 0.098583
S4    S     S_3+6 0.471755 0.872360 0.649816 0.120144
S5    S     S_3+6 0.799429 0.283617 0.664787 0.103704
S6    S     S_3+6 0.702764 0.169464 0.468347 0.115645
S7    S     S_3+6 0.611962 0.319403 0.367202 0.098690
S8    S     S_3+6 0.653494 0.668156 0.719981 0.023097

loop_
_geom_bond_atom_site_label_1
_geom_bond_atom_site_label_2
_ccdc_geom_bond_type
H42   O3    S    
C42   H28   S    
C40   H19   S    
C27   C29   A    
C43   H31   S    
C30   C45   A    
O29   S7    S    
O7    S2    D    
N1    N2    D    
C7    C8    A    
C46   H37   S    
Cu1   N6    S    
C12   C23   A    
O18   S5    D    
C40   H18   S    
C4    O23   A    
O15   S4    D    
C24   C26   A    
O27   S7    D    
C26   N5    S    
C5    C6    A    
C6    S2    S    
C11   C14   A    
C30   O30   S    
C25   N6    A    
Cu1   O1    S    
O13   S3    D    
O37   S8    S    
C19   S6    S    
C2    C32   A    
C18   C19   A    
H25   O29   S    
C15   O5    S    
C13   N2    S    
C43   O31   S    
C10   H1    S    
C49   O31   S    
C48   O33   S    
C46   O33   S    
C37   H4    S    
C47   S5    S    
C8    C9    A    
O35   S8    D    
C22   N3    A    
C44   H35   S    
C1    O1    A    
O6    S2    D    
C4    O34   A    
C38   H9    S    
Cu1   O38   S    
C41   H22   S    
C42   H27   S    
C21   C22   A    
C39   H13   S    
C41   O26   S    
C16   O38   A    
C31   C49   A    
C17   O9    S    
C46   H36   S    
C45   C47   A    
C44   O32   S    
Cu2   O41   S    
C40   H17   S    
H20   O25   S    
C36   O4    S    
Cu1   Cu2   S    
Cu1   O23   S    
O20   S5    S    
C22   O21   S    
C24   C25   A    
C24   S4    S    
H16   O20   S    
C34   C45   A    
O36   S8    D    
O17   S4    S    
C44   H32   S    
C1    C3    S    
C27   H34   S    
C2    C4    S    
C3    C9    A    
C36   H44   S    
C47   C48   A    
C20   N4    S    
O3    S1    S    
C25   S3    S    
C28   O41   A    
C12   C35   A    
H14   O14   S    
C8    H12   S    
H39   O37   S    
C50   S1    S    
C39   O10   S    
C27   N6    A    
C42   H26   S    
Cu2   O34   S    
C38   H8    S    
C28   O40   A    
C1    O12   A    
C31   C50   A    
C12   C34   A    
C44   H33   S    
O28   S7    D    
Cu1   O40   S    
C15   C17   A    
C39   H10   S    
O22   S6    D    
C34   C49   A    
C23   C48   A    
C7    N1    S    
H6    O8    S    
O2    S1    D    
C28   C31   S    
O42   S1    D    
C3    C5    A    
C10   C13   A    
C33   H41   S    
O14   S3    S    
C37   O5    S    
C6    C7    A    
C46   H38   S    
C5    O10   S    
Cu2   O12   S    
C39   H11   S    
C21   H23   S    
Cu2   N3    S    
Cu2   O39   S    
C13   C17   A    
C32   C33   A    
O11   S3    D    
C19   C20   A    
O16   S4    D    
C16   O39   A    
C9    O4    S    
O25   S6    S    
C35   H40   S    
C41   H24   S    
C32   O32   S    
O24   S6    D    
C36   H43   S    
C40   O21   S    
C43   H29   S    
N4    N5    D    
C33   C35   A    
O19   S5    D    
C14   C16   S    
C30   C50   A    
C36   H2    S    
C10   C11   A    
C41   H21   S    
C38   H7    S    
C37   H3    S    
C11   S8    S    
C20   C21   A    
C26   C29   A    
C18   N3    A    
C29   O26   S    
C2    C23   A    
C43   H30   S    
C14   C15   A    
C42   O30   S    
C38   O9    S    
O8    S2    S    
H15   O17   S    
C37   H5    S    
C18   S7    S    
