data_mof_unit_59534.cif
_audit_creation_date              2012-10-26T19:52:47-0400
_audit_creation_method            fapswitch 2.2
_symmetry_space_group_name_H-M    P1
_symmetry_Int_Tables_number       1
_space_group_crystal_system       triclinic
_cell_length_a                    15.057679
_cell_length_b                    10.855012
_cell_length_c                    9.563984
_cell_angle_alpha                 89.931935
_cell_angle_beta                  90.270971
_cell_angle_gamma                 89.958998
_cell_volume                      1563.22649448

loop_
_atom_site_label
_atom_site_type_symbol
_atom_type_description
_atom_site_fract_x
_atom_site_fract_y
_atom_site_fract_z
_atom_type_partial_charge
C1    C     C_R   0.499916 0.262760 0.499905 0.540478
C2    C     C_R   0.185556 0.419806 0.394141 -0.000047
C3    C     C_R   0.231838 0.487534 0.498185 -0.035464
C4    C     C_R   0.328828 0.495486 0.499528 0.531326
C5    C     C_R   0.185728 0.552240 0.601192 -0.142206
C6    C     C_R   0.502131 0.061780 0.620803 0.021004
C7    C     C_R   0.499595 0.130089 0.498220 0.006833
C8    C     C_R   0.496849 0.064727 0.370670 -0.165704
C9    C     C_R   0.497006 0.935532 0.370574 -0.156627
C10   C     C_R   0.499814 0.869841 0.498040 0.010674
C11   C     C_R   0.502265 0.937765 0.620699 0.018463
C12   C     C_R   0.907602 0.559747 0.602809 0.014925
C13   C     C_3   0.506516 0.928460 0.776021 -0.270514
C14   C     C_3   0.506365 0.070391 0.776167 -0.263828
C15   C     C_R   0.576597 0.480723 0.074208 0.177120
C16   C     C_R   0.500042 0.737212 0.499770 0.555668
C17   C     C_R   0.423223 0.513781 0.073526 -0.007740
C18   C     C_R   0.423206 0.513755 0.925357 -0.009236
C19   C     C_R   0.576509 0.479879 0.926760 0.132107
C20   C     C_3   0.659192 0.555209 0.919355 -0.266722
C21   C     C_3   0.659002 0.557956 0.078242 -0.044883
C22   C     C_R   0.671064 0.500091 0.500238 0.551483
C23   C     C_R   0.948878 0.355934 0.297314 -0.148930
C24   C     C_R   0.815004 0.562158 0.602693 -0.140239
C25   C     C_R   0.767437 0.497708 0.500341 -0.004064
C26   C     C_R   0.811883 0.429980 0.397937 -0.136328
C27   C     C_R   0.904319 0.425923 0.397227 0.012498
C28   C     C_R   0.952721 0.491626 0.499207 0.062225
C29   C     C_2   0.236401 0.345995 0.290720 0.214628
C30   C     C_R   0.041208 0.351850 0.296647 -0.109279
C31   C     C_R   0.091511 0.420244 0.394394 0.023562
C32   C     C_R   0.046095 0.488972 0.497961 0.039711
C33   C     C_R   0.093551 0.554255 0.601537 0.010859
C34   C     C_R   0.048162 0.621294 0.704126 -0.121903
C35   C     C_R   0.955711 0.624149 0.704667 -0.130944
Cu1   Cu    Cu3+1 0.500000 0.499980 0.640670 0.935269
Cu2   Cu    Cu3+1 0.500000 0.500020 0.359330 0.965175
H1    H     H_    0.779949 0.615786 0.680422 0.106640
H2    H     H_    0.648325 0.646105 0.868134 0.140081
H3    H     H_    0.716651 0.510052 0.126813 0.138439
H4    H     H_    0.774349 0.378621 0.320475 0.106637
H5    H     H_    0.912219 0.303420 0.219923 0.108646
H6    H     H_    0.071869 0.293600 0.219252 0.173153
H7    H     H_    0.222079 0.603882 0.679888 0.121319
H8    H     H_    0.084253 0.671670 0.783950 0.114777
H9    H     H_    0.921842 0.676530 0.784769 0.107980
H10   H     H_    0.494645 0.112614 0.271297 0.139643
H11   H     H_    0.590636 0.724001 0.084302 0.227810
H12   H     H_    0.494942 0.887908 0.271155 0.140454
H13   H     H_    0.700302 0.733893 0.117472 0.216004
H14   H     H_    0.291221 0.288578 0.325808 0.119265
H15   H     H_    0.445335 0.887287 0.820798 0.141213
H16   H     H_    0.570046 0.887461 0.813301 0.130150
H17   H     H_    0.445096 0.111240 0.821058 0.149967
H18   H     H_    0.569815 0.111329 0.813534 0.139357
H19   H     H_    0.361120 0.527279 0.127221 0.161346
H20   H     H_    0.360979 0.527023 0.870927 0.134417
H21   H     H_    0.715652 0.501165 0.876961 0.113068
N1    N     N_R   0.500570 0.500930 0.147930 -0.227038
N2    N     N_R   0.500570 0.500890 0.852020 -0.238713
N3    N     N_3   0.643602 0.681008 0.136309 -0.578740
O1    O     O_R   0.500000 0.319640 0.618810 -0.493678
O2    O     O_R   0.500010 0.319680 0.381230 -0.516105
O3    O     O_R   0.370250 0.499950 0.618800 -0.513923
O4    O     O_R   0.370260 0.499990 0.381220 -0.511356
O5    O     O_R   0.499990 0.680320 0.618770 -0.505073
O6    O     O_R   0.500000 0.680360 0.381190 -0.483854
O7    O     O_R   0.629740 0.500010 0.618780 -0.510793
O8    O     O_R   0.629750 0.500050 0.381200 -0.480281
O9    O     O_2   0.220873 0.354042 0.165636 -0.540161

loop_
_geom_bond_atom_site_label_1
_geom_bond_atom_site_label_2
_ccdc_geom_bond_type
C24   H1    S    
Cu1   O7    S    
C13   H16   S    
C6    C7    A    
Cu2   O8    S    
C19   N2    A    
C6    C14   S    
C13   H15   S    
C9    C10   A    
C4    O3    A    
C22   O8    A    
C21   N3    S    
C31   C32   A    
C5    C33   A    
C15   C21   S    
C30   C31   A    
C3    C5    A    
C32   C33   A    
C16   O6    A    
C14   H18   S    
C26   C27   A    
C8    H10   S    
C7    C8    A    
C34   H8    S    
C10   C16   S    
C13   C14   S    
C24   C25   A    
C12   C35   A    
C15   C19   A    
C11   C13   S    
C17   H19   S    
C22   O7    A    
H11   N3    S    
Cu2   N1    S    
C23   H5    S    
C17   N1    A    
C2    C29   S    
Cu1   O1    S    
Cu2   O6    S    
C18   N2    A    
Cu1   Cu2   S    
Cu2   O2    S    
C5    H7    S    
C33   C34   A    
C17   C18   A    
C29   O9    D    
C2    C3    A    
C23   C27   A    
C6    C11   A    
C4    O4    A    
Cu1   O5    S    
C30   H6    S    
C16   O5    A    
C10   C11   A    
C20   H21   S    
C3    C4    S    
C23   C30   A    
C1    O2    A    
C28   C32   A    
C9    H12   S    
C20   C21   S    
C12   C28   A    
C1    O1    A    
C34   C35   A    
C29   H14   S    
C27   C28   A    
C20   H2    S    
H13   N3    S    
C12   C24   A    
C8    C9    A    
C1    C7    S    
C18   H20   S    
C14   H17   S    
C25   C26   A    
Cu1   O3    S    
C35   H9    S    
C15   N1    A    
C19   C20   S    
C26   H4    S    
Cu2   O4    S    
C2    C31   A    
Cu1   N2    S    
C22   C25   S    
C21   H3    S    
