data_mof_unit_54461.cif
_audit_creation_date              2012-12-10T17:29:16-0500
_audit_creation_method            fapswitch 2.2
_symmetry_space_group_name_H-M    P1
_symmetry_Int_Tables_number       1
_space_group_crystal_system       triclinic
_cell_length_a                    12.008269
_cell_length_b                    12.867425
_cell_length_c                    13.093458
_cell_angle_alpha                 86.918689
_cell_angle_beta                  113.664058
_cell_angle_gamma                 94.00642
_cell_volume                      1847.7650753

loop_
_atom_site_label
_atom_site_type_symbol
_atom_type_description
_atom_site_fract_x
_atom_site_fract_y
_atom_site_fract_z
_atom_type_partial_charge
C1    C     C_R   0.476908 0.299511 0.498333 0.903177
C2    C     C_R   0.556805 0.489259 0.988022 0.048973
C3    C     C_R   0.535610 0.450527 0.882822 0.056747
C4    C     C_R   0.463072 0.474539 0.027451 0.079601
C5    C     C_R   0.356903 0.411164 0.968738 0.147213
C6    C     C_R   0.346733 0.360671 0.873760 -0.324179
C7    C     C_R   0.437755 0.375965 0.832944 0.201615
C8    C     C_R   0.472422 0.520600 0.124555 -0.232740
C9    C     C_R   0.283387 0.432565 0.113148 -0.197966
C10   C     C_R   0.612247 0.488958 0.829935 -0.124253
C11   C     C_R   0.540952 0.812348 0.508400 -0.153606
C12   C     C_R   0.566783 0.492667 0.708810 0.921762
C13   C     C_R   0.462303 0.188205 0.495964 -0.056052
C14   C     C_R   0.337537 0.030507 0.437254 -0.185023
C15   C     C_R   0.346957 0.137746 0.447484 -0.212271
C16   C     C_R   0.567601 0.132389 0.537956 -0.260312
C17   C     C_R   0.559143 0.026097 0.528214 0.112544
C18   C     C_R   0.443486 0.974819 0.476436 0.189616
C19   C     C_R   0.435566 0.868584 0.465372 -0.330111
C20   C     C_R   0.656877 0.863499 0.560525 0.385821
C21   C     C_R   0.664921 0.970789 0.569184 -0.256793
C22   C     C_R   0.004914 0.592790 0.388818 -0.317216
C23   C     C_R   0.524005 0.700654 0.503223 0.927745
C24   C     C_R   0.125936 0.584666 0.400806 0.022172
C25   C     C_R   0.160423 0.461176 0.549656 -0.034017
C26   C     C_R   0.039312 0.466742 0.540750 0.089817
C27   C     C_R   0.960521 0.533513 0.459131 0.087686
C28   C     C_R   0.839380 0.539101 0.450306 0.006686
C29   C     C_R   0.874073 0.415308 0.599105 0.032247
C30   C     C_R   0.995035 0.407327 0.611044 -0.319732
C31   C     C_R   0.433044 0.504229 0.291219 0.862375
C32   C     C_R   0.265714 0.393762 0.010138 -0.173132
C33   C     C_R   0.389893 0.492331 0.171992 -0.054729
C34   C     C_R   0.724357 0.540733 0.891125 -0.190778
C35   C     C_R   0.755608 0.562482 0.002111 -0.139207
C36   C     C_R   0.671558 0.540200 0.049696 -0.168099
H1    H     H_    0.218698 0.410038 0.149936 0.152518
H2    H     H_    0.248318 0.991445 0.398094 0.140846
H3    H     H_    0.753508 0.010722 0.609502 0.173074
H4    H     H_    0.265230 0.181252 0.414884 0.158693
H5    H     H_    0.656683 0.171876 0.577656 0.156127
H6    H     H_    0.778096 0.590696 0.388294 0.121692
H7    H     H_    0.840849 0.369625 0.653872 0.121759
H8    H     H_    0.946577 0.644791 0.324899 0.142218
H9    H     H_    0.053395 0.355259 0.674850 0.138061
H10   H     H_    0.159173 0.630244 0.345991 0.125860
H11   H     H_    0.270448 0.305783 0.833895 0.139175
H12   H     H_    0.221403 0.409847 0.611726 0.122204
H13   H     H_    0.184775 0.344872 0.966431 0.135307
H14   H     H_    0.547788 0.573668 0.169802 0.134720
H15   H     H_    0.785352 0.568367 0.851833 0.179542
H16   H     H_    0.700178 0.561728 0.135295 0.123867
H17   H     H_    0.842541 0.601850 0.049697 0.143659
H18   H     H_    0.346501 0.829422 0.424484 0.172789
N1    N     N_R   0.798200 0.480260 0.519790 -0.092762
N2    N     N_R   0.201820 0.519740 0.480210 -0.098495
O1    O     O_R   0.579910 0.341070 0.505280 -0.625208
O2    O     O_R   0.388440 0.353740 0.492580 -0.622798
O3    O     O_R   0.643280 0.490550 0.663120 -0.617615
O4    O     O_R   0.451810 0.503220 0.650420 -0.599003
O5    O     O_R   0.611560 0.646260 0.507420 -0.564530
O6    O     O_R   0.420090 0.658930 0.494720 -0.627565
O7    O     O_R   0.548190 0.496780 0.349580 -0.618859
O8    O     O_R   0.356720 0.509450 0.336880 -0.626701
Zn1   Zn    Zn3+2 0.627850 0.491540 0.508480 0.976382
Zn2   Zn    Zn3+2 0.372150 0.508460 0.491520 0.947713
Cl1   Cl    Cl    0.793612 0.797969 0.621936 -0.621432
N3    N     N_2   0.437549 0.307931 0.750377 -0.299412
H19   H     H_    0.353207 0.273927 0.703123 0.224491
C37   C     C_3   0.529903 0.231842 0.792972 -0.795394
H20   H     H_    0.521365 0.179296 0.725662 0.243253
H21   H     H_    0.518400 0.183712 0.861518 0.249041
H22   H     H_    0.622379 0.270904 0.824025 0.241202

loop_
_geom_bond_atom_site_label_1
_geom_bond_atom_site_label_2
_ccdc_geom_bond_type
C17   C18   A    
C2    C4    A    
O7    Zn1   S    
C37   H20   S    
C1    O1    A    
C14   H2    S    
C31   O7    A    
C14   C18   A    
C20   Cl1   S    
C35   C36   A    
C36   H16   S    
C25   N2    A    
C24   N2    A    
C4    C8    A    
C5    C32   A    
C24   H10   S    
C37   H22   S    
C31   C33   S    
C2    C3    A    
C26   C27   A    
C30   H9    S    
O4    Zn2   S    
C10   C34   A    
C3    C10   A    
C1    O2    A    
O3    Zn1   S    
C9    C33   A    
C28   H6    S    
C25   H12   S    
C11   C19   A    
C34   H15   S    
C29   C30   A    
C10   C12   S    
N2    Zn2   S    
C4    C5    A    
C31   O8    A    
C19   H18   S    
C11   C23   S    
C7    N3    S    
N1    Zn1   S    
C28   N1    A    
C26   C30   A    
C6    C7    A    
C3    C7    A    
C22   C27   A    
C13   C15   A    
O5    Zn1   S    
C5    C6    A    
C11   C20   A    
C17   C21   A    
C15   H4    S    
C12   O3    A    
C35   H17   S    
C6    H11   S    
O6    Zn2   S    
C12   O4    A    
C16   C17   A    
C8    H14   S    
C23   O5    A    
C1    C13   S    
C20   C21   A    
N3    C37   S    
C34   C35   A    
C29   H7    S    
C13   C16   A    
C2    C36   A    
C27   C28   A    
C14   C15   A    
C18   C19   A    
C37   H21   S    
O8    Zn2   S    
C29   N1    A    
C9    C32   A    
C25   C26   A    
N3    H19   S    
C32   H13   S    
C16   H5    S    
O2    Zn2   S    
C23   O6    A    
C22   H8    S    
C22   C24   A    
O1    Zn1   S    
C8    C33   A    
C9    H1    S    
C21   H3    S    
