data_mof_unit_41902.cif
_audit_creation_date              2013-03-05T16:46:57-0500
_audit_creation_method            fapswitch 2.2
_symmetry_space_group_name_H-M    P1
_symmetry_Int_Tables_number       1
_space_group_crystal_system       triclinic
_cell_length_a                    15.010612
_cell_length_b                    8.956942
_cell_length_c                    8.117155
_cell_angle_alpha                 90.052264
_cell_angle_beta                  90.421117
_cell_angle_gamma                 90.292395
_cell_volume                      1091.30066206

loop_
_atom_site_label
_atom_site_type_symbol
_atom_site_description
_atom_site_fract_x
_atom_site_fract_y
_atom_site_fract_z
_atom_type_partial_charge
O1    O     O_R   0.500000 0.285350 0.636850 -0.622511
O2    O     O_R   0.500000 0.714650 0.363150 -0.622437
O3    O     O_R   0.500000 0.714650 0.636850 -0.602958
O4    O     O_R   0.500000 0.285350 0.363150 -0.602892
H1    H     H_    0.918017 0.124795 0.452140 0.165764
H2    H     H_    0.081977 0.875264 0.547041 0.165611
H3    H     H_    0.923911 0.877087 0.548665 0.160670
H4    H     H_    0.076075 0.122959 0.450513 0.160499
C1    C     C_R   0.500687 0.218004 0.499988 0.962139
C2    C     C_R   0.499312 0.781996 0.500012 0.962125
O5    O     O_R   0.367850 0.500000 0.636890 -0.642168
O6    O     O_R   0.632150 0.500000 0.363110 -0.642146
O7    O     O_R   0.632150 0.500000 0.636890 -0.582732
O8    O     O_R   0.367850 0.500000 0.363110 -0.582590
C3    C     C_R   0.326927 0.498147 0.499313 0.921020
C4    C     C_R   0.673073 0.501846 0.500684 0.920549
Zn1   Zn    Zn3+2 0.500000 0.500000 0.682780 1.039352
Zn2   Zn    Zn3+2 0.500000 0.500000 0.317220 1.039441
N1    N     N_1   0.500000 0.500000 0.073640 -0.020043
N2    N     N_1   0.500000 0.500000 0.926360 -0.020049
C5    C     C_R   0.814158 0.639125 0.505423 -0.078962
C6    C     C_R   0.185836 0.360859 0.494303 -0.079061
C7    C     C_R   0.812383 0.364227 0.504038 -0.101288
C8    C     C_R   0.187622 0.635752 0.495878 -0.100946
C9    C     C_R   0.768278 0.501936 0.502935 -0.154728
C10   C     C_R   0.231721 0.498044 0.497019 -0.154713
C11   C     C_R   0.905507 0.363568 0.494168 0.108923
C12   C     C_R   0.094492 0.636438 0.505441 0.108776
C13   C     C_R   0.907402 0.637962 0.510456 0.046259
C14   C     C_R   0.092593 0.362046 0.489084 0.046250
C15   C     C_R   0.953124 0.500383 0.501000 0.049353
C16   C     C_R   0.046872 0.499628 0.498549 0.049441
C17   C     C_R   0.952013 0.229838 0.472082 -0.142815
C18   C     C_R   0.047982 0.770195 0.527276 -0.143147
C19   C     C_R   0.956090 0.771064 0.529112 -0.226388
C20   C     C_R   0.043902 0.228967 0.470219 -0.226602
C21   C     C_1   0.500279 0.065143 0.499970 -0.119626
C22   C     C_1   0.499722 0.934857 0.500031 -0.119612
C23   C     C_2   0.765032 0.783246 0.499096 0.429258
H5    H     H_    0.787700 0.872038 0.418500 0.072309
O9    O     O_2   0.700815 0.805337 0.586975 -0.543077
C24   C     C_2   0.234944 0.216717 0.500684 0.429167
H6    H     H_    0.212141 0.127832 0.581035 0.072296
O10   O     O_2   0.299318 0.194717 0.413147 -0.543156
C25   C     C_2   0.759787 0.223315 0.519717 0.382896
H7    H     H_    0.698514 0.208110 0.449810 0.051649
O11   O     O_2   0.782198 0.126944 0.617685 -0.551742
C26   C     C_2   0.240235 0.776662 0.480577 0.382109
H8    H     H_    0.301184 0.792075 0.551338 0.051961
O12   O     O_2   0.218211 0.872770 0.382031 -0.551430

loop_
_geom_bond_atom_site_label_1
_geom_bond_atom_site_label_2
_geom_bond_distance
_ccdc_geom_bond_type
C21   C22   1.166950 T    
C7    C25   1.491347 S    
O7    Zn1   2.021011 S    
O2    Zn2   1.958087 S    
C8    C12   1.400708 A    
C4    C9    1.429073 S    
O8    Zn2   2.021013 S    
O1    Zn1   1.958088 S    
N1    N2    1.195494 T    
C5    C23   1.490654 S    
C14   C20   1.402704 A    
C2    C22   1.369147 S    
O4    Zn2   1.958756 S    
Zn1   N2    1.977177 S    
C26   O12   1.220841 D    
C12   C18   1.401479 A    
C13   C15   1.415873 A    
O3    C2    1.264445 A    
C25   H7    1.085068 S    
C11   C17   1.401496 A    
C14   C16   1.415891 A    
H3    C19   1.079752 S    
C6    C24   1.490702 S    
C24   O10   1.220336 D    
O6    C4    1.270599 A    
C1    C21   1.369150 S    
C26   H8    1.084816 S    
C8    C10   1.402829 A    
O3    Zn1   1.958755 S    
O5    C3    1.270622 A    
C7    C11   1.400767 A    
C7    C9    1.402866 A    
H4    C20   1.079779 S    
O7    C4    1.268814 A    
C24   H6    1.085275 S    
C11   C15   1.416348 A    
C8    C26   1.491188 S    
H2    C18   1.079549 S    
C12   C16   1.416335 A    
C17   C20   1.379572 A    
O1    C1    1.263783 A    
C23   O9    1.220234 D    
C18   C19   1.379596 A    
C6    C10   1.405636 A    
C25   O11   1.221034 D    
O6    Zn2   2.015630 S    
C23   H5    1.085238 S    
C13   C19   1.402686 A    
O8    C3    1.268794 A    
Zn2   N1    1.977177 S    
C3    C10   1.429076 S    
C5    C9    1.405610 A    
C6    C14   1.400067 A    
O4    C1    1.264448 A    
C5    C13   1.400041 A    
O5    Zn1   2.015631 S    
C15   C16   1.407554 A    
H1    C17   1.079548 S    
O2    C2    1.263786 A    
