data_mof_unit_6054.cif
_audit_creation_date              2012-12-10T17:23:41-0500
_audit_creation_method            fapswitch 2.2
_symmetry_space_group_name_H-M    P1
_symmetry_Int_Tables_number       1
_space_group_crystal_system       triclinic
_cell_length_a                    9.576534
_cell_length_b                    10.85846
_cell_length_c                    17.356416
_cell_angle_alpha                 92.614162
_cell_angle_beta                  85.717656
_cell_angle_gamma                 88.37584
_cell_volume                      1797.00631672

loop_
_atom_site_label
_atom_site_type_symbol
_atom_type_description
_atom_site_fract_x
_atom_site_fract_y
_atom_site_fract_z
_atom_type_partial_charge
C1    C     C_R   0.497654 0.737896 0.502798 0.836513
C2    C     C_R   0.360874 0.555316 0.781477 -0.122359
C3    C     C_R   0.415646 0.500024 0.146115 -0.094528
C4    C     C_R   0.407141 0.505880 0.226289 -0.234987
C5    C     C_R   0.658480 0.466577 0.223752 -0.216238
C6    C     C_R   0.666618 0.460030 0.143297 -0.180976
C7    C     C_R   0.545728 0.479168 0.104477 0.203138
C8    C     C_2   0.498225 0.561116 0.979283 0.403203
C9    C     C_2   0.555423 0.472856 0.020129 -0.321352
C10   C     C_R   0.528644 0.490308 0.265698 -0.028068
C11   C     C_R   0.284964 0.885317 0.603363 -0.125342
C12   C     C_R   0.481467 0.496798 0.650018 0.794351
C13   C     C_R   0.180973 0.955432 0.647141 -0.085939
C14   C     C_R   0.182609 0.083181 0.648440 -0.159831
C15   C     C_R   0.289049 0.141512 0.606583 -0.122669
C16   C     C_R   0.393042 0.072590 0.559073 0.107001
C17   C     C_R   0.389833 0.941974 0.556460 0.022960
C18   C     C_R   0.494305 0.872764 0.508922 -0.221943
C19   C     C_R   0.606987 0.932496 0.471724 0.373081
C20   C     C_R   0.624671 0.057416 0.489199 -0.169312
C21   C     C_R   0.506976 0.130187 0.519828 -0.203473
C22   C     C_R   0.874653 0.343781 0.392758 -0.134774
C23   C     C_R   0.501617 0.263279 0.507117 0.815542
C24   C     C_R   0.956202 0.271734 0.337521 -0.157639
C25   C     C_R   0.100019 0.269808 0.338107 -0.194143
C26   C     C_R   0.163051 0.341599 0.393040 -0.139967
C27   C     C_R   0.084262 0.422497 0.447329 0.191920
C28   C     C_R   0.934585 0.423068 0.447219 0.191179
C29   C     C_R   0.916836 0.573870 0.549947 0.011926
C30   C     C_R   0.064827 0.574184 0.549680 0.000060
C31   C     C_R   0.518568 0.497082 0.350170 0.754390
C32   C     C_R   0.473871 0.495559 0.735363 -0.193701
C33   C     C_R   0.591486 0.449859 0.771896 0.002750
C34   C     C_R   0.602556 0.478463 0.850158 -0.250385
C35   C     C_R   0.493340 0.541566 0.894838 0.030248
C36   C     C_R   0.373146 0.579123 0.860355 -0.155105
Cu1   Cu    Cu3+1 0.359340 0.500010 0.500010 0.936460
Cu2   Cu    Cu3+1 0.640660 0.499990 0.499990 0.988815
H1    H     H_    0.767202 0.441971 0.111323 0.135866
H2    H     H_    0.283509 0.787186 0.609378 0.161488
H3    H     H_    0.100719 0.910380 0.681833 0.175617
H4    H     H_    0.104019 0.137363 0.684323 0.140969
H5    H     H_    0.291921 0.240370 0.615561 0.159507
H6    H     H_    0.854023 0.634395 0.590899 0.147176
H7    H     H_    0.765420 0.330705 0.391668 0.185094
H8    H     H_    0.906942 0.213208 0.295942 0.149620
H9    H     H_    0.305508 0.522978 0.257259 0.165789
H10   H     H_    0.163395 0.210365 0.296645 0.147406
H11   H     H_    0.273568 0.328888 0.390223 0.198087
H12   H     H_    0.112498 0.635148 0.590264 0.160267
H13   H     H_    0.753363 0.453079 0.252954 0.155503
H14   H     H_    0.610207 0.392440 0.991690 0.123764
H15   H     H_    0.286533 0.624329 0.895586 0.175888
H16   H     H_    0.320634 0.510833 0.116591 0.162752
H17   H     H_    0.695755 0.448422 0.876633 0.163669
N1    N     N_R   0.852190 0.498790 0.499250 -0.202869
N2    N     N_R   0.148060 0.498710 0.499220 -0.211446
O1    O     O_R   0.381190 0.680360 0.500010 -0.600143
O2    O     O_R   0.618760 0.680340 0.500000 -0.528784
O3    O     O_R   0.367440 0.500030 0.613600 -0.590847
O4    O     O_R   0.605010 0.500010 0.613590 -0.558664
O5    O     O_R   0.381240 0.319660 0.500000 -0.618169
O6    O     O_R   0.618810 0.319640 0.499990 -0.558900
O7    O     O_R   0.394990 0.499990 0.386410 -0.600296
O8    O     O_R   0.632560 0.499970 0.386400 -0.610552
C37   C     C_2   0.700961 0.365681 0.731509 0.876286
O9    O     O_2   0.668415 0.286522 0.684367 -0.560450
O10   O     O_R   0.840431 0.373871 0.749469 -0.746421
H18   H     H_    0.904853 0.311361 0.718231 0.335924
O11   O     O_3   0.708323 0.865054 0.424828 -0.566881
C38   C     C_3   0.699055 0.894149 0.346430 0.105421
H19   H     H_    0.807440 0.901328 0.319690 0.188926
H20   H     H_    0.643954 0.984301 0.338468 0.111211
C39   C     C_3   0.628277 0.790755 0.303055 -0.354071
H21   H     H_    0.690660 0.703791 0.306552 0.243018
H22   H     H_    0.521133 0.778960 0.330414 0.210441
C40   C     C_3   0.618491 0.818304 0.218178 -0.930300
H23   H     H_    0.556849 0.905402 0.213266 0.255298
H24   H     H_    0.565550 0.742135 0.188469 0.284812
H25   H     H_    0.724790 0.826698 0.188994 0.253627
C41   C     C_2   0.770414 0.102664 0.486877 0.915606
O12   O     O_2   0.856405 0.069751 0.433886 -0.611987
O13   O     O_R   0.812762 0.174634 0.549285 -0.695009
H26   H     H_    0.915245 0.195956 0.542706 0.323147
C42   C     C_2   0.226416 0.591620 0.750719 0.871501
O14   O     O_2   0.186194 0.699525 0.756191 -0.598053
O15   O     O_R   0.140511 0.503200 0.719591 -0.714161
H27   H     H_    0.180173 0.415993 0.721761 0.294186
O16   O     O_3   0.426055 0.661492 0.017285 -0.620195
C43   C     C_3   0.503538 0.768214 0.004531 0.060618
H28   H     H_    0.521710 0.783617 0.941543 0.152947
H29   H     H_    0.606303 0.759686 0.030406 0.153077
C44   C     C_3   0.420942 0.879849 0.043051 -0.321767
H30   H     H_    0.321082 0.892133 0.015092 0.225325
H31   H     H_    0.395136 0.863679 0.105176 0.227233
C45   C     C_3   0.503940 0.997327 0.036359 -0.926908
H32   H     H_    0.603087 0.987889 0.065271 0.257314
H33   H     H_    0.440973 0.076477 0.064779 0.256974
H34   H     H_    0.528523 0.016556 0.974587 0.264710

loop_
_geom_bond_atom_site_label_1
_geom_bond_atom_site_label_2
_ccdc_geom_bond_type
C8    C9    D    
C37   O10   S    
O15   H27   S    
C45   H34   S    
C44   H30   S    
C19   C20   A    
C13   H3    S    
Cu1   O5    S    
C28   N1    A    
C40   H23   S    
C26   C27   A    
C16   C21   A    
C39   H22   S    
Cu1   Cu2   S    
C18   C19   A    
C3    C7    A    
C1    O2    A    
C5    C6    A    
C3    H16   S    
C15   C16   A    
C30   N2    A    
C2    C42   S    
C2    C32   A    
C34   C35   A    
C36   H15   S    
C10   C31   S    
C23   O5    A    
C35   C36   A    
C16   C17   A    
C39   C40   S    
C45   H33   S    
O11   C38   S    
Cu1   O1    S    
C14   H4    S    
Cu2   O4    S    
C42   O15   S    
C37   O9    D    
C30   H12   S    
C34   H17   S    
C44   H31   S    
C22   C28   A    
C13   C14   A    
C12   C32   S    
C9    H14   S    
C41   O13   S    
C33   C37   S    
C41   O12   D    
C40   H24   S    
C39   H21   S    
C24   C25   A    
C27   N2    A    
C26   H11   S    
C38   H20   S    
O10   H18   S    
C25   C26   A    
C42   O14   D    
C8    C35   S    
C29   C30   A    
C43   H29   S    
O13   H26   S    
Cu2   O8    S    
C45   H32   S    
C17   C18   A    
C1    C18   S    
C25   H10   S    
C44   C45   S    
C21   C23   S    
C29   H6    S    
C22   C24   A    
C4    C10   A    
C3    C4    A    
Cu1   O7    S    
C43   C44   S    
Cu2   O6    S    
C40   H25   S    
C2    C36   A    
C31   O8    A    
C11   C17   A    
C14   C15   A    
C31   O7    A    
C38   C39   S    
C6    C7    A    
C29   N1    A    
C24   H8    S    
C32   C33   A    
C15   H5    S    
C5    C10   A    
C1    O1    A    
C12   O4    A    
C11   C13   A    
C43   H28   S    
C23   O6    A    
C33   C34   A    
C11   H2    S    
Cu1   O3    S    
Cu2   O2    S    
C12   O3    A    
C7    C9    S    
C38   H19   S    
C22   H7    S    
Cu2   N1    S    
C20   C21   A    
C27   C28   A    
C6    H1    S    
C5    H13   S    
C19   O11   S    
C8    O16   S    
O16   C43   S    
C20   C41   S    
Cu1   N2    S    
C4    H9    S    
