data_mof_unit_18353.cif
_audit_creation_date              2012-12-11T15:58:53-0500
_audit_creation_method            fapswitch 2.2
_symmetry_space_group_name_H-M    P1
_symmetry_Int_Tables_number       1
_space_group_crystal_system       triclinic
_cell_length_a                    8.322549
_cell_length_b                    18.817053
_cell_length_c                    18.989932
_cell_angle_alpha                 98.807246
_cell_angle_beta                  94.389484
_cell_angle_gamma                 91.932891
_cell_volume                      2927.12980514

loop_
_atom_site_label
_atom_site_type_symbol
_atom_type_description
_atom_site_fract_x
_atom_site_fract_y
_atom_site_fract_z
_atom_type_partial_charge
Ba1   Ba    Ba6+2 0.152460 0.535140 0.468980 1.720182
Ba2   Ba    Ba6+2 0.657710 0.464850 0.530960 1.679909
C1    C     C_3   0.462349 0.815433 0.265366 -0.301169
C2    C     C_3   0.440212 0.746975 0.300074 -0.265227
C3    C     C_3   0.524663 0.686989 0.728395 0.207428
C4    C     C_3   0.450092 0.753668 0.770213 -0.286433
C5    C     C_3   0.899841 0.258958 0.662707 0.318725
C6    C     C_3   0.842781 0.179936 0.660316 -0.252240
C7    C     C_3   0.399020 0.265336 0.709638 0.300971
C8    C     C_3   0.324959 0.194001 0.726653 -0.239565
C9    C     C_R   0.006634 0.952288 0.531678 0.057109
C10   C     C_R   0.101182 0.905858 0.566882 -0.012836
C11   C     C_R   0.261399 0.927838 0.591991 -0.041523
C12   C     C_3   0.883041 0.727568 0.293432 0.458560
C13   C     C_R   0.327937 0.995484 0.584754 -0.049022
C14   C     C_R   0.229158 0.044333 0.553493 -0.030245
C15   C     C_R   0.068690 0.022431 0.526769 0.055540
C16   C     C_R   0.283945 0.115415 0.551236 -0.120592
C17   C     C_R   0.181499 0.166221 0.527329 -0.011396
C18   C     C_R   0.024545 0.143499 0.496953 0.037012
C19   C     C_R   0.968900 0.071181 0.496472 0.032209
C20   C     C_R   0.230914 0.239684 0.534623 -0.009950
C21   C     C_R   0.127206 0.288815 0.509378 -0.302050
C22   C     C_R   0.976421 0.266965 0.473814 0.011535
C23   C     C_3   0.947815 0.799464 0.275362 -0.197696
C24   C     C_R   0.922912 0.192978 0.467656 -0.056349
C25   C     C_R   0.847661 0.929856 0.504349 0.055394
C26   C     C_R   0.788209 0.858432 0.506239 0.044034
C27   C     C_R   0.885487 0.810272 0.539968 -0.034261
C28   C     C_R   0.033410 0.838955 0.578197 -0.038567
C29   C     C_R   0.771715 0.166515 0.433631 -0.023067
C30   C     C_R   0.712242 0.096509 0.437168 0.014962
C31   C     C_R   0.810639 0.048602 0.468789 0.020912
C32   C     C_R   0.750013 0.978169 0.472735 0.046885
C33   C     C_R   0.553574 0.074223 0.410946 -0.040372
C34   C     C_3   0.807597 0.373884 0.304154 0.206270
C35   C     C_R   0.492914 0.005108 0.415465 -0.091795
C36   C     C_R   0.590447 0.956573 0.445908 -0.001964
C37   C     C_R   0.630024 0.835958 0.475461 -0.062299
C38   C     C_R   0.530544 0.886822 0.449340 -0.153346
C39   C     C_R   0.577506 0.762887 0.470077 -0.096999
C40   C     C_R   0.682506 0.713872 0.494459 -0.235647
C41   C     C_R   0.831522 0.735809 0.532012 0.012206
C42   C     C_R   0.604680 0.533571 0.302537 -0.325491
C43   C     C_R   0.459577 0.495810 0.277712 0.115294
C44   C     C_R   0.406434 0.487726 0.204986 -0.077578
C45   C     C_3   0.859051 0.353069 0.228097 -0.256390
C46   C     C_R   0.499166 0.516923 0.156388 -0.002808
C47   C     C_R   0.648125 0.553336 0.182056 -0.082724
C48   C     C_R   0.701408 0.560307 0.254802 -0.077831
C49   C     C_R   0.458343 0.560361 0.038136 -0.096369
C50   C     C_R   0.404568 0.550315 0.965175 -0.005391
C51   C     C_R   0.342289 0.481108 0.929629 -0.008143
C52   C     C_R   0.334199 0.424207 0.971117 -0.067149
C53   C     C_R   0.382717 0.437254 0.044788 -0.018176
C54   C     C_R   0.445777 0.504776 0.078642 0.057254
C55   C     C_R   0.140708 0.435787 0.822120 -0.119875
C56   C     C_3   0.020236 0.605271 0.679868 0.270632
C57   C     C_R   0.097610 0.424711 0.747867 0.014362
C58   C     C_R   0.352702 0.481619 0.728394 0.038262
C59   C     C_R   0.399547 0.488947 0.801896 -0.078896
C60   C     C_R   0.294074 0.467312 0.850112 -0.009893
C61   C     C_R   0.206050 0.446234 0.701484 -0.293770
C62   C     C_3   0.057092 0.614321 0.760440 -0.224910
C63   C     C_3   0.253313 0.310600 0.337594 0.087512
C64   C     C_3   0.241586 0.234080 0.292791 -0.235051
H1    H     H_    0.991336 0.363352 0.228252 0.104248
H2    H     H_    0.104815 0.669826 0.782153 0.213734
H3    H     H_    0.147411 0.576481 0.773649 0.090530
H4    H     H_    0.948980 0.601001 0.787110 0.104585
H5    H     H_    0.133017 0.333657 0.337567 0.039928
H6    H     H_    0.299747 0.308019 0.393549 0.023961
H7    H     H_    0.557527 0.740244 0.329090 0.605204
H8    H     H_    0.571774 0.811448 0.235344 0.068311
H9    H     H_    0.435752 0.744879 0.826030 0.117368
H10   H     H_    0.032872 0.263631 0.672423 -0.016957
H11   H     H_    0.726589 0.168714 0.627273 0.085327
H12   H     H_    0.931429 0.144800 0.633442 0.049492
H13   H     H_    0.299927 0.299729 0.694819 -0.109457
H14   H     H_    0.237029 0.170018 0.682066 0.062578
H15   H     H_    0.338166 0.890992 0.615522 0.134303
H16   H     H_    0.167913 0.344740 0.514595 0.075267
H17   H     H_    0.404385 0.132821 0.572227 0.084696
H18   H     H_    0.475187 0.110852 0.388253 0.137928
H19   H     H_    0.406627 0.872384 0.429659 0.126180
H20   H     H_    0.758008 0.716693 0.269390 -0.243691
H21   H     H_    0.643476 0.657593 0.487277 0.089188
H22   H     H_    0.513890 0.516339 0.822198 0.064629
H23   H     H_    0.504992 0.613077 0.064418 0.089173
H24   H     H_    0.377775 0.393468 0.075689 0.103411
H25   H     H_    0.053849 0.421783 0.857946 0.099232
H26   H     H_    0.725842 0.572890 0.145296 0.126215
H27   H     H_    0.168761 0.443125 0.645202 0.051724
H28   H     H_    0.648523 0.537063 0.358148 0.065033
H29   H     H_    0.876787 0.423692 0.330181 0.066444
O1    O     O_2   0.118870 0.674530 0.547560 -0.433105
O2    O     O_3   0.361716 0.352630 0.306861 -0.667692
O3    O     O_3   0.978311 0.672495 0.264048 -0.491149
O4    O     O_2   0.691430 0.325420 0.452420 -0.444763
O5    O     O_3   0.939830 0.414660 0.457830 -0.494999
O6    O     O_3   0.456020 0.368240 0.581510 -0.465423
O7    O     O_3   0.836790 0.314709 0.339159 -0.652480
O8    O     O_3   0.374170 0.535780 0.585810 -0.424895
O9    O     O_3   0.871300 0.403980 0.619270 -0.491815
O10   O     O_2   0.765361 0.443035 0.745951 -0.502335
O11   O     O_3   0.828623 0.305748 0.715603 -0.562739
O12   O     O_3   0.870460 0.585330 0.542110 -0.498711
O13   O     O_3   0.436130 0.464210 0.414140 -0.468953
O14   O     O_2   0.629420 0.533310 0.672080 -0.499418
O15   O     O_3   0.401845 0.632050 0.718867 -0.647166
O16   O     O_2   0.557203 0.244397 0.523201 -0.493858
O17   O     O_3   0.504166 0.248834 0.655287 -0.617838
O18   O     O_3   0.354280 0.631750 0.418430 -0.441902
O19   O     O_2   0.245146 0.756758 0.476708 -0.454475
O20   O     O_3   0.971910 0.670950 0.660855 -0.590934
O21   O     O_3   0.314738 0.754054 0.346396 -0.555113
O22   O     O_2   0.180880 0.466650 0.327890 -0.469220
O23   O     O_3   0.939000 0.596010 0.380670 -0.496951
O24   O     O_2   0.023337 0.536509 0.252845 -0.399198
P1    P     P_3+3 0.947550 0.663200 0.567530 1.013603
P2    P     P_3+3 0.354660 0.445020 0.336980 1.001858
P3    P     P_3+3 0.908476 0.591562 0.287673 1.051250
P4    P     P_3+3 0.862750 0.336790 0.432410 0.968555
P5    P     P_3+3 0.891204 0.394500 0.709432 0.979987
P6    P     P_3+3 0.375472 0.726264 0.428458 0.981849
P7    P     P_3+3 0.444017 0.544950 0.676551 0.987084
P8    P     P_3+3 0.432885 0.275126 0.574269 0.948739
C65   C     C_2   0.406872 0.682301 0.243317 0.548408
H30   H     H_    0.482516 0.674036 0.199089 -0.011929
O25   O     O_2   0.294419 0.639710 0.245418 -0.492463
H31   H     H_    0.831852 0.294623 0.209948 0.145028
C66   C     C_2   0.772203 0.391498 0.174649 0.491634
H32   H     H_    0.641754 0.386488 0.166957 -0.033639
O26   O     O_2   0.847442 0.425773 0.137362 -0.541994
H33   H     H_    0.128828 0.588152 0.653050 0.043630
H34   H     H_    0.923816 0.562398 0.664477 0.064534
C67   C     C_2   0.323703 0.829819 0.214988 0.638142
H35   H     H_    0.251804 0.876122 0.229152 -0.004236
O27   O     O_2   0.292520 0.790860 0.157637 -0.545694
C68   C     C_2   0.179091 0.238760 0.216460 0.541583
H36   H     H_    0.238530 0.275963 0.187258 0.031726
O28   O     O_2   0.064791 0.200687 0.186109 -0.533831
C69   C     C_2   0.128238 0.185961 0.325434 0.502806
H37   H     H_    0.002051 0.198156 0.326347 0.036287
O29   O     O_2   0.174062 0.132759 0.349344 -0.567219
C70   C     C_2   0.408226 0.203987 0.290377 0.536652
H38   H     H_    0.511506 0.233829 0.320550 0.015728
O30   O     O_2   0.428839 0.145979 0.254211 -0.523982
C71   C     C_2   0.669156 0.668229 0.773705 0.405756
H39   H     H_    0.667082 0.619022 0.796784 0.011784
O31   O     O_2   0.786230 0.710209 0.788416 -0.586836
C72   C     C_2   0.568166 0.704006 0.657133 0.467590
H40   H     H_    0.680222 0.733664 0.653531 -0.010516
O32   O     O_2   0.473228 0.688931 0.604276 -0.574628
C73   C     C_2   0.545296 0.823751 0.773046 0.498055
H41   H     H_    0.665026 0.831983 0.800523 0.111844
O33   O     O_2   0.486960 0.872513 0.745547 -0.515198
H42   H     H_    0.326265 0.759041 0.746127 0.159533
H43   H     H_    0.482677 0.863007 0.307562 0.058784
C74   C     C_2   0.892440 0.862272 0.324634 0.367580
H44   H     H_    0.765788 0.867832 0.332050 -0.032923
O34   O     O_2   0.990534 0.907880 0.356713 -0.558346
H45   H     H_    0.866318 0.272560 0.608866 0.047516
C75   C     C_2   0.822591 0.159521 0.732505 0.655088
H46   H     H_    0.740855 0.187898 0.767363 0.090856
O35   O     O_2   0.895510 0.109791 0.751951 -0.527588
C76   C     C_2   0.498335 0.307760 0.772840 0.517615
H47   H     H_    0.532777 0.363166 0.771185 0.025877
O36   O     O_2   0.545989 0.280721 0.824663 -0.604064
C77   C     C_2   0.237927 0.202630 0.793597 0.537606
H48   H     H_    0.279366 0.175668 0.837748 0.095884
O37   O     O_2   0.121071 0.239843 0.799088 -0.590635
H49   H     H_    0.421413 0.155163 0.731612 0.080230
H50   H     H_    0.887211 0.730638 0.352662 -0.093949
C78   C     C_2   0.500880 0.012752 0.610329 0.525413
H51   H     H_    0.570408 0.054240 0.591055 -0.051173
O38   O     O_2   0.570461 0.978900 0.652443 -0.506208
C79   C     C_2   0.101732 0.809276 0.640746 0.565075
H52   H     H_    0.218632 0.785732 0.639776 0.023883
O39   O     O_2   0.030486 0.814671 0.695033 -0.522238
H53   H     H_    0.696067 0.200399 0.406036 0.102063
H54   H     H_    0.369434 0.989618 0.395118 0.137762
C80   C     C_2   0.412792 0.615342 0.930323 0.491501
H55   H     H_    0.506208 0.657125 0.948905 0.020058
O40   O     O_2   0.310917 0.625294 0.883851 -0.593962
H56   H     H_    0.294374 0.457413 0.186197 0.092419
C81   C     C_2   0.285296 0.349441 0.938060 0.574909
H57   H     H_    0.281338 0.334299 0.880984 0.027136
O41   O     O_2   0.251101 0.303674 0.974328 -0.526872
H58   H     H_    0.080316 0.800262 0.283717 0.138243
C82   C     C_2   0.904698 0.808855 0.198738 0.514657
H59   H     H_    0.943309 0.858225 0.180682 0.039037
O42   O     O_2   0.828871 0.762061 0.156194 -0.538438
H60   H     H_    0.676823 0.383265 0.302683 0.004173

loop_
_geom_bond_atom_site_label_1
_geom_bond_atom_site_label_2
_ccdc_geom_bond_type
C1    H43   S    
C53   C54   A    
Ba2   O14   S    
C21   H16   S    
C73   O33   D    
C39   C40   A    
C17   C18   A    
C48   P3    S    
C50   C80   S    
C46   C54   S    
O13   P2    S    
C65   H30   S    
C79   H52   S    
C5    C6    S    
C37   C39   A    
Ba2   P4    S    
C42   C43   A    
C67   O27   D    
C35   C36   A    
C3    C72   S    
C77   O37   D    
C58   C61   A    
C62   H2    S    
C26   C27   A    
C33   C35   A    
C68   O28   D    
C49   C54   A    
C53   H24   S    
C23   H58   S    
C71   O31   D    
C7    H13   S    
C3    C4    S    
C55   C57   A    
C19   C31   A    
C77   H48   S    
C65   O25   D    
C13   C14   A    
C11   H15   S    
Ba2   O12   S    
C3    C71   S    
C78   O38   D    
C34   C45   S    
C34   O7    S    
C16   C17   A    
O23   P3    S    
Ba2   O13   S    
O8    P7    S    
C1    H8    S    
O22   P2    D    
O17   P8    S    
O2    P2    S    
C69   O29   D    
C29   C30   A    
C14   C15   A    
C40   H21   S    
C21   C22   A    
C1    C67   S    
C62   H4    S    
C7    C8    S    
Ba1   O8    S    
C4    C73   S    
C41   P1    S    
C8    H49   S    
Ba2   O5    S    
C24   C29   A    
C36   C38   A    
C27   C41   A    
C6    H12   S    
Ba1   O18   S    
Ba1   O5    S    
C45   H1    S    
C4    H42   S    
O1    P1    D    
C9    C25   A    
C12   O3    S    
C70   O30   D    
C25   C32   A    
C56   C62   S    
C44   C46   A    
C64   C70   S    
C2    C65   S    
C49   C50   A    
C30   C33   A    
C39   P6    S    
C4    H9    S    
C17   C20   A    
C68   H36   S    
C12   H20   S    
C76   O36   D    
C6    C75   S    
C76   H47   S    
O19   P6    D    
C8    H14   S    
C66   H32   S    
C64   C69   S    
C26   C37   A    
C55   C60   A    
C51   C52   A    
C5    H45   S    
C22   P4    S    
C15   C19   A    
C82   H59   S    
O10   P5    D    
C45   H31   S    
C58   C59   A    
Ba1   P1    S    
C74   O34   D    
C38   H19   S    
C80   H55   S    
C82   O42   D    
C27   C28   A    
C59   H22   S    
C80   O40   D    
C51   C60   S    
C78   H51   S    
Ba2   O9    S    
C33   H18   S    
C23   C74   S    
C16   H17   S    
C28   C79   S    
C5    O11   S    
C64   C68   S    
Ba1   O22   S    
C62   H3    S    
C18   C19   A    
C2    H7    S    
O15   P7    S    
C66   O26   D    
C46   C47   A    
C72   O32   D    
Ba2   O4    S    
C63   C64   S    
C52   C81   S    
C11   C13   A    
C23   C82   S    
C56   O20   S    
C47   C48   A    
C40   C41   A    
C47   H26   S    
C1    C2    S    
O12   P1    S    
C37   C38   A    
C50   C51   A    
O4    P4    D    
C70   H38   S    
O24   P3    D    
C42   C48   A    
C57   P5    S    
O3    P3    S    
C52   C53   A    
C75   H46   S    
C55   H25   S    
Ba1   P2    S    
C10   C28   A    
C32   C36   A    
C2    O21   S    
C29   H53   S    
C22   C24   A    
C9    C15   A    
C79   O39   D    
C9    C10   A    
C5    H10   S    
O9    P5    S    
C56   H33   S    
C8    C77   S    
C63   H6    S    
C67   H35   S    
C61   H27   S    
C57   C61   A    
Ba2   O6    S    
C13   C78   S    
C45   C66   S    
O21   P6    S    
O5    P4    S    
C43   P2    S    
C30   C31   A    
C58   P7    S    
C69   H37   S    
C63   O2    S    
C81   H57   S    
C12   H50   S    
C63   H5    S    
C71   H39   S    
C74   H44   S    
O16   P8    D    
C34   H29   S    
C20   P8    S    
C6    H11   S    
C18   C24   A    
Ba2   O8    S    
C7    O17   S    
Ba1   O1    S    
C35   H54   S    
Ba1   Ba2   S    
C75   O35   D    
O6    P8    S    
C31   C32   A    
Ba1   O23   S    
C12   C23   S    
C59   C60   A    
C34   H60   S    
C81   O41   D    
C42   H28   S    
Ba1   O13   S    
Ba1   O12   S    
C43   C44   A    
O14   P7    D    
O18   P6    S    
C10   C11   A    
C44   H56   S    
C14   C16   A    
O20   P1    S    
C3    O15   S    
O11   P5    S    
C73   H41   S    
C20   C21   A    
C7    C76   S    
C72   H40   S    
C49   H23   S    
O7    P4    S    
C25   C26   A    
C56   H34   S    
