data_mof_unit_14940.cif
_audit_creation_date              2012-12-10T18:00:17-0500
_audit_creation_method            fapswitch 2.2
_symmetry_space_group_name_H-M    P1
_symmetry_Int_Tables_number       1
_space_group_crystal_system       triclinic
_cell_length_a                    10.837774
_cell_length_b                    9.628812
_cell_length_c                    10.688787
_cell_angle_alpha                 92.199301
_cell_angle_beta                  92.567932
_cell_angle_gamma                 89.324004
_cell_volume                      1113.42949629

loop_
_atom_site_label
_atom_site_type_symbol
_atom_type_description
_atom_site_fract_x
_atom_site_fract_y
_atom_site_fract_z
_atom_type_partial_charge
C1    C     C_R   0.871281 0.501891 0.497827 -0.017392
C2    C     C_R   0.128101 0.502299 0.499931 -0.010937
C3    C     C_R   0.262311 0.500781 0.500535 0.752659
C4    C     C_R   0.737482 0.499993 0.499166 0.771394
C5    C     C_R   0.496687 0.497397 0.259441 0.777167
C6    C     C_R   0.497196 0.502038 0.740332 0.835956
C7    C     C_3   0.391864 0.565519 0.041417 -0.363048
C8    C     C_3   0.593581 0.429495 0.957098 -0.343000
C9    C     C_3   0.494734 0.631958 0.968349 -0.234229
C10   C     C_3   0.491025 0.362698 0.031309 -0.248487
C11   C     C_3   0.392292 0.437828 0.949434 0.569215
C12   C     C_3   0.593065 0.556350 0.049324 0.528492
C13   C     C_3   0.493601 0.503994 0.877137 -0.085640
C14   C     C_3   0.492343 0.492122 0.122317 -0.109996
C15   C     C_R   0.426126 0.071418 0.415733 0.380701
C16   C     C_R   0.583131 0.926979 0.575304 0.343208
C17   C     C_R   0.581765 0.077396 0.577282 0.356363
C18   C     C_R   0.414473 0.924461 0.428124 0.384693
C19   C     C_R   0.062738 0.382379 0.461919 -0.200034
C20   C     C_R   0.936009 0.622197 0.537963 -0.203531
C21   C     C_R   0.935308 0.384264 0.455240 -0.196943
C22   C     C_R   0.064030 0.623215 0.536674 -0.201181
Cu1   Cu    Cu3+1 0.500000 0.640660 0.500000 1.004543
Cu2   Cu    Cu3+1 0.500000 0.359340 0.500000 1.010090
H1    H     H_    0.309121 0.621666 0.074313 0.135027
H2    H     H_    0.674274 0.373886 0.917896 0.159291
H3    H     H_    0.493183 0.744172 0.951460 0.147603
H4    H     H_    0.491106 0.252796 0.058835 0.186770
H5    H     H_    0.109071 0.287069 0.436293 0.124997
H6    H     H_    0.887974 0.715182 0.570132 0.189446
H7    H     H_    0.887301 0.294208 0.415658 0.132120
H8    H     H_    0.112739 0.716953 0.567252 0.182403
N1    N     N_R   0.500000 0.852070 0.500000 -0.254738
N2    N     N_R   0.500000 0.147930 0.500000 -0.256967
O1    O     O_R   0.319640 0.618740 0.499990 -0.550851
O2    O     O_R   0.680360 0.381260 0.500010 -0.569079
O3    O     O_R   0.680360 0.618740 0.500010 -0.527432
O4    O     O_R   0.319640 0.381260 0.499990 -0.598228
O5    O     O_R   0.499970 0.618770 0.316850 -0.583503
O6    O     O_R   0.500030 0.381230 0.683150 -0.507368
O7    O     O_R   0.500030 0.618770 0.683150 -0.580156
O8    O     O_R   0.499970 0.381230 0.316850 -0.552203
O9    O     O_3   0.398521 0.124779 0.298886 -0.574287
C23   C     C_3   0.273303 0.164139 0.283878 0.120933
H9    H     H_    0.265129 0.276771 0.304679 0.171073
H10   H     H_    0.211297 0.107120 0.343642 0.147179
C24   C     C_3   0.229899 0.144930 0.146859 -0.889190
H11   H     H_    0.130980 0.175328 0.135511 0.195262
H12   H     H_    0.284677 0.211201 0.088984 0.264142
H13   H     H_    0.241504 0.036728 0.111001 0.259732
O10   O     O_3   0.671738 0.854117 0.643667 -0.569368
C25   C     C_3   0.653457 0.871814 0.773065 0.068081
H14   H     H_    0.557779 0.845131 0.793745 0.153071
H15   H     H_    0.669903 0.979680 0.808806 0.174224
C26   C     C_3   0.745865 0.780104 0.843413 -0.787733
H16   H     H_    0.740023 0.801867 0.945501 0.248667
H17   H     H_    0.726903 0.668713 0.820890 0.249527
H18   H     H_    0.841142 0.803289 0.816776 0.231154
O11   O     O_3   0.656956 0.154561 0.661583 -0.554116
C27   C     C_3   0.783163 0.135731 0.635948 0.101152
H19   H     H_    0.798999 0.153695 0.536435 0.140563
H20   H     H_    0.818045 0.030129 0.655678 0.167027
C28   C     C_3   0.859932 0.235417 0.720909 -0.809259
H21   H     H_    0.854004 0.206581 0.820072 0.221554
H22   H     H_    0.958171 0.229851 0.695582 0.218459
H23   H     H_    0.825476 0.343669 0.712310 0.253019
O12   O     O_3   0.298698 0.867704 0.403826 -0.580553
C29   C     C_3   0.283354 0.814721 0.279589 0.144931
H24   H     H_    0.306312 0.703443 0.276927 0.180137
H25   H     H_    0.340202 0.867484 0.211850 0.149723
C30   C     C_3   0.147078 0.820072 0.239320 -0.907960
H26   H     H_    0.134561 0.782369 0.140167 0.206439
H27   H     H_    0.095386 0.752625 0.299829 0.268438
H28   H     H_    0.107911 0.926262 0.248957 0.261240
O13   O     O_3   0.292562 0.368735 0.884431 -0.587761
C31   C     C_3   0.177914 0.405341 0.935365 0.043450
H29   H     H_    0.183734 0.427844 0.038402 0.125128
H30   H     H_    0.115823 0.314693 0.920584 0.175955
C32   C     C_3   0.118022 0.526527 0.867054 -0.839514
H31   H     H_    0.099688 0.495434 0.767127 0.267435
H32   H     H_    0.028945 0.555054 0.909177 0.211019
H33   H     H_    0.179244 0.618334 0.873422 0.241474
O14   O     O_3   0.696178 0.626521 0.104909 -0.588708
C33   C     C_3   0.788639 0.529931 0.140574 0.060981
H34   H     H_    0.819370 0.465912 0.058738 0.133004
H35   H     H_    0.755928 0.461345 0.213446 0.138581
C34   C     C_3   0.900282 0.609011 0.193179 -0.805004
H36   H     H_    0.874748 0.675352 0.275424 0.267796
H37   H     H_    0.974871 0.535153 0.221674 0.208236
H38   H     H_    0.934235 0.676007 0.120107 0.247472

loop_
_geom_bond_atom_site_label_1
_geom_bond_atom_site_label_2
_ccdc_geom_bond_type
C15   C18   A    
C5    O8    A    
C28   H22   S    
C1    C21   A    
C8    C13   S    
Cu2   O8    S    
C33   C34   S    
C26   H16   S    
C4    O2    A    
C24   H12   S    
C20   H6    S    
C23   H9    S    
C7    C11   S    
C21   H7    S    
Cu2   O2    S    
C22   H8    S    
C27   C28   S    
C19   C21   A    
C31   H30   S    
C8    H2    S    
C27   H20   S    
C9    C13   S    
C7    C14   S    
C24   H11   S    
C3    O4    A    
C23   H10   S    
C29   H24   S    
Cu1   N1    S    
C6    O7    A    
C2    C22   A    
Cu2   O4    S    
Cu1   Cu2   S    
C31   C32   S    
C15   N2    A    
C23   C24   S    
C28   H23   S    
O11   C27   S    
C18   N1    A    
C25   H15   S    
C24   H13   S    
O10   C25   S    
C33   H34   S    
C10   C14   S    
C30   H27   S    
C16   C17   A    
C18   O12   S    
Cu1   O3    S    
Cu2   N2    S    
O12   C29   S    
C12   O14   S    
C27   H19   S    
O13   C31   S    
C16   O10   S    
C16   N1    A    
C30   H28   S    
O14   C33   S    
C3    O1    A    
C8    C12   S    
C31   H29   S    
C5    C14   S    
C17   O11   S    
C29   H25   S    
C20   C22   A    
Cu1   O1    S    
C26   H17   S    
O9    C23   S    
C6    O6    A    
C32   H31   S    
C26   H18   S    
C17   N2    A    
C19   H5    S    
C25   H14   S    
C9    H3    S    
C32   H32   S    
C10   H4    S    
C7    C9    S    
C5    O5    A    
C1    C20   A    
C2    C19   A    
C12   C14   S    
Cu1   O7    S    
C32   H33   S    
C25   C26   S    
C7    H1    S    
C1    C4    S    
C34   H37   S    
C2    C3    S    
C15   O9    S    
C30   H26   S    
C11   O13   S    
C6    C13   S    
C11   C13   S    
C29   C30   S    
Cu1   O5    S    
Cu2   O6    S    
C9    C12   S    
C10   C11   S    
C28   H21   S    
C4    O3    A    
C34   H36   S    
C8    C10   S    
C34   H38   S    
C33   H35   S    
