data_mof_unit_55819.cif
_audit_creation_date              2012-12-10T18:03:16-0500
_audit_creation_method            fapswitch 2.2
_symmetry_space_group_name_H-M    P1
_symmetry_Int_Tables_number       1
_space_group_crystal_system       triclinic
_cell_length_a                    10.879578
_cell_length_b                    9.610274
_cell_length_c                    15.215976
_cell_angle_alpha                 90.032869
_cell_angle_beta                  94.445245
_cell_angle_gamma                 90.021699
_cell_volume                      1586.1313023

loop_
_atom_site_label
_atom_site_type_symbol
_atom_type_description
_atom_site_fract_x
_atom_site_fract_y
_atom_site_fract_z
_atom_type_partial_charge
C1    C     C_R   0.263213 0.500585 0.507242 0.784511
C2    C     C_R   0.736622 0.500330 0.492212 0.768892
C3    C     C_R   0.512453 0.499461 0.331165 0.773202
C4    C     C_R   0.488862 0.499752 0.669044 0.770926
C5    C     C_R   0.424634 0.074610 0.439562 0.285170
C6    C     C_R   0.567912 0.925893 0.564661 0.275941
C7    C     C_R   0.571987 0.075024 0.562272 0.274029
C8    C     C_R   0.427717 0.924786 0.437683 0.286734
C9    C     C_R   0.062507 0.378052 0.515807 -0.089741
C10   C     C_R   0.936117 0.628899 0.484733 -0.078059
C11   C     C_R   0.937467 0.376610 0.488814 -0.083283
C12   C     C_R   0.063086 0.630299 0.506090 -0.066305
C13   C     C_R   0.550199 0.614803 0.095970 -0.204824
C14   C     C_R   0.495591 0.369762 0.902497 -0.201414
C15   C     C_R   0.464299 0.618040 0.905261 -0.208229
C16   C     C_R   0.505263 0.369259 0.097642 -0.200676
C17   C     C_R   0.560499 0.616577 0.188163 -0.049422
C18   C     C_R   0.474108 0.370465 0.811452 -0.027951
C19   C     C_R   0.452516 0.620459 0.813071 -0.029021
C20   C     C_R   0.524887 0.368820 0.188815 -0.023413
C21   C     C_R   0.532489 0.495796 0.235528 -0.137929
C22   C     C_R   0.471760 0.497536 0.765068 -0.133847
C23   C     C_R   0.513781 0.493180 0.049395 0.098192
C24   C     C_R   0.494297 0.494011 0.951231 0.097244
C25   C     C_R   0.871014 0.501966 0.484598 -0.145396
C26   C     C_R   0.128628 0.503404 0.513772 -0.144903
Cu1   Cu    Cu3+1 0.500000 0.640660 0.500000 1.019831
Cu2   Cu    Cu3+1 0.500000 0.359340 0.500000 1.024326
H1    H     H_    0.573912 0.708036 0.061109 0.132187
H2    H     H_    0.509829 0.269615 0.933407 0.124664
H3    H     H_    0.446319 0.712774 0.940606 0.130355
H4    H     H_    0.486511 0.270111 0.066326 0.124130
N1    N     N_R   0.500000 0.852070 0.500000 -0.204487
N2    N     N_R   0.500000 0.147930 0.500000 -0.203344
O1    O     O_R   0.319640 0.618740 0.499990 -0.568013
O2    O     O_R   0.680360 0.381260 0.500010 -0.552362
O3    O     O_R   0.680360 0.618740 0.500010 -0.565581
O4    O     O_R   0.319640 0.381260 0.499990 -0.548519
O5    O     O_R   0.499990 0.618780 0.371460 -0.543433
O6    O     O_R   0.500010 0.381220 0.628540 -0.553804
O7    O     O_R   0.500010 0.618780 0.628540 -0.545403
O8    O     O_R   0.499990 0.381220 0.371460 -0.561087
N3    N     N_2   0.345538 0.149986 0.377499 -0.372948
H5    H     H_    0.371629 0.149153 0.314111 0.251787
C27   C     C_3   0.213632 0.135365 0.381619 -0.632953
H6    H     H_    0.171613 0.082913 0.321759 0.200852
H7    H     H_    0.171599 0.240087 0.383352 0.237984
H8    H     H_    0.190590 0.074573 0.439832 0.240672
N4    N     N_2   0.616032 0.855437 0.642270 -0.376017
H9    H     H_    0.587589 0.896163 0.699929 0.238565
C28   C     C_3   0.744623 0.815634 0.649848 -0.597374
H10   H     H_    0.793015 0.852204 0.593277 0.225510
H11   H     H_    0.752038 0.700845 0.655208 0.235986
H12   H     H_    0.791728 0.860440 0.710774 0.188189
N5    N     N_2   0.641472 0.149760 0.630188 -0.371755
H13   H     H_    0.614823 0.130647 0.692319 0.239189
C29   C     C_3   0.774381 0.149079 0.629071 -0.621815
H14   H     H_    0.817406 0.101744 0.690514 0.197426
H15   H     H_    0.808208 0.257643 0.626931 0.236911
H16   H     H_    0.804991 0.089823 0.572374 0.233587
N6    N     N_2   0.345351 0.848677 0.378092 -0.369046
H17   H     H_    0.256242 0.841760 0.395765 0.254791
C30   C     C_3   0.355036 0.864139 0.284210 -0.654309
H18   H     H_    0.272749 0.917555 0.252909 0.198381
H19   H     H_    0.358263 0.759744 0.253611 0.238698
H20   H     H_    0.438070 0.923682 0.269854 0.240642
C31   C     C_1   0.617148 0.736350 0.231501 0.246725
N7    N     N_1   0.664219 0.832039 0.265693 -0.226410
C32   C     C_1   0.431890 0.242135 0.770215 0.243958
N8    N     N_1   0.395238 0.140000 0.737620 -0.255984
C33   C     C_1   0.401193 0.743486 0.770328 0.246515
N9    N     N_1   0.357624 0.840893 0.735947 -0.238573
C34   C     C_1   0.560506 0.238217 0.229985 0.241527
N10   N     N_1   0.592251 0.134323 0.262633 -0.269375
C35   C     C_1   0.115831 0.257542 0.561107 0.253733
N11   N     N_1   0.158170 0.162644 0.599094 -0.231842
C36   C     C_1   0.877333 0.755671 0.451889 0.255692
N12   N     N_1   0.830861 0.856890 0.425206 -0.236058
C37   C     C_1   0.885360 0.252535 0.447115 0.253823
N13   N     N_1   0.843692 0.154942 0.411696 -0.235864
C38   C     C_1   0.121050 0.761387 0.531973 0.253772
N14   N     N_1   0.167062 0.865446 0.554046 -0.264482

loop_
_geom_bond_atom_site_label_1
_geom_bond_atom_site_label_2
_ccdc_geom_bond_type
N5    H13   S    
C30   H19   S    
C3    O8    A    
C34   N10   T    
C14   C18   A    
C19   C33   S    
C7    N5    S    
N3    H5    S    
C38   N14   T    
C27   H6    S    
Cu1   N1    S    
C15   C19   A    
C13   H1    S    
C29   H15   S    
C4    O7    A    
Cu2   O6    S    
C13   C23   A    
C14   C24   A    
N6    C30   S    
C4    O6    A    
Cu1   O5    S    
N4    C28   S    
C12   C38   S    
C23   C24   S    
C8    N6    S    
C9    C11   A    
C18   C32   S    
C5    N3    S    
C30   H20   S    
Cu2   N2    S    
C32   N8    T    
C14   H2    S    
C10   C12   A    
C10   C36   S    
C9    C26   A    
C27   H7    S    
C17   C31   S    
C28   H10   S    
C19   C22   A    
C29   H16   S    
Cu1   O1    S    
C36   N12   T    
C17   C21   A    
C31   N7    T    
C12   C26   A    
C28   H11   S    
C35   N11   T    
C4    C22   S    
Cu1   O7    S    
Cu2   O4    S    
C16   C20   A    
C5    N2    A    
N3    C27   S    
C11   C37   S    
C1    O4    A    
C10   C25   A    
C15   C24   A    
C16   C23   A    
N5    C29   S    
C1    C26   S    
C7    N2    A    
C3    C21   S    
C1    O1    A    
C27   H8    S    
C2    O2    A    
C18   C22   A    
C30   H18   S    
C5    C8    A    
C15   H3    S    
C6    C7    A    
C16   H4    S    
C6    N1    A    
C13   C17   A    
C28   H12   S    
C33   N9    T    
C2    O3    A    
C29   H14   S    
Cu1   O3    S    
Cu2   O8    S    
C20   C34   S    
C2    C25   S    
C8    N1    A    
C6    N4    S    
N6    H17   S    
C3    O5    A    
C37   N13   T    
C20   C21   A    
Cu2   O2    S    
N4    H9    S    
Cu1   Cu2   S    
C11   C25   A    
C9    C35   S    
