data_mof_unit_16497.cif
_audit_creation_date              2013-03-05T15:58:05-0500
_audit_creation_method            fapswitch 2.2
_symmetry_space_group_name_H-M    P1
_symmetry_Int_Tables_number       1
_space_group_crystal_system       triclinic
_cell_length_a                    12.612371
_cell_length_b                    13.144543
_cell_length_c                    14.898494
_cell_angle_alpha                 90.770035
_cell_angle_beta                  102.336927
_cell_angle_gamma                 82.709087
_cell_volume                      2393.14667477

loop_
_atom_site_label
_atom_site_type_symbol
_atom_site_description
_atom_site_fract_x
_atom_site_fract_y
_atom_site_fract_z
_atom_type_partial_charge
O1    O     O_R   0.366740 0.627160 0.477250 -0.634158
O2    O     O_R   0.544830 0.662520 0.507680 -0.601561
C1    C     C_R   0.439976 0.690623 0.480501 0.866639
O3    O     O_R   0.410940 0.482340 0.616930 -0.621597
O4    O     O_R   0.589030 0.517700 0.647360 -0.587627
C2    C     C_R   0.500624 0.500011 0.672513 0.956156
Zn1   Zn    Zn3+2 0.381090 0.476390 0.479680 0.965719
Zn2   Zn    Zn3+2 0.618910 0.523610 0.520320 1.010911
O5    O     O_R   0.455170 0.337480 0.492320 -0.574970
O6    O     O_R   0.633260 0.372840 0.522750 -0.591744
O7    O     O_R   0.410970 0.482300 0.352640 -0.615755
O8    O     O_R   0.589060 0.517660 0.383070 -0.595124
C3    C     C_R   0.560936 0.308742 0.507280 0.985677
C4    C     C_R   0.498231 0.501828 0.327242 0.897435
C5    C     C_R   0.550314 0.421431 0.195437 -0.265009
C6    C     C_R   0.493753 0.504085 0.230972 -0.070815
C7    C     C_R   0.429336 0.583699 0.174497 0.171539
C8    C     C_R   0.431053 0.583275 0.080718 0.088435
C9    C     C_R   0.492663 0.500480 0.045302 0.034227
C10   C     C_R   0.550975 0.418867 0.103004 0.126146
C11   C     C_R   0.374562 0.664278 0.021952 -0.175371
C12   C     C_R   0.377526 0.662700 0.929368 -0.199888
C13   C     C_R   0.437708 0.580831 0.894374 0.141171
C14   C     C_R   0.496024 0.499104 0.952160 0.024203
C15   C     C_R   0.557643 0.416120 0.916844 0.028481
C16   C     C_R   0.613704 0.334970 0.975556 -0.126361
C17   C     C_R   0.609966 0.336300 0.067898 -0.193874
C18   C     C_R   0.440674 0.579555 0.802221 -0.324379
C19   C     C_R   0.502066 0.498792 0.768092 -0.131921
C20   C     C_R   0.560829 0.416648 0.823606 0.312262
H1    H     H_    0.592059 0.358287 0.240193 0.148982
H2    H     H_    0.328564 0.729567 0.047135 0.190128
H3    H     H_    0.333152 0.725830 0.885145 0.153108
H4    H     H_    0.395729 0.641560 0.756660 0.147349
H5    H     H_    0.660932 0.270124 0.951097 0.211113
H6    H     H_    0.653926 0.272962 0.112005 0.162062
C21   C     C_R   0.732348 0.048530 0.523850 -0.237947
H7    H     H_    0.756894 0.855899 0.462550 0.179772
H8    H     H_    0.816493 0.013381 0.544722 0.177375
C22   C     C_R   0.597735 0.199834 0.499882 -0.273770
C23   C     C_R   0.295724 0.839046 0.453228 -0.234977
C24   C     C_R   0.266101 0.944078 0.455753 -0.184096
C25   C     C_R   0.345119 0.011174 0.463712 0.291519
C26   C     C_R   0.453669 0.972724 0.454878 0.049872
C27   C     C_R   0.481021 0.866151 0.444043 -0.046086
C28   C     C_R   0.539538 0.034588 0.465058 0.015806
C29   C     C_R   0.649411 0.989101 0.486595 -0.025970
C30   C     C_R   0.673384 0.887715 0.463013 -0.247158
C31   C     C_R   0.587814 0.830950 0.430119 0.414869
C32   C     C_R   0.521139 0.139746 0.451562 0.331869
C33   C     C_R   0.705060 0.152941 0.538418 0.377657
C34   C     C_R   0.404368 0.799102 0.454551 -0.113833
H9    H     H_    0.234956 0.788972 0.457335 0.172920
H10   H     H_    0.183165 0.972761 0.460675 0.155795
C35   C     C_R   0.091779 0.340667 0.375661 0.303452
H11   H     H_    0.254758 0.336037 0.354373 0.229855
N1    N     N_R   0.222190 0.444670 0.452360 -0.140366
C36   C     C_R   0.798754 0.632624 0.606129 0.024827
C37   C     C_R   0.903659 0.663131 0.627819 0.177335
C38   C     C_R   0.984988 0.610601 0.587446 -0.249440
C39   C     C_R   0.962747 0.528812 0.526370 0.016472
C40   C     C_R   0.855303 0.502207 0.507424 0.210044
C41   C     C_R   0.042398 0.473315 0.483016 -0.067976
C42   C     C_R   0.014257 0.389673 0.423967 0.000449
C43   C     C_R   0.909873 0.358621 0.414400 0.189507
C44   C     C_R   0.830548 0.419355 0.450423 -0.169870
C45   C     C_R   0.150317 0.496944 0.496834 -0.047425
C46   C     C_R   0.195065 0.370979 0.391207 -0.039931
N2    N     N_R   0.776970 0.554790 0.547140 -0.126315
H12   H     H_    0.180494 0.555801 0.542501 0.138706
H13   H     H_    0.733221 0.670103 0.635640 0.142390
H14   H     H_    0.064987 0.635053 0.606062 0.129761
H15   H     H_    0.750215 0.398349 0.434889 0.211082
Cl1   Cl    Cl    0.426144 0.188747 0.351409 -0.605217
N3    N     N_2   0.316348 0.114303 0.488858 -0.278508
H16   H     H_    0.236243 0.143293 0.461199 0.259901
C47   C     C_3   0.345997 0.133086 0.586378 -0.740981
H17   H     H_    0.327213 0.216245 0.598908 0.264382
H18   H     H_    0.434910 0.110134 0.613150 0.248881
H19   H     H_    0.298709 0.089601 0.624031 0.232258
Cl2   Cl    Cl    0.613757 0.731483 0.354674 -0.623122
N4    N     N_2   0.890098 0.259174 0.381067 -0.247888
H20   H     H_    0.906002 0.203540 0.431967 0.261289
C48   C     C_3   0.792012 0.251283 0.312241 -0.693593
H21   H     H_    0.799968 0.175918 0.278198 0.260913
H22   H     H_    0.780861 0.312500 0.259179 0.250847
H23   H     H_    0.720230 0.255702 0.344813 0.206715
Cl3   Cl    Cl    0.064893 0.247961 0.289629 -0.573542
N5    N     N_2   0.365069 0.664239 0.211593 -0.302161
H24   H     H_    0.398722 0.685120 0.277338 0.254596
C49   C     C_3   0.250876 0.650810 0.200564 -0.735232
H25   H     H_    0.242185 0.583161 0.241044 0.259515
H26   H     H_    0.213065 0.640262 0.127123 0.247225
H27   H     H_    0.206159 0.720028 0.225467 0.248042
N6    N     N_2   0.931068 0.742901 0.691756 -0.303554
H28   H     H_    0.002576 0.772309 0.689662 0.227604
C50   C     C_3   0.844816 0.817658 0.711754 -0.756053
H29   H     H_    0.881247 0.877547 0.757185 0.258724
H30   H     H_    0.791966 0.780581 0.748728 0.246254
H31   H     H_    0.795352 0.855098 0.647412 0.236323
Cl4   Cl    Cl    0.634361 0.314449 0.774399 -0.581910
Cl5   Cl    Cl    0.808102 0.220131 0.601695 -0.569468

loop_
_geom_bond_atom_site_label_1
_geom_bond_atom_site_label_2
_geom_bond_distance
_ccdc_geom_bond_type
C8    C11   1.404932 A    
C23   C24   1.385919 A    
C9    C10   1.408937 A    
C48   H23   1.110015 S    
N3    H16   1.031671 S    
C50   H29   1.110654 S    
C47   H17   1.110634 S    
C33   Cl5   1.761571 S    
Zn1   O7    2.011608 S    
Zn2   N2    2.040664 S    
C18   C19   1.389305 A    
C48   H22   1.110451 S    
C32   Cl1   1.772801 S    
O4    C2    1.297857 A    
C21   C33   1.397554 A    
O7    C4    1.293278 A    
C36   H13   1.079475 S    
C38   H14   1.076378 S    
C5    C6    1.385186 A    
C8    C9    1.418360 A    
C31   Cl2   1.757552 S    
C35   Cl3   1.766332 S    
C39   C41   1.427290 A    
O5    C3    1.311166 A    
C3    C22   1.458025 S    
N6    H28   1.031812 S    
C6    C7    1.406738 A    
C13   C14   1.410638 A    
N5    C49   1.447442 S    
C23   C34   1.399923 A    
H7    C30   1.084213 S    
C18   H4    1.086067 S    
C37   C38   1.401228 A    
C11   C12   1.387634 A    
C37   N6    1.432037 S    
N1    C45   1.348783 A    
O3    Zn1   2.000836 S    
C50   H30   1.109868 S    
C26   C28   1.416738 A    
C35   C46   1.381928 A    
C47   H18   1.110797 S    
C25   N3    1.424508 S    
C5    C10   1.378855 A    
C11   H2    1.082507 S    
C41   C45   1.406169 A    
C40   C44   1.397440 A    
C7    N5    1.428680 S    
C48   H21   1.109805 S    
O3    C2    1.296305 A    
C49   H25   1.110783 S    
C27   C34   1.421468 A    
C15   C16   1.404361 A    
H11   C46   1.077450 S    
C44   H15   1.060876 S    
C40   N2    1.367265 A    
C38   C39   1.415514 A    
O1    C1    1.314072 A    
C25   C26   1.430637 A    
C19   C20   1.399329 A    
C49   H26   1.110661 S    
C29   C30   1.386156 A    
C27   C31   1.424760 A    
Zn2   O8    2.000836 S    
C35   C42   1.420296 A    
C7    C8    1.401870 A    
C16   C17   1.386393 A    
C13   C18   1.381242 A    
C14   C15   1.419437 A    
N3    C47   1.446836 S    
C23   H9    1.083297 S    
C30   C31   1.389323 A    
O8    C4    1.302361 A    
C43   C44   1.393382 A    
N4    C48   1.442320 S    
C4    C6    1.423854 S    
C21   C29   1.400039 A    
C24   C25   1.398161 A    
N1    C46   1.346317 A    
C50   H31   1.108841 S    
C26   C27   1.415106 A    
C47   H19   1.111412 S    
C15   C20   1.398382 A    
Zn1   O5    1.934790 S    
C12   H3    1.084048 S    
C28   C29   1.409124 A    
O1    Zn1   1.967155 S    
O2    Zn2   1.934791 S    
O6    C3    1.301946 A    
O4    Zn2   2.011608 S    
C1    C34   1.470522 S    
N6    C50   1.448128 S    
C36   N2    1.355942 A    
C5    H1    1.079194 S    
C10   C17   1.396807 A    
C17   H6    1.083618 S    
C22   C33   1.416864 A    
C28   C32   1.382402 A    
C45   H12   1.075276 S    
C42   C43   1.405283 A    
C9    C14   1.397148 A    
C36   C37   1.401541 A    
C21   H8    1.083902 S    
C24   H10   1.083332 S    
C49   H27   1.110702 S    
C43   N4    1.424747 S    
C22   C32   1.398764 A    
C20   Cl4   1.774831 S    
O2    C1    1.304039 A    
C39   C40   1.411560 A    
C41   C42   1.431184 A    
C16   H5    1.081516 S    
C2    C19   1.420499 S    
Zn2   O6    1.967156 S    
N4    H20   1.030897 S    
C12   C13   1.397398 A    
N5    H24   1.029370 S    
Zn1   N1    2.053023 S    
