data_mof_unit_43076.cif
_audit_creation_date              2012-12-10T16:52:37-0500
_audit_creation_method            fapswitch 2.2
_symmetry_space_group_name_H-M    P1
_symmetry_Int_Tables_number       1
_space_group_crystal_system       triclinic
_cell_length_a                    7.839901
_cell_length_b                    8.569283
_cell_length_c                    13.795286
_cell_angle_alpha                 93.318066
_cell_angle_beta                  93.176974
_cell_angle_gamma                 94.245924
_cell_volume                      921.045688734

loop_
_atom_site_label
_atom_site_type_symbol
_atom_type_description
_atom_site_fract_x
_atom_site_fract_y
_atom_site_fract_z
_atom_type_partial_charge
C1    C     C_R   0.045183 0.794677 0.497549 0.964583
C2    C     C_R   0.936224 0.486107 0.318114 0.866341
C3    C     C_R   0.092443 0.517827 0.787016 -0.058706
C4    C     C_R   0.899336 0.452554 0.214657 -0.069219
C5    C     C_R   0.033892 0.620537 0.947196 -0.189782
C6    C     C_R   0.920201 0.285155 0.069677 -0.191158
C7    C     C_R   0.985794 0.595478 0.848585 -0.194839
C8    C     C_R   0.986135 0.342126 0.161905 -0.189966
C9    C     C_R   0.237866 0.454192 0.824824 -0.275257
C10   C     C_R   0.752182 0.509220 0.174473 -0.278136
C11   C     C_R   0.288176 0.476266 0.923440 0.087147
C12   C     C_R   0.954798 0.205315 0.502379 0.965822
C13   C     C_R   0.673035 0.440594 0.087919 0.091646
C14   C     C_R   0.187752 0.566899 0.984202 0.179643
C15   C     C_R   0.762512 0.331708 0.032968 0.174126
C16   C     C_R   0.442793 0.421261 0.961048 0.062549
C17   C     C_R   0.507102 0.476858 0.055503 0.062515
C18   C     C_R   0.401538 0.562930 0.115562 -0.236738
C19   C     C_R   0.535082 0.312894 0.907447 -0.230425
C20   C     C_R   0.243978 0.605913 0.080369 -0.222220
C21   C     C_R   0.691740 0.268323 0.943435 -0.225621
C22   C     C_2   0.068621 0.958444 0.496090 -0.387917
C23   C     C_2   0.931336 0.041543 0.503739 -0.385347
C24   C     C_R   0.063101 0.510861 0.682005 0.867802
H1    H     H_    0.698005 0.603014 0.214925 0.149666
H2    H     H_    0.802050 0.989953 0.511042 0.179010
H3    H     H_    0.167396 0.672820 0.128200 0.149945
H4    H     H_    0.757668 0.183813 0.900950 0.146637
H5    H     H_    0.487096 0.374474 0.427632 0.189494
H6    H     H_    0.512900 0.625570 0.572334 0.188745
H7    H     H_    0.316488 0.396782 0.774319 0.158990
H8    H     H_    0.100778 0.296569 0.193031 0.159634
H9    H     H_    0.870792 0.643505 0.819853 0.157842
H10   H     H_    0.954307 0.686430 0.993741 0.140744
H11   H     H_    0.988591 0.200477 0.028863 0.138366
H12   H     H_    0.434679 0.594982 0.191331 0.157110
H13   H     H_    0.486268 0.255250 0.838926 0.148065
H14   H     H_    0.197904 0.010035 0.488778 0.179178
N1    N     N_2   0.440860 0.456490 0.474790 -0.174655
N2    N     N_2   0.559140 0.543510 0.525210 -0.173912
O1    O     O_R   0.891570 0.738930 0.506190 -0.611461
O2    O     O_R   0.108430 0.261070 0.493810 -0.611953
O3    O     O_R   0.174650 0.711050 0.490030 -0.625060
O4    O     O_R   0.825350 0.288950 0.509970 -0.624261
O5    O     O_R   0.909850 0.521900 0.644940 -0.615936
O6    O     O_R   0.090150 0.478100 0.355060 -0.618977
O7    O     O_R   0.192930 0.494020 0.628780 -0.622110
O8    O     O_R   0.807070 0.505980 0.371220 -0.617009
Zn1   Zn    Zn3+2 0.810990 0.518620 0.510790 0.934369
Zn2   Zn    Zn3+2 0.189010 0.481380 0.489210 0.930699

loop_
_geom_bond_atom_site_label_1
_geom_bond_atom_site_label_2
_ccdc_geom_bond_type
O4    Zn1   S    
C2    C4    S    
O3    Zn2   S    
C3    C9    A    
C20   H3    S    
O5    Zn1   S    
C9    C11   A    
C11   C16   A    
O6    Zn2   S    
C18   C20   A    
C13   C17   A    
C4    C8    A    
C5    H10   S    
H5    N1    S    
C17   C18   A    
C5    C14   A    
H6    N2    S    
C1    C22   S    
C12   O4    A    
C2    O6    A    
C7    H9    S    
C12   C23   S    
C3    C24   S    
O2    Zn2   S    
C16   C19   A    
C6    C8    A    
C24   O5    A    
C10   H1    S    
O1    Zn1   S    
O8    Zn1   S    
C19   C21   A    
C21   H4    S    
O7    Zn2   S    
C3    C7    A    
C13   C15   A    
C11   C14   A    
C9    H7    S    
C4    C10   A    
N2    Zn1   S    
C8    H8    S    
C14   C20   A    
C15   C21   A    
N1    Zn2   S    
C6    H11   S    
C23   H2    S    
C1    O1    A    
N1    N2    D    
C5    C7    A    
C22   C23   D    
C12   O2    A    
C19   H13   S    
C2    O8    A    
C6    C15   A    
C24   O7    A    
C18   H12   S    
C1    O3    A    
C16   C17   A    
C10   C13   A    
C22   H14   S    
