data_mof_unit_8278.cif
_audit_creation_date              2012-12-10T17:03:42-0500
_audit_creation_method            fapswitch 2.2
_symmetry_space_group_name_H-M    P1
_symmetry_Int_Tables_number       1
_space_group_crystal_system       triclinic
_cell_length_a                    10.026973
_cell_length_b                    10.745951
_cell_length_c                    13.113167
_cell_angle_alpha                 90.632738
_cell_angle_beta                  69.413102
_cell_angle_gamma                 90.164006
_cell_volume                      1322.62382042

loop_
_atom_site_label
_atom_site_type_symbol
_atom_type_description
_atom_site_fract_x
_atom_site_fract_y
_atom_site_fract_z
_atom_type_partial_charge
C1    C     C_R   0.500251 0.737366 0.499959 0.990132
C2    C     C_R   0.431439 0.516528 0.985104 0.080621
C3    C     C_R   0.453305 0.560862 0.879603 0.005730
C4    C     C_R   0.541435 0.534041 0.028596 0.042253
C5    C     C_R   0.663028 0.607000 0.972198 -0.093075
C6    C     C_R   0.668040 0.668123 0.877535 -0.199262
C7    C     C_R   0.562277 0.649232 0.833596 0.359738
C8    C     C_R   0.533410 0.480872 0.126918 -0.275469
C9    C     C_R   0.759271 0.572577 0.116212 0.376894
C10   C     C_R   0.365905 0.514269 0.823733 -0.089930
C11   C     C_2   0.617728 0.066935 0.488545 -0.140472
C12   C     C_R   0.420170 0.505901 0.704653 0.923486
C13   C     C_2   0.507298 0.131362 0.482314 -0.332204
C14   C     C_2   0.619392 0.932908 0.481585 -0.101871
C15   C     C_2   0.497879 0.869213 0.505943 -0.266980
C16   C     C_2   0.107834 0.440481 0.427899 -0.106855
C17   C     C_2   0.956474 0.436177 0.430705 -0.129583
C18   C     C_R   0.501513 0.262683 0.496438 0.928291
C19   C     C_R   0.580249 0.499028 0.294950 0.898928
C20   C     C_R   0.773951 0.621635 0.014405 0.389380
C21   C     C_R   0.631638 0.510552 0.176194 -0.256672
C22   C     C_R   0.237318 0.454791 0.881538 -0.127846
C23   C     C_R   0.202198 0.431274 0.991726 -0.077704
C24   C     C_R   0.299828 0.457601 0.042653 -0.147363
H1    H     H_    0.420327 0.088882 0.463592 0.152352
H2    H     H_    0.721947 0.886389 0.459390 0.184090
H3    H     H_    0.393539 0.912447 0.534150 0.153308
H4    H     H_    0.187238 0.389968 0.362468 0.151445
H5    H     H_    0.073072 0.542230 0.563616 0.173054
H6    H     H_    0.934230 0.377859 0.370545 0.147113
H7    H     H_    0.873455 0.558161 0.553047 0.184763
H8    H     H_    0.751407 0.734427 0.838690 0.225431
H9    H     H_    0.446342 0.420874 0.170855 0.166633
H10   H     H_    0.166925 0.421684 0.840608 0.162337
H11   H     H_    0.267620 0.433284 0.127407 0.122115
H12   H     H_    0.102359 0.386090 0.036447 0.141165
H13   H     H_    0.708741 0.112408 0.499548 0.181272
N1    N     N_2   0.148270 0.498670 0.498870 -0.184539
N2    N     N_2   0.852610 0.498640 0.498840 -0.180398
O1    O     O_R   0.386950 0.680940 0.500020 -0.611357
O2    O     O_R   0.613110 0.680900 0.499980 -0.571881
O3    O     O_R   0.330780 0.500000 0.653640 -0.605458
O4    O     O_R   0.556930 0.499960 0.653610 -0.587482
O5    O     O_R   0.386890 0.319100 0.500020 -0.615750
O6    O     O_R   0.613050 0.319060 0.499980 -0.615491
O7    O     O_R   0.443070 0.500040 0.346390 -0.609024
O8    O     O_R   0.669220 0.500000 0.346360 -0.614306
Zn1   Zn    Zn3+2 0.349000 0.500030 0.500020 0.971396
Zn2   Zn    Zn3+2 0.651000 0.499970 0.499980 0.985156
O9    O     O_3   0.867862 0.591851 0.156116 -0.702545
H14   H     H_    0.878199 0.515017 0.193644 0.334236
Cl1   Cl    Cl    0.933016 0.701760 0.942160 -0.565530
Cl2   Cl    Cl    0.555234 0.756975 0.735629 -0.622267

loop_
_geom_bond_atom_site_label_1
_geom_bond_atom_site_label_2
_ccdc_geom_bond_type
H5    N1    S    
C16   H4    S    
C2    C4    A    
C23   C24   A    
C18   O6    A    
C6    C7    A    
C1    C15   S    
C18   O5    A    
C9    C20   A    
N1    Zn1   S    
O6    Zn2   S    
C4    C8    A    
C9    C21   A    
O9    H14   S    
C19   O7    A    
C20   Cl1   S    
C3    C10   A    
O3    Zn1   S    
C10   C22   A    
C17   H6    S    
C11   C13   D    
C13   H1    S    
C16   C17   S    
C10   C12   S    
C13   C18   S    
O2    Zn2   S    
C19   C21   S    
H7    N2    S    
C2    C3    A    
C12   O4    A    
C3    C7    A    
C8    H9    S    
C2    C24   A    
C5    C6    A    
C22   H10   S    
C11   C14   S    
C5    C20   A    
C24   H11   S    
C7    Cl2   S    
O7    Zn1   S    
O8    Zn2   S    
C23   H12   S    
C17   N2    D    
C19   O8    A    
C1    O2    A    
C11   H13   S    
O1    Zn1   S    
C14   C15   D    
O4    Zn2   S    
C12   O3    A    
C1    O1    A    
N2    Zn2   S    
C22   C23   A    
C15   H3    S    
C14   H2    S    
C9    O9    S    
O5    Zn1   S    
C16   N1    D    
C4    C5    A    
C6    H8    S    
C8    C21   A    
