data_mof_unit_55953.cif
_audit_creation_date              2012-12-10T19:41:49-0500
_audit_creation_method            fapswitch 2.2
_symmetry_space_group_name_H-M    P1
_symmetry_Int_Tables_number       1
_space_group_crystal_system       triclinic
_cell_length_a                    18.369491
_cell_length_b                    18.332481
_cell_length_c                    18.30897
_cell_angle_alpha                 120.048647
_cell_angle_beta                  89.934091
_cell_angle_gamma                 120.050429
_cell_volume                      4355.78245162

loop_
_atom_site_label
_atom_site_type_symbol
_atom_type_description
_atom_site_fract_x
_atom_site_fract_y
_atom_site_fract_z
_atom_type_partial_charge
C1    C     C_R   0.139810 0.779695 0.139675 0.821905
C2    C     C_R   0.794377 0.108194 0.802464 -0.179889
C3    C     C_R   0.723228 0.053250 0.826129 0.339758
C4    C     C_R   0.858193 0.219882 0.859817 0.829625
C5    C     C_R   0.669579 0.944410 0.771166 0.466147
C6    C     C_R   0.688663 0.891339 0.694699 -0.206115
C7    C     C_R   0.749682 0.946911 0.666667 -0.143998
C8    C     C_3   0.823331 0.942255 0.634679 0.415460
C9    C     C_3   0.879674 0.060183 0.691407 0.283577
C10   C     C_R   0.757784 0.543837 0.205356 0.050877
C11   C     C_R   0.799799 0.494489 0.191258 -0.167465
C12   C     C_R   0.593669 0.491762 0.794462 -0.186602
C13   C     C_R   0.782436 0.437692 0.227026 -0.219307
C14   C     C_R   0.734645 0.442517 0.286312 0.430847
C15   C     C_R   0.697284 0.499255 0.305169 -0.273587
C16   C     C_R   0.139970 0.502152 0.859966 0.788747
C17   C     C_R   0.706762 0.545368 0.260741 0.120209
C18   C     C_3   0.740240 0.654350 0.298656 0.260464
C19   C     C_3   0.795749 0.652190 0.236979 -0.521991
C20   C     C_R   0.173655 0.947388 0.182680 -0.196726
C21   C     C_R   0.196894 0.891086 0.194269 -0.221147
C22   C     C_R   0.281968 0.944939 0.254953 0.458293
C23   C     C_R   0.668070 0.493299 0.772361 0.102787
C24   C     C_R   0.338802 0.052857 0.305155 0.295332
C25   C     C_R   0.306948 0.108272 0.303040 -0.160423
C26   C     C_R   0.225267 0.052556 0.239197 -0.140883
C27   C     C_3   0.148545 0.060348 0.236448 0.339332
C28   C     C_R   0.859600 0.499552 0.139577 0.835085
C29   C     C_3   0.089087 0.941721 0.168378 0.832393
C30   C     C_R   0.287200 0.577673 0.236780 -0.042286
C31   C     C_R   0.195132 0.505483 0.201857 -0.012609
C32   C     C_R   0.156898 0.442175 0.232163 -0.213981
C33   C     C_R   0.211501 0.443838 0.286977 -0.201492
C34   C     C_R   0.721941 0.490656 0.825148 0.091368
C35   C     C_R   0.305218 0.509932 0.313450 -0.089651
C36   C     C_R   0.341658 0.583797 0.294080 -0.111832
C37   C     C_3   0.420661 0.633871 0.266485 0.825002
C38   C     C_3   0.356025 0.621628 0.200261 0.164888
C39   C     C_R   0.277432 0.525521 0.831726 0.014457
C40   C     C_R   0.139920 0.499960 0.140110 0.828305
C41   C     C_R   0.197047 0.510371 0.805313 -0.160482
C42   C     C_R   0.174822 0.503919 0.726864 0.435178
C43   C     C_R   0.228224 0.499365 0.672127 -0.220568
C44   C     C_R   0.303995 0.504178 0.695666 -0.104854
C45   C     C_R   0.796572 0.492216 0.803907 -0.074286
C46   C     C_R   0.328627 0.519671 0.776548 0.041320
C47   C     C_3   0.343760 0.455167 0.792651 0.305862
C48   C     C_3   0.292100 0.467252 0.857393 -0.434467
C49   C     C_R   0.641796 0.501400 0.361702 0.805490
C50   C     C_R   0.359859 0.500344 0.639897 0.804472
C51   C     C_R   0.639991 0.779925 0.639963 0.843692
C52   C     C_R   0.858558 0.498462 0.859935 0.779829
C53   C     C_R   0.360360 0.219994 0.360648 0.873657
C54   C     C_R   0.360282 0.501605 0.361294 0.795348
C55   C     C_R   0.637600 0.497756 0.640365 0.783473
C56   C     C_R   0.812887 0.487779 0.727786 -0.205216
C57   C     C_R   0.697675 0.482433 0.895516 -0.189329
C58   C     C_R   0.624814 0.482178 0.916204 -0.140870
C59   C     C_R   0.573476 0.487649 0.866386 -0.145975
C60   C     C_3   0.272102 0.862281 0.320089 0.116217
C61   C     C_3   0.342804 0.926744 0.410582 -0.309483
C62   C     C_3   0.304681 0.890935 0.469445 -1.009260
C63   C     C_3   0.073364 0.120348 0.323231 0.088243
C64   C     C_3   0.124630 0.237670 0.376709 -0.318823
C65   C     C_3   0.061855 0.270643 0.384671 -0.955493
C66   C     C_3   0.940430 0.809926 0.140351 0.203181
C67   C     C_R   0.759301 0.487895 0.674936 -0.198168
C68   C     C_3   0.883164 0.848228 0.139578 -0.424722
C69   C     C_3   0.790648 0.759457 0.069349 -0.888973
C70   C     C_3   0.066717 0.852302 0.012030 0.003585
C71   C     C_3   0.001375 0.804323 0.924111 -0.294974
C72   C     C_3   0.017454 0.736892 0.843586 -0.954472
C73   C     C_3   0.541984 0.768464 0.403906 0.191363
C74   C     C_3   0.513339 0.800737 0.487111 -0.398044
C75   C     C_3   0.499625 0.884427 0.511001 -0.817375
C76   C     C_3   0.409495 0.476440 0.162591 0.126781
C77   C     C_3   0.450782 0.426378 0.173592 -0.321236
C78   C     C_R   0.688628 0.493385 0.697391 -0.072384
C79   C     C_3   0.393701 0.309853 0.103086 -1.002625
C80   C     C_3   0.352977 0.327866 0.677575 0.067848
C81   C     C_3   0.297765 0.222957 0.587196 -0.321738
C82   C     C_3   0.356535 0.190680 0.543405 -0.900086
C83   C     C_3   0.518069 0.845375 0.741363 0.111178
C84   C     C_3   0.491428 0.920738 0.777394 -0.329649
C85   C     C_3   0.395655 0.867558 0.724181 -0.975319
C86   C     C_3   0.838213 0.810905 0.599575 0.070492
C87   C     C_3   0.862024 0.767408 0.640468 -0.295369
C88   C     C_3   0.838704 0.660668 0.568783 -1.007999
C89   C     C_R   0.800727 0.052932 0.718872 -0.084247
H1    H     H_    0.868947 0.486802 0.710334 0.174024
H2    H     H_    0.085256 0.387943 0.210310 0.179529
H3    H     H_    0.180061 0.389829 0.304839 0.175524
H4    H     H_    0.369834 0.695040 0.214986 0.144935
H5    H     H_    0.607549 0.476607 0.970627 0.146672
H6    H     H_    0.210486 0.492153 0.611283 0.175664
H7    H     H_    0.415163 0.493349 0.825688 0.047078
H8    H     H_    0.229153 0.393601 0.837600 0.219082
H9    H     H_    0.334830 0.517495 0.928423 0.173465
H10   H     H_    0.516706 0.486519 0.882934 0.127839
H11   H     H_    0.549281 0.491801 0.756212 0.142193
H12   H     H_    0.808727 0.906955 0.561401 -0.037880
H13   H     H_    0.774620 0.486396 0.617228 0.166805
H14   H     H_    0.988817 0.181328 0.789287 0.323052
H15   H     H_    0.747405 0.447030 0.392827 0.345972
H16   H     H_    0.699383 0.734142 0.302548 0.331788
H17   H     H_    0.246423 0.779967 0.286379 0.156966
H18   H     H_    0.214197 0.866911 0.330864 0.094956
H19   H     H_    0.399454 0.920443 0.399693 0.241823
H20   H     H_    0.368528 0.009076 0.445699 0.258715
H21   H     H_    0.248756 0.898326 0.481963 0.275077
H22   H     H_    0.357438 0.939559 0.534729 0.276894
H23   H     H_    0.897458 0.092592 0.651276 0.043932
H24   H     H_    0.280347 0.809200 0.436696 0.268872
H25   H     H_    0.465105 0.133346 0.336931 0.367800
H26   H     H_    0.029131 0.093163 0.358288 0.171641
H27   H     H_    0.028884 0.082729 0.256013 0.117065
H28   H     H_    0.164850 0.273176 0.444838 0.261843
H29   H     H_    0.170414 0.265937 0.343224 0.239910
H30   H     H_    0.022144 0.237714 0.317281 0.264311
H31   H     H_    0.101469 0.356168 0.424368 0.273215
H32   H     H_    0.016066 0.244278 0.419060 0.279262
H33   H     H_    0.909361 0.757494 0.161686 0.156472
H34   H     H_    0.812040 0.396058 0.215095 0.206791
H35   H     H_    0.940008 0.761828 0.072056 0.180931
H36   H     H_    0.876411 0.885336 0.206702 0.217354
H37   H     H_    0.915416 0.906472 0.124416 0.253682
H38   H     H_    0.796048 0.722879 0.001500 0.272723
H39   H     H_    0.750593 0.789316 0.070580 0.273904
H40   H     H_    0.755568 0.700464 0.083393 0.259028
H41   H     H_    0.056866 0.788588 0.014182 0.152824
H42   H     H_    0.136082 0.899393 0.013968 0.160061
H43   H     H_    0.931943 0.756303 0.921466 0.225300
H44   H     H_    0.009067 0.866570 0.920712 0.237687
H45   H     H_    0.779226 0.709276 0.371563 0.074423
H46   H     H_    0.085719 0.783919 0.843542 0.268558
H47   H     H_    0.968421 0.702444 0.780928 0.269773
H48   H     H_    0.009479 0.673601 0.845263 0.251836
H49   H     H_    0.608718 0.836027 0.420364 0.134017
H50   H     H_    0.552370 0.708281 0.388037 0.198174
H51   H     H_    0.450834 0.733018 0.476631 0.212275
H52   H     H_    0.566088 0.831843 0.544735 0.193436
H53   H     H_    0.560659 0.952166 0.519621 0.260642
H54   H     H_    0.484611 0.909897 0.574561 0.233381
H55   H     H_    0.442608 0.853262 0.457453 0.288690
H56   H     H_    0.773698 0.655470 0.182901 0.215135
H57   H     H_    0.407565 0.462971 0.096127 0.186521
H58   H     H_    0.339904 0.437272 0.162493 0.148950
H59   H     H_    0.518256 0.460305 0.167380 0.266079
H60   H     H_    0.457843 0.441675 0.240810 0.241496
H61   H     H_    0.326508 0.273772 0.109488 0.270556
H62   H     H_    0.425975 0.276339 0.112697 0.274243
H63   H     H_    0.386717 0.292101 0.034866 0.275395
H64   H     H_    0.383959 0.585785 0.091530 0.334944
H65   H     H_    0.084555 0.530088 0.753386 0.330010
H66   H     H_    0.390687 0.324286 0.721768 0.148089
H67   H     H_    0.868773 0.705555 0.273557 0.175258
H68   H     H_    0.400299 0.386230 0.666112 0.117010
H69   H     H_    0.247889 0.163742 0.596511 0.235160
H70   H     H_    0.261506 0.226960 0.542236 0.245035
H71   H     H_    0.407082 0.248732 0.533392 0.267360
H72   H     H_    0.314115 0.115187 0.477391 0.272813
H73   H     H_    0.390982 0.182484 0.585648 0.260641
H74   H     H_    0.725142 0.171012 0.917693 0.324960
H75   H     H_    0.469133 0.777811 0.741709 0.170652
H76   H     H_    0.513107 0.814726 0.670069 0.074307
H77   H     H_    0.497637 0.952168 0.848828 0.260255
H78   H     H_    0.732715 0.473393 0.934078 0.156153
H79   H     H_    0.536698 0.985941 0.772714 0.215978
H80   H     H_    0.387925 0.835628 0.652475 0.264766
H81   H     H_    0.378730 0.924321 0.750807 0.273960
H82   H     H_    0.348565 0.803962 0.730051 0.271511
H83   H     H_    0.880253 0.823331 0.557485 0.128789
H84   H     H_    0.766731 0.753946 0.556780 0.142840
H85   H     H_    0.934651 0.820644 0.678628 0.236310
H86   H     H_    0.824944 0.761648 0.687578 0.232030
H87   H     H_    0.765342 0.604612 0.535550 0.259062
H88   H     H_    0.862157 0.634505 0.600262 0.267809
H89   H     H_    0.155388 0.105697 0.209823 0.051617
H90   H     H_    0.871233 0.662778 0.518010 0.263779
O1    O     O_3   0.000000 0.500000 0.000000 -0.491063
O2    O     O_R   0.323450 0.268330 0.384170 -0.633534
O3    O     O_R   0.444860 0.560620 0.384150 -0.664585
O4    O     O_R   0.055050 0.731580 0.115780 -0.661912
O5    O     O_R   0.615780 0.439200 0.555040 -0.628541
O6    O     O_R   0.323420 0.439190 0.384160 -0.662312
O7    O     O_R   0.615760 0.560630 0.676470 -0.649256
O8    O     O_R   0.615740 0.731500 0.676460 -0.593117
O9    O     O_R   0.444900 0.268330 0.384170 -0.635080
O10   O     O_R   0.615750 0.560630 0.384150 -0.635203
O11   O     O_R   0.323430 0.439200 0.555040 -0.656840
O12   O     O_R   0.055090 0.439280 0.823480 -0.634550
O13   O     O_R   0.884220 0.268410 0.823490 -0.650323
O14   O     O_R   0.176520 0.560720 0.944920 -0.619244
O15   O     O_R   0.884200 0.439290 0.115800 -0.647313
O16   O     O_R   0.176530 0.560720 0.115800 -0.618287
O17   O     O_R   0.884180 0.560710 0.944910 -0.678962
O18   O     O_R   0.055100 0.439290 0.115810 -0.652182
O19   O     O_R   0.884190 0.439280 0.823480 -0.632026
O20   O     O_3   0.951951 0.106463 0.763248 -0.686352
O21   O     O_3   0.730777 0.396145 0.327910 -0.725147
O22   O     O_3   0.671760 0.659848 0.274464 -0.720192
O23   O     O_R   0.884180 0.560710 0.115790 -0.655982
O24   O     O_3   0.311395 0.893186 0.265206 -0.591837
O25   O     O_3   0.421389 0.102065 0.361871 -0.737799
O26   O     O_3   0.133992 0.093602 0.319813 -0.599233
O27   O     O_3   0.027428 0.892953 0.203101 -0.639461
O28   O     O_3   0.050842 0.916601 0.084125 -0.724691
O29   O     O_3   0.482677 0.741882 0.331720 -0.672207
O30   O     O_3   0.464934 0.584451 0.229769 -0.627567
O31   O     O_3   0.335226 0.548846 0.109509 -0.784347
O32   O     O_3   0.102401 0.500998 0.700808 -0.755959
O33   O     O_3   0.294892 0.351401 0.716477 -0.611179
O34   O     O_R   0.176500 0.731590 0.115790 -0.610211
O35   O     O_3   0.704036 0.101829 0.901560 -0.721817
O36   O     O_3   0.603169 0.891804 0.797074 -0.580256
O37   O     O_3   0.854747 0.905566 0.669432 -0.563800
O38   O     O_R   0.884220 0.268420 0.944930 -0.615060
O39   O     O_3   0.499960 0.499910 0.499960 -0.485107
O40   O     O_R   0.615770 0.439200 0.384160 -0.618367
O41   O     O_R   0.444870 0.560630 0.676470 -0.653217
O42   O     O_R   0.615730 0.731500 0.555020 -0.699750
Zn1   Zn    Zn3+2 0.956630 0.413250 0.869870 0.966674
Zn2   Zn    Zn3+2 0.130130 0.586750 0.043370 0.993076
Zn3   Zn    Zn3+2 0.956630 0.413250 0.043380 0.983061
Zn4   Zn    Zn3+2 0.956610 0.586750 0.043370 0.910122
Zn5   Zn    Zn3+2 0.543330 0.586660 0.630080 0.970957
Zn6   Zn    Zn3+2 0.543320 0.586660 0.456570 0.922994
Zn7   Zn    Zn3+2 0.369830 0.413160 0.456580 0.931139
Zn8   Zn    Zn3+2 0.543350 0.413170 0.456590 0.980795

loop_
_geom_bond_atom_site_label_1
_geom_bond_atom_site_label_2
_ccdc_geom_bond_type
C76   O30   S    
C66   C68   S    
C83   H75   S    
C1    C21   S    
C81   H70   S    
C27   C29   S    
C59   H10   S    
C41   C42   A    
C4    O13   A    
C63   O26   S    
C35   C36   A    
C52   O17   A    
C27   H89   S    
C87   C88   S    
O18   Zn3   S    
C61   H20   S    
O4    Zn4   S    
H65   O32   S    
C81   C82   S    
C1    O4    A    
C7    C8    S    
C39   C41   A    
C3    O35   S    
C48   H8    S    
C83   H76   S    
C12   C23   A    
C26   C27   S    
C85   H82   S    
C20   C26   A    
C22   O24   S    
C49   O40   A    
C86   H83   S    
O15   Zn3   S    
C36   C37   S    
O19   Zn1   S    
C53   O9    A    
C25   C53   S    
O5    Zn8   S    
H64   O31   S    
C13   H34   S    
H74   O35   S    
O3    Zn6   S    
C72   H47   S    
C32   H2    S    
C49   O10   A    
C73   H49   S    
C10   C17   A    
C7    C89   A    
O1    Zn4   S    
C70   H41   S    
C64   H29   S    
C31   C40   S    
C30   C38   S    
O1    Zn2   S    
C15   C17   A    
C18   C19   S    
C73   C74   S    
C55   O7    A    
C87   H86   S    
C61   H19   S    
C16   O14   A    
C71   H43   S    
C46   C47   S    
C12   C59   A    
H16   O22   S    
C84   C85   S    
C62   H22   S    
C83   C84   S    
C76   H58   S    
C8    C9    S    
C54   O6    A    
C62   H21   S    
C34   C57   A    
C28   O15   A    
C47   H7    S    
C66   H33   S    
O1    Zn1   S    
C70   C71   S    
C65   H32   S    
C6    C51   S    
C18   O22   S    
C77   H59   S    
C8    H12   S    
C19   H56   S    
C66   H35   S    
C80   O33   S    
C63   H26   S    
O38   Zn3   S    
C56   H1    S    
C80   H68   S    
C13   C14   A    
C35   C54   S    
C19   H67   S    
H15   O21   S    
O10   Zn6   S    
C67   C78   A    
O40   Zn8   S    
O39   Zn7   S    
C25   C26   A    
C44   C46   A    
O23   Zn4   S    
C20   C29   S    
C77   C79   S    
O2    Zn7   S    
C74   C75   S    
C88   H88   S    
C51   O8    A    
C24   C25   A    
C45   C56   A    
C62   H24   S    
C75   H55   S    
C33   H3    S    
C9    C89   S    
C55   C78   S    
C86   C87   S    
C68   C69   S    
C72   H46   S    
C47   O33   S    
C82   H73   S    
C45   C52   S    
C3    C5    A    
C70   O28   S    
O6    Zn7   S    
C14   O21   S    
C85   H80   S    
C29   O27   S    
C60   C61   S    
C27   O26   S    
C2    C89   A    
C2    C4    S    
C43   C44   A    
O39   Zn8   S    
C37   C38   S    
O11   Zn7   S    
C16   O12   A    
C53   O2    A    
C82   H71   S    
C60   O24   S    
C43   H6    S    
C47   C48   S    
O7    Zn5   S    
C10   C19   S    
C55   O5    A    
C23   C34   A    
C20   C21   A    
C54   O3    A    
C17   C18   S    
C65   H30   S    
O41   Zn5   S    
C9    O20   S    
C34   C45   A    
H14   O20   S    
C38   O31   S    
O12   Zn1   S    
C37   O30   S    
C60   H18   S    
C75   H54   S    
C39   C46   A    
C63   H27   S    
C72   H48   S    
C73   O29   S    
C79   H61   S    
C1    O34   A    
C37   O29   S    
C22   C24   A    
C52   O19   A    
C42   C43   A    
C77   H60   S    
O9    Zn8   S    
C68   H37   S    
O39   Zn6   S    
C60   H17   S    
C88   H90   S    
C79   H62   S    
C44   C50   S    
O8    Zn5   S    
C87   H85   S    
O17   Zn4   S    
C24   O25   S    
C81   H69   S    
C74   H52   S    
C31   C32   A    
C80   C81   S    
C8    O37   S    
C88   H87   S    
C71   H44   S    
C83   O36   S    
C6    C7    A    
C57   H78   S    
C82   H72   S    
C56   C67   A    
C73   H50   S    
O42   Zn6   S    
C85   H81   S    
C29   O28   S    
C30   C36   A    
C86   H84   S    
C28   O23   A    
C64   C65   S    
C2    C3    A    
C58   C59   A    
O13   Zn1   S    
C71   C72   S    
C69   H39   S    
C32   C33   A    
C75   H53   S    
O16   Zn2   S    
C76   C77   S    
C11   C13   A    
C30   C31   A    
C57   C58   A    
C5    C6    A    
C74   H51   S    
C11   C28   S    
C51   O42   A    
C66   O27   S    
C16   C41   S    
C38   H4    S    
C50   O41   A    
C70   H42   S    
C33   C35   A    
C65   H31   S    
O1    Zn3   S    
C18   H45   S    
H25   O25   S    
C48   H9    S    
C15   C49   S    
C23   C78   A    
C58   H5    S    
C61   C62   S    
C50   O11   A    
C86   O37   S    
C12   H11   S    
C84   H77   S    
C10   C11   A    
C64   H28   S    
C76   H57   S    
C63   C64   S    
C9    H23   S    
O14   Zn2   S    
C84   H79   S    
C69   H38   S    
C69   H40   S    
C4    O38   A    
C40   O18   A    
C80   H66   S    
C14   C15   A    
C39   C48   S    
C21   C22   A    
C68   H36   S    
O39   Zn5   S    
C42   O32   S    
O34   Zn2   S    
C67   H13   S    
C79   H63   S    
C40   O16   A    
C5    O36   S    
