data_mof_unit_59496.cif
_audit_creation_date              2012-12-10T18:57:12-0500
_audit_creation_method            fapswitch 2.2
_symmetry_space_group_name_H-M    P1
_symmetry_Int_Tables_number       1
_space_group_crystal_system       triclinic
_cell_length_a                    8.792298
_cell_length_b                    10.82378
_cell_length_c                    9.609392
_cell_angle_alpha                 89.475988
_cell_angle_beta                  97.621913
_cell_angle_gamma                 91.561956
_cell_volume                      906.055935122

loop_
_atom_site_label
_atom_site_type_symbol
_atom_type_description
_atom_site_fract_x
_atom_site_fract_y
_atom_site_fract_z
_atom_type_partial_charge
C1    C     C_R   0.497151 0.262509 0.499975 0.857568
C2    C     C_R   0.562464 0.597489 0.933768 0.071294
C3    C     C_3   0.727362 0.641751 0.958305 0.110353
C4    C     C_R   0.204209 0.497916 0.464639 0.904899
C5    C     C_3   0.709936 0.658737 0.111649 0.119297
C6    C     C_R   0.496472 0.737392 0.499198 0.799648
C7    C     C_R   0.795055 0.495893 0.535454 0.821798
C8    C     C_2   0.039056 0.503804 0.447722 -0.431115
C9    C     C_2   0.957621 0.477166 0.553629 0.259241
C10   C     C_R   0.502366 0.062334 0.624409 0.099901
C11   C     C_R   0.483109 0.129014 0.498811 -0.059783
C12   C     C_R   0.441265 0.935428 0.371754 -0.108482
C13   C     C_R   0.442465 0.064542 0.372137 -0.158070
C14   C     C_R   0.480752 0.870251 0.497962 -0.060206
C15   C     C_R   0.498714 0.935271 0.624066 0.042393
C16   C     C_3   0.620581 0.927764 0.747376 -0.476346
C17   C     C_3   0.626824 0.068083 0.746952 0.250738
C18   C     C_R   0.554239 0.601044 0.079552 0.169652
C19   C     C_R   0.430601 0.407626 0.068468 -0.045348
C20   C     C_R   0.429632 0.407038 0.921053 0.505194
Cl1   Cl    Cl    0.338834 0.277037 0.836511 -0.529853
Cl2   Cl    Cl    0.859756 0.522350 0.943939 -0.497877
Cl3   Cl    Cl    0.702522 0.817453 0.158224 -0.621504
Cl4   Cl    Cl    0.032273 0.401536 0.709685 -0.372255
Cl5   Cl    Cl    0.805143 0.129864 0.703130 -0.476312
Cu1   Cu    Cu3+1 0.499990 0.499980 0.640670 1.089662
Cu2   Cu    Cu3+1 0.500010 0.500020 0.359330 1.005850
H1    H     H_    0.983982 0.538202 0.347830 0.161312
H2    H     H_    0.751738 0.727884 0.901454 0.155563
H3    H     H_    0.417799 0.113333 0.273149 0.176652
H4    H     H_    0.415642 0.887414 0.272718 0.201809
H5    H     H_    0.574340 0.888392 0.840880 0.205315
H6    H     H_    0.788710 0.604469 0.186384 0.177695
H7    H     H_    0.726247 0.884383 0.720878 0.228199
H8    H     H_    0.589741 0.108797 0.842204 0.175312
H9    H     H_    0.376823 0.331703 0.119309 0.172153
N1    N     N_R   0.500980 0.500930 0.148050 -0.230770
N2    N     N_R   0.500990 0.500890 0.852140 -0.200295
O1    O     O_R   0.500000 0.319640 0.618810 -0.522251
O2    O     O_R   0.500020 0.319680 0.381230 -0.606380
O3    O     O_R   0.274830 0.499980 0.591380 -0.515341
O4    O     O_R   0.274850 0.500020 0.353800 -0.578385
O5    O     O_R   0.499980 0.680320 0.618770 -0.597256
O6    O     O_R   0.500000 0.680360 0.381190 -0.559398
O7    O     O_R   0.725150 0.499980 0.646200 -0.499187
O8    O     O_R   0.725170 0.500020 0.408620 -0.615086

loop_
_geom_bond_atom_site_label_1
_geom_bond_atom_site_label_2
_ccdc_geom_bond_type
C9    Cl4   S    
C16   H5    S    
C20   N2    A    
C19   N1    A    
C2    N2    A    
C19   C20   A    
C5    Cl3   S    
Cu2   O2    S    
C4    C8    S    
C17   Cl5   S    
C1    O2    A    
C2    C3    S    
C19   H9    S    
C6    C14   S    
C6    O6    A    
C20   Cl1   S    
C11   C13   A    
Cu2   O4    S    
Cu1   Cu2   S    
C16   C17   S    
C4    O4    A    
Cu2   N1    S    
C7    O7    A    
Cu2   O8    S    
C18   N1    A    
C12   C14   A    
Cu1   O5    S    
C6    O5    A    
C12   H4    S    
C8    H1    S    
Cu1   O1    S    
C2    C18   A    
C4    O3    A    
C1    O1    A    
C10   C17   S    
C15   C16   S    
C7    O8    A    
C13   H3    S    
C12   C13   A    
C7    C9    S    
C10   C11   A    
C3    H2    S    
C14   C15   A    
Cu1   N2    S    
C3    Cl2   S    
C5    C18   S    
C17   H8    S    
Cu1   O7    S    
C16   H7    S    
C10   C15   A    
Cu2   O6    S    
Cu1   O3    S    
C5    H6    S    
C8    C9    D    
C3    C5    S    
C1    C11   S    
