data_mof_unit_26155.cif
_audit_creation_date              2013-03-05T15:55:56-0500
_audit_creation_method            fapswitch 2.2
_symmetry_space_group_name_H-M    P1
_symmetry_Int_Tables_number       1
_space_group_crystal_system       triclinic
_cell_length_a                    21.863592
_cell_length_b                    7.321437
_cell_length_c                    15.009068
_cell_angle_alpha                 89.892006
_cell_angle_beta                  106.779924
_cell_angle_gamma                 90.736006
_cell_volume                      2300.05259596

loop_
_atom_site_label
_atom_site_type_symbol
_atom_site_description
_atom_site_fract_x
_atom_site_fract_y
_atom_site_fract_z
_atom_type_partial_charge
O1    O     O_R   0.335860 0.638190 0.002110 -0.577790
O2    O     O_R   0.664140 0.361810 0.997890 -0.567530
O3    O     O_R   0.164140 0.138190 0.997890 -0.584017
O4    O     O_R   0.835860 0.861810 0.002110 -0.547419
O5    O     O_R   0.217530 0.305920 0.861960 -0.596551
O6    O     O_R   0.782470 0.694080 0.138040 -0.588307
O7    O     O_R   0.282470 0.805920 0.138040 -0.596817
O8    O     O_R   0.717530 0.194080 0.861960 -0.579917
C1    C     C_R   0.204334 0.476159 0.826535 1.062815
C2    C     C_R   0.794639 0.523293 0.173833 1.084908
C3    C     C_R   0.295126 0.976835 0.173619 1.056240
C4    C     C_R   0.705319 0.023046 0.826322 1.081727
O9    O     O_R   0.338690 0.308320 0.993240 -0.530392
O10   O     O_R   0.661310 0.691680 0.006760 -0.545807
O11   O     O_R   0.161310 0.808320 0.006760 -0.531991
O12   O     O_R   0.838690 0.191680 0.993240 -0.521655
O13   O     O_R   0.286170 0.140430 0.130100 -0.558110
O14   O     O_R   0.713830 0.859570 0.869900 -0.563400
O15   O     O_R   0.213830 0.640430 0.869900 -0.555714
O16   O     O_R   0.786170 0.359570 0.130100 -0.560841
C5    C     C_R   0.363489 0.479408 0.991418 1.068822
C6    C     C_R   0.635319 0.522606 0.002004 1.086523
C7    C     C_R   0.137814 0.977497 0.010391 1.078849
C8    C     C_R   0.865753 0.023325 0.998291 1.098189
O17   O     O_3   0.232630 0.472410 0.044750 -0.263031
O18   O     O_3   0.767370 0.527590 0.955250 -0.259786
O19   O     O_3   0.267370 0.972410 0.955250 -0.264899
O20   O     O_3   0.732630 0.027590 0.044750 -0.279853
V1    V     V_3+5 0.253220 0.196620 0.991700 1.372360
V2    V     V_3+5 0.746780 0.803380 0.008300 1.391777
V3    V     V_3+5 0.246780 0.696620 0.008300 1.376774
V4    V     V_3+5 0.753220 0.303380 0.991700 1.406910
C9    C     C_R   0.041738 0.851987 0.058857 0.260103
C10   C     C_R   0.972173 0.155962 0.979881 0.287963
C11   C     C_R   0.458249 0.364725 0.934285 0.265189
C12   C     C_R   0.536196 0.649023 0.036386 0.276658
C13   C     C_R   0.974708 0.861815 0.043211 0.243047
C14   C     C_R   0.038485 0.155646 0.996435 0.203617
C15   C     C_R   0.524675 0.378858 0.939889 0.271693
C16   C     C_R   0.468913 0.655534 0.016188 0.226587
C17   C     C_R   0.938032 0.011693 0.003438 -0.417632
C18   C     C_R   0.072284 0.992421 0.022111 -0.436840
C19   C     C_R   0.564945 0.513581 0.995613 -0.456357
C20   C     C_R   0.430895 0.497550 0.980892 -0.434414
C21   C     C_R   0.680072 0.016646 0.723724 -0.397933
C22   C     C_R   0.326298 0.982080 0.275134 -0.391588
C23   C     C_R   0.819497 0.516801 0.276766 -0.405981
C24   C     C_R   0.171753 0.478888 0.725453 -0.395846
C25   C     C_R   0.686291 0.145841 0.578039 -0.263654
C26   C     C_R   0.325389 0.851670 0.422893 -0.250576
C27   C     C_R   0.813999 0.644503 0.422813 -0.266663
C28   C     C_R   0.170562 0.345513 0.577689 -0.250872
C29   C     C_R   0.716541 0.096561 0.669962 0.314536
C30   C     C_R   0.291909 0.923304 0.336335 0.332719
C31   C     C_R   0.783911 0.598033 0.330356 0.313879
C32   C     C_R   0.204957 0.422054 0.662975 0.335886
C33   C     C_R   0.615933 0.961404 0.680849 0.267851
C34   C     C_R   0.393371 0.005898 0.308852 0.220044
C35   C     C_R   0.882145 0.455118 0.320681 0.263941
C36   C     C_R   0.104574 0.497236 0.693619 0.223117
C37   C     C_R   0.587252 0.994854 0.583696 -0.069731
C38   C     C_R   0.425916 0.965015 0.403467 -0.051868
C39   C     C_R   0.910793 0.487421 0.418218 -0.077146
C40   C     C_R   0.071102 0.453921 0.599419 -0.053725
C41   C     C_R   0.621137 0.107392 0.536268 0.074639
C42   C     C_R   0.392443 0.861117 0.454466 0.062661
C43   C     C_R   0.878218 0.602004 0.465447 0.072144
C44   C     C_R   0.103559 0.350812 0.547758 0.059750
C45   C     C_R   0.524190 0.932883 0.533927 0.049373
C46   C     C_R   0.491196 0.015030 0.447989 0.056864
C47   C     C_R   0.972705 0.422589 0.468715 0.047996
C48   C     C_R   0.006330 0.503848 0.555173 0.054349
C49   C     C_R   0.523127 0.151624 0.411906 -0.092244
C50   C     C_R   0.493361 0.788595 0.566443 -0.094037
C51   C     C_R   0.975870 0.640913 0.591515 -0.100286
C52   C     C_R   0.001978 0.277191 0.436324 -0.100851
C53   C     C_R   0.588360 0.187332 0.450167 0.206136
C54   C     C_R   0.427219 0.763708 0.533725 0.178966
C55   C     C_R   0.911357 0.679539 0.552423 0.209261
C56   C     C_R   0.067875 0.252084 0.468852 0.189340
H1    H     H_    0.714175 0.218061 0.539984 0.181524
H2    H     H_    0.298606 0.789892 0.465691 0.189742
H3    H     H_    0.786702 0.717316 0.460702 0.182487
H4    H     H_    0.196586 0.285074 0.534122 0.190440
H5    H     H_    0.497568 0.234046 0.353795 0.169194
H6    H     H_    0.520129 0.698323 0.620177 0.172869
H7    H     H_    0.002108 0.722657 0.650014 0.171361
H8    H     H_    0.974294 0.186285 0.382924 0.167894
N1    N     N_R   0.077912 0.715233 0.121559 0.286562
O21   O     O_R   0.139083 0.735073 0.158757 -0.306934
O22   O     O_R   0.048896 0.594459 0.158955 -0.237010
N2    N     N_R   0.943213 0.321719 0.971424 0.274983
O23   O     O_R   0.935591 0.372254 0.050363 -0.278191
O24   O     O_R   0.901240 0.357193 0.892101 -0.261530
N3    N     N_R   0.418050 0.232069 0.871647 0.283146
O25   O     O_R   0.357462 0.260072 0.835505 -0.320747
O26   O     O_R   0.442515 0.095406 0.839275 -0.235569
N4    N     N_R   0.574745 0.773234 0.103816 0.278969
O27   O     O_R   0.597402 0.922104 0.077335 -0.275516
O28   O     O_R   0.573071 0.760703 0.189453 -0.255159
N5    N     N_R   0.940279 0.704541 0.046923 0.288569
O29   O     O_R   0.905042 0.651649 0.965380 -0.285701
O30   O     O_R   0.920526 0.678303 0.120006 -0.322055
N6    N     N_R   0.072107 0.328330 0.009822 0.267115
O31   O     O_R   0.052783 0.462728 0.952359 -0.306823
O32   O     O_R   0.115942 0.359510 0.088036 -0.278088
N7    N     N_R   0.550571 0.265788 0.882525 0.273423
O33   O     O_R   0.573140 0.106633 0.912733 -0.278981
O34   O     O_R   0.562970 0.335758 0.809766 -0.364020
N8    N     N_R   0.439272 0.831686 0.011761 0.265945
O35   O     O_R   0.467902 0.965793 0.064657 -0.276353
O36   O     O_R   0.393531 0.872338 0.937600 -0.289416
C57   C     C_3   0.620597 0.321257 0.400811 -0.752598
H9    H     H_    0.659867 0.252867 0.381143 0.259042
H10   H     H_    0.587023 0.374886 0.335933 0.276162
H11   H     H_    0.640112 0.439531 0.446946 0.231368
C58   C     C_3   0.395507 0.627333 0.582065 -0.691854
H12   H     H_    0.369445 0.522342 0.531481 0.234753
H13   H     H_    0.430628 0.556224 0.639737 0.267176
H14   H     H_    0.361658 0.698658 0.612291 0.275847
C59   C     C_3   0.880521 0.814545 0.601797 -0.766936
H15   H     H_    0.839831 0.747922 0.620016 0.261268
H16   H     H_    0.914341 0.865871 0.667531 0.272221
H17   H     H_    0.863265 0.934191 0.556294 0.231610
C60   C     C_3   0.098358 0.115122 0.420406 -0.711848
H18   H     H_    0.124145 0.011554 0.471121 0.234267
H19   H     H_    0.062439 0.042202 0.363521 0.260256
H20   H     H_    0.132288 0.186032 0.389066 0.276928
N9    N     N_R   0.428962 0.033621 0.243289 0.226268
O37   O     O_R   0.418086 0.174080 0.187956 -0.385564
O38   O     O_R   0.476100 0.926145 0.244663 -0.315982
N10   N     N_R   0.577592 0.902959 0.739247 0.236563
O39   O     O_R   0.523739 0.982737 0.733242 -0.289037
O40   O     O_R   0.592509 0.757436 0.790395 -0.375584
N11   N     N_R   0.070135 0.527006 0.760373 0.228953
O41   O     O_R   0.081889 0.671699 0.813082 -0.384289
O42   O     O_R   0.022873 0.418527 0.762225 -0.335483
N12   N     N_R   0.919349 0.388678 0.263137 0.241491
O43   O     O_R   0.973936 0.465934 0.266890 -0.289272
O44   O     O_R   0.903031 0.237226 0.216641 -0.390927
N13   N     N_R   0.223307 0.930613 0.310258 0.250284
O45   O     O_R   0.193451 0.057089 0.253807 -0.383549
O46   O     O_R   0.191179 0.829365 0.352816 -0.358824
N14   N     N_R   0.783670 0.136723 0.709389 0.244679
O47   O     O_R   0.819209 0.030121 0.772290 -0.420376
O48   O     O_R   0.811020 0.267528 0.675394 -0.356856
N15   N     N_R   0.273311 0.438104 0.686163 0.250915
O49   O     O_R   0.303048 0.570344 0.739925 -0.384403
O50   O     O_R   0.304998 0.338450 0.643435 -0.362403
N16   N     N_R   0.717480 0.639078 0.290713 0.244619
O51   O     O_R   0.680813 0.529134 0.229630 -0.426912
O52   O     O_R   0.691627 0.770719 0.324862 -0.346238

loop_
_geom_bond_atom_site_label_1
_geom_bond_atom_site_label_2
_geom_bond_distance
_ccdc_geom_bond_type
C34   C38   1.425827 A    
O1    C5    1.347889 A    
N5    O29   1.300412 A    
O19   V1    1.789920 S    
O13   V1    2.035574 S    
C33   N10   1.437924 S    
O3    C7    1.339690 A    
N3    O25   1.297202 A    
O15   V3    2.033416 S    
N6    O32   1.301732 A    
N11   O41   1.301119 A    
O7    C3    1.354948 A    
C55   C59   1.512960 S    
C21   C33   1.417583 A    
C26   C30   1.398897 A    
C7    C18   1.498404 S    
C25   C41   1.405788 A    
C9    C18   1.414299 A    
C40   C44   1.417166 A    
O9    V1    2.024151 S    
N15   O50   1.301861 A    
C14   C18   1.406855 A    
N13   O46   1.301866 A    
C47   C52   1.406510 A    
O4    C8    1.352895 A    
C56   C60   1.509345 S    
C34   N9    1.432619 S    
O1    V3    2.027523 S    
C28   H4    1.081434 S    
C38   C46   1.433358 A    
O2    V4    2.027521 S    
C25   H1    1.081246 S    
O3    V1    2.016862 S    
N8    O35   1.298604 A    
C59   H17   1.110664 S    
C14   N6    1.439085 S    
C1    O15   1.353412 A    
N15   O49   1.301946 A    
C2    O16   1.352434 A    
N10   O39   1.300698 A    
O2    C6    1.352258 A    
C60   H20   1.109851 S    
N7    O33   1.300170 A    
O14   V2    2.035575 S    
N1    O22   1.299499 A    
C52   H8    1.078543 S    
C28   C44   1.403833 A    
C57   H11   1.110646 S    
O11   C7    1.354180 A    
C21   C29   1.409589 A    
O12   C8    1.366616 A    
N11   O42   1.301817 A    
C22   C34   1.415017 A    
C8    C17   1.563143 S    
N7    O34   1.301438 A    
C10   C17   1.388737 A    
O10   V2    2.024147 S    
C48   C51   1.406067 A    
C53   C57   1.512582 S    
N6    O31   1.299108 A    
C24   C36   1.415366 A    
O5    V1    2.043031 S    
C42   C54   1.410803 A    
C39   C43   1.422186 A    
O7    V3    2.038047 S    
C38   C42   1.416698 A    
O8    V4    2.038048 S    
C12   C16   1.415055 A    
C54   C58   1.507971 S    
C41   C53   1.413984 A    
N14   O48   1.301786 A    
C58   H14   1.109436 S    
O18   V4    1.780716 S    
C4    C21   1.478856 S    
C16   N8    1.443597 S    
C35   N12   1.435828 S    
C9    C13   1.418448 A    
C11   C15   1.432690 A    
O5    C1    1.355579 A    
C9    N1    1.449364 S    
C5    C20   1.530953 S    
C6    C19   1.514309 S    
O8    C4    1.355326 A    
C22   C30   1.408266 A    
C46   C49   1.406821 A    
N2    O24   1.304279 A    
O9    C5    1.361890 A    
C45   C50   1.406473 A    
C27   C43   1.403344 A    
C50   H6    1.079427 S    
C33   C37   1.433218 A    
C11   C20   1.432403 A    
C26   C42   1.405357 A    
C36   N11   1.434909 S    
C49   H5    1.078147 S    
C59   H15   1.110387 S    
N12   O44   1.301091 A    
C51   H7    1.077266 S    
O6    V2    2.043030 S    
C39   C47   1.433474 A    
N4    O28   1.299408 A    
C60   H18   1.110529 S    
N16   O52   1.301633 A    
C44   C56   1.410312 A    
C27   H3    1.081218 S    
C26   H2    1.081376 S    
C31   N16   1.437153 S    
C23   C31   1.407497 A    
C57   H9    1.110381 S    
O16   V4    2.033415 S    
C37   C45   1.433657 A    
C24   C32   1.407762 A    
C3    O13   1.352340 A    
C10   C14   1.398496 A    
O17   V3    1.780716 S    
C52   C56   1.395799 A    
N14   O47   1.301327 A    
C3    C22   1.479002 S    
O6    C2    1.358826 A    
C15   C19   1.415364 A    
N3    O26   1.299596 A    
O11   V3    2.043416 S    
C11   N3    1.450525 S    
O12   V4    2.043420 S    
C35   C39   1.435069 A    
N5    O30   1.302779 A    
C36   C40   1.425975 A    
C29   N14   1.441808 S    
O10   C6    1.348764 A    
C32   N15   1.436545 S    
C58   H13   1.111187 S    
N9    O37   1.301080 A    
C47   C48   1.420964 A    
C58   H12   1.110462 S    
C13   N5    1.377436 S    
C25   C29   1.395894 A    
O20   V2    1.789920 S    
N2    O23   1.298342 A    
C27   C31   1.393966 A    
C40   C48   1.431610 A    
C13   C17   1.395429 A    
C45   C46   1.420138 A    
C15   N7    1.429464 S    
N8    O36   1.300522 A    
C59   H16   1.111034 S    
N12   O43   1.300543 A    
C23   C35   1.417029 A    
C37   C41   1.421639 A    
C16   C20   1.425766 A    
C30   N13   1.438303 S    
C1    C24   1.478455 S    
N10   O40   1.300821 A    
N4    O27   1.299812 A    
C50   C54   1.396101 A    
C4    O14   1.351823 A    
C2    C23   1.483236 S    
C60   H19   1.111079 S    
C49   C53   1.396557 A    
N16   O51   1.301151 A    
C12   C19   1.411852 A    
C12   N4    1.432785 S    
C57   H10   1.111072 S    
N1    O21   1.298344 A    
N13   O45   1.301782 A    
C51   C55   1.394818 A    
C43   C55   1.413311 A    
O4    V2    2.016864 S    
C28   C32   1.397923 A    
N9    O38   1.300094 A    
C10   N2    1.364752 S    
