data_mof_unit_57469.cif
_audit_creation_date              2012-12-11T16:31:32-0500
_audit_creation_method            fapswitch 2.2
_symmetry_space_group_name_H-M    P1
_symmetry_Int_Tables_number       1
_space_group_crystal_system       triclinic
_cell_length_a                    6.943622
_cell_length_b                    18.039531
_cell_length_c                    20.446439
_cell_angle_alpha                 68.443302
_cell_angle_beta                  90.874725
_cell_angle_gamma                 90.691701
_cell_volume                      2381.64078914

loop_
_atom_site_label
_atom_site_type_symbol
_atom_type_description
_atom_site_fract_x
_atom_site_fract_y
_atom_site_fract_z
_atom_type_partial_charge
O1    O     O_R   0.488990 0.443920 0.942160 -0.533744
O2    O     O_R   0.823840 0.406530 0.087600 -0.528025
O3    O     O_R   0.999650 0.556080 0.057840 -0.524400
C1    C     C_R   0.655404 0.379940 0.112662 0.755508
O4    O     O_R   0.818390 0.434590 0.944530 -0.526148
O5    O     O_R   0.994160 0.584350 0.913750 -0.531833
C2    C     C_R   0.649127 0.423234 0.921855 0.772962
O6    O     O_R   0.494480 0.415650 0.086250 -0.539720
O7    O     O_3   0.662600 0.549100 0.990070 -0.365966
V1    V     V_3+5 0.935320 0.490890 0.001840 1.532909
O8    O     O_R   0.324240 0.593470 0.912400 -0.546125
C3    C     C_R   0.154247 0.619751 0.886933 0.667615
O9    O     O_R   0.329690 0.565410 0.055470 -0.550098
C4    C     C_R   0.162996 0.575930 0.078838 0.725323
V2    V     V_3+5 0.435990 0.509110 0.998160 1.485231
O10   O     O_3   0.158840 0.450900 0.009930 -0.358722
C5    C     C_3   0.083104 0.650134 0.286113 -0.334752
C6    C     C_3   0.339446 0.743654 0.215412 -0.327102
C7    C     C_3   0.328546 0.792700 0.263995 -0.393029
H1    H     H_    0.186411 0.673286 0.378394 0.142065
H2    H     H_    0.188091 0.600635 0.307447 0.159240
H3    H     H_    0.385387 0.783411 0.161992 0.174713
H4    H     H_    0.450815 0.696636 0.236247 0.166779
H5    H     H_    0.436444 0.769689 0.307408 0.192070
H6    H     H_    0.367498 0.855954 0.233473 0.160589
C8    C     C_1   0.110013 0.873747 0.379115 -0.150416
C9    C     C_3   0.141501 0.704895 0.210703 0.188976
C10   C     C_3   0.076353 0.698018 0.335973 0.173307
C11   C     C_3   0.123546 0.787864 0.294822 0.189228
C12   C     C_3   0.980274 0.820989 0.231834 -0.323463
C13   C     C_3   0.990117 0.772253 0.182991 -0.285561
C14   C     C_1   0.115957 0.835142 0.341316 -0.020189
C15   C     C_1   0.151045 0.658609 0.163517 -0.044102
C16   C     C_1   0.157445 0.620901 0.124994 -0.119120
H7    H     H_    0.845693 0.746197 0.179885 0.155886
H8    H     H_    0.027632 0.812814 0.128818 0.199523
H9    H     H_    0.830692 0.819354 0.251020 0.179292
H10   H     H_    0.940486 0.622391 0.283917 0.181139
H11   H     H_    0.015177 0.884576 0.200966 0.158514
H12   H     H_    0.186499 0.517359 0.698733 0.180207
C17   C     C_R   0.098140 0.793520 0.873784 -0.078417
C18   C     C_R   0.072364 0.874116 0.865140 0.331326
C19   C     C_R   0.064403 0.932597 0.798672 -0.173378
C20   C     C_R   0.081270 0.912784 0.739938 -0.208516
C21   C     C_R   0.106566 0.832933 0.745649 0.076203
C22   C     C_R   0.117130 0.770599 0.813801 -0.038913
C23   C     C_R   0.120053 0.815920 0.683624 -0.147404
C24   C     C_R   0.141186 0.736434 0.688268 0.057480
C25   C     C_R   0.151744 0.673316 0.755209 0.081909
C26   C     C_R   0.142433 0.689402 0.818296 -0.157807
C27   C     C_R   0.149991 0.718298 0.626657 -0.152905
C28   C     C_R   0.166439 0.639914 0.630702 -0.028727
C29   C     C_R   0.175173 0.578156 0.695813 -0.056714
C30   C     C_R   0.169120 0.594195 0.757362 -0.171495
H13   H     H_    0.045647 0.994417 0.792290 0.153501
H14   H     H_    0.073709 0.961629 0.689635 0.126704
H15   H     H_    0.142776 0.764370 0.574726 0.100751
H16   H     H_    0.171744 0.627014 0.583061 0.169228
H17   H     H_    0.176752 0.543555 0.806444 0.109993
H18   H     H_    0.839525 0.486107 0.287997 0.147335
C31   C     C_R   0.594077 0.208361 0.129945 0.224072
C32   C     C_R   0.511690 0.135086 0.136448 -0.062557
C33   C     C_R   0.454654 0.081909 0.201402 -0.178237
C34   C     C_R   0.489463 0.099548 0.261092 -0.155529
C35   C     C_R   0.567963 0.174341 0.256540 0.057878
C36   C     C_R   0.603744 0.233127 0.188659 0.012500
C37   C     C_R   0.616657 0.189213 0.318481 -0.150725
C38   C     C_R   0.678169 0.268010 0.312714 -0.035716
C39   C     C_R   0.692079 0.329017 0.244028 0.073222
C40   C     C_R   0.652107 0.312391 0.182434 -0.144386
C41   C     C_R   0.724374 0.290069 0.372142 -0.089850
C42   C     C_R   0.784450 0.368534 0.362208 0.332844
C43   C     C_R   0.796033 0.425762 0.295335 -0.176854
C44   C     C_R   0.748985 0.407055 0.237416 -0.211971
H19   H     H_    0.502009 0.117130 0.091432 0.178333
H20   H     H_    0.394293 0.024535 0.206167 0.131516
H21   H     H_    0.453944 0.053203 0.310606 0.129433
H22   H     H_    0.759429 0.455488 0.187070 0.125537
O11   O     O_R   0.770890 0.084490 0.414040 -0.526028
O12   O     O_R   0.445980 0.065450 0.555510 -0.545793
O13   O     O_R   0.270670 0.915620 0.586180 -0.539670
C45   C     C_R   0.614858 0.076276 0.578712 0.735788
O14   O     O_R   0.441480 0.093500 0.412450 -0.545149
O15   O     O_R   0.266140 0.943870 0.442100 -0.542334
C46   C     C_R   0.610217 0.119730 0.387099 0.671909
O16   O     O_R   0.775410 0.056240 0.558120 -0.519686
O17   O     O_3   0.602660 0.950990 0.510100 -0.371123
V3    V     V_3+5 0.329740 0.009100 0.498130 1.461820
O18   O     O_R   0.936120 0.934420 0.444240 -0.534135
C47   C     C_R   0.103676 0.920170 0.424006 0.710868
O19   O     O_R   0.940610 0.906370 0.587310 -0.540753
C48   C     C_R   0.110030 0.882179 0.613755 0.683183
V4    V     V_3+5 0.829110 0.990690 0.501470 1.493645
O20   O     O_3   0.106080 0.049010 0.489880 -0.353422
C49   C     C_3   0.840450 0.236134 0.715818 -0.297993
C50   C     C_3   0.502688 0.280887 0.677475 -0.284566
C51   C     C_3   0.497770 0.329416 0.726568 0.156246
H23   H     H_    0.894811 0.270759 0.662299 0.225893
H24   H     H_    0.353519 0.261943 0.669813 0.148916
H25   H     H_    0.556371 0.318706 0.624588 0.226889
H26   H     H_    0.348886 0.326602 0.746379 0.147773
C52   C     C_1   0.639697 0.377908 0.876120 -0.083012
C53   C     C_3   0.633105 0.206732 0.708985 0.104517
C54   C     C_3   0.845535 0.285636 0.764924 -0.191798
C55   C     C_3   0.637226 0.292751 0.791052 0.049400
C56   C     C_3   0.567938 0.205265 0.832565 0.106619
C57   C     C_3   0.559366 0.156323 0.783542 -0.363405
C58   C     C_1   0.637213 0.339718 0.837987 0.026339
C59   C     C_1   0.629477 0.159242 0.662867 -0.020604
C60   C     C_1   0.624495 0.121205 0.624675 -0.118612
H27   H     H_    0.648710 0.101859 0.806882 0.169324
H28   H     H_    0.409413 0.135972 0.779303 0.192423
H29   H     H_    0.672663 0.176178 0.875987 0.169035
H30   H     H_    0.937458 0.183902 0.738226 0.142096
H31   H     H_    0.933381 0.251171 0.812005 0.145855
Br1   Br    Br    0.828264 0.682079 0.383379 -0.548839
C61   C     C_2   0.106535 0.736673 0.946338 0.430548
H32   H     H_    0.240032 0.706131 0.966813 0.023510
O21   O     O_2   0.965683 0.725869 0.983832 -0.509435
Br2   Br    Br    0.054629 0.908888 0.943350 -0.496935
Br3   Br    Br    0.741231 0.255616 0.046516 -0.543215
C62   C     C_2   0.701838 0.235585 0.445281 0.444890
H33   H     H_    0.562301 0.209089 0.463118 0.013810
O22   O     O_2   0.838569 0.221509 0.486183 -0.504194
Br4   Br    Br    0.840374 0.403591 0.438905 -0.415192
C63   C     C_2   0.949521 0.365096 0.733705 0.499861
H34   H     H_    0.978704 0.399386 0.766671 0.029568
O23   O     O_2   0.003423 0.391478 0.672801 -0.488672
Br5   Br    Br    0.542114 0.442657 0.672987 -0.501518
Br6   Br    Br    0.321367 0.199170 0.879317 -0.562869

loop_
_geom_bond_atom_site_label_1
_geom_bond_atom_site_label_2
_ccdc_geom_bond_type
O17   V3    S    
C17   C18   A    
C8    C14   T    
C63   H34   S    
C23   C48   S    
C41   C62   S    
C1    O6    A    
C1    C40   S    
C49   H23   S    
C21   C22   A    
C9    C15   S    
V4    O20   S    
C45   C60   S    
C10   C11   S    
O11   V4    S    
C11   C14   S    
C61   O21   D    
O5    C3    A    
C12   C13   S    
C56   C57   S    
C49   H30   S    
V2    O10   S    
C50   H24   S    
C50   H25   S    
H18   C43   S    
C31   Br3   S    
C6    C7    S    
C43   C44   A    
C10   Br1   S    
O13   C48   A    
O8    V2    S    
C31   C36   A    
C24   C27   A    
C38   C39   A    
C35   C37   A    
C2    C52   S    
C17   C22   A    
C52   C58   T    
C27   H15   S    
O7    V1    S    
C13   H8    S    
C51   C55   S    
O14   V3    S    
C6    H3    S    
O9    C4    A    
C31   C32   A    
O15   C47   A    
C37   C38   A    
C54   C55   S    
C49   C53   S    
C30   H17   S    
C21   C23   A    
C55   C58   S    
V3    O20   S    
C37   C46   S    
C20   C21   A    
C56   H29   S    
C9    C13   S    
C27   C28   A    
C5    C9    S    
O12   C45   A    
O18   C47   A    
O19   C48   A    
O4    C2    A    
H1    C10   S    
C45   O16   A    
C5    H2    S    
C6    H4    S    
C12   H9    S    
O2    C1    A    
C19   C20   A    
O5    V1    S    
C11   C12   S    
O16   V4    S    
O19   V4    S    
C54   H31   S    
C20   H14   S    
C23   C24   A    
C50   C51   S    
C32   C33   A    
C15   C16   T    
C39   C44   A    
C57   H28   S    
O3    C4    A    
C28   H16   S    
O1    V2    S    
C19   H13   S    
C24   C25   A    
O14   C46   A    
C35   C36   A    
O6    V2    S    
O9    V2    S    
C13   H7    S    
C32   H19   S    
C18   C19   A    
C62   O22   D    
O2    V1    S    
O11   C46   A    
C28   C29   A    
C56   Br6   S    
C63   O23   D    
O1    C2    A    
C5    C10   S    
C57   H27   S    
C6    C9    S    
O15   V3    S    
C42   C43   A    
C4    C16   S    
C3    C26   S    
O8    C3    A    
H12   C29   S    
C29   C30   A    
C8    C47   S    
C55   C56   S    
C22   C26   A    
C42   Br4   S    
C53   C59   S    
C34   C35   A    
C7    H5    S    
O7    V2    S    
C51   Br5   S    
C41   C42   A    
O12   V3    S    
O3    V1    S    
V1    O10   S    
C61   H32   S    
C49   C54   S    
C18   Br2   S    
C36   C40   A    
C38   C41   A    
O17   V4    S    
C12   H11   S    
C5    H10   S    
O18   V4    S    
C39   C40   A    
C7    H6    S    
O13   V3    S    
C33   C34   A    
O4    V1    S    
C54   C63   S    
C25   C26   A    
C44   H22   S    
C50   C53   S    
C34   H21   S    
C33   H20   S    
C53   C57   S    
C17   C61   S    
C62   H33   S    
C59   C60   T    
C51   H26   S    
C25   C30   A    
C7    C11   S    
