data_mof_unit_46187.cif
_audit_creation_date              2013-03-05T16:00:57-0500
_audit_creation_method            fapswitch 2.2
_symmetry_space_group_name_H-M    P1
_symmetry_Int_Tables_number       1
_space_group_crystal_system       triclinic
_cell_length_a                    10.658078
_cell_length_b                    14.676094
_cell_length_c                    14.695798
_cell_angle_alpha                 65.433472
_cell_angle_beta                  102.254897
_cell_angle_gamma                 102.194051
_cell_volume                      2023.33003106

loop_
_atom_site_label
_atom_site_type_symbol
_atom_site_description
_atom_site_fract_x
_atom_site_fract_y
_atom_site_fract_z
_atom_type_partial_charge
O1    O     O_R   0.454850 0.022100 0.338110 -0.610931
O2    O     O_R   0.545150 0.977900 0.661890 -0.610865
O3    O     O_R   0.512700 0.160150 0.379180 -0.558547
O4    O     O_R   0.487300 0.839850 0.620820 -0.558604
C1    C     C_R   0.482961 0.119833 0.312518 0.851963
C2    C     C_R   0.517049 0.880167 0.687482 0.851920
O5    O     O_R   0.287930 0.931000 0.479440 -0.562008
O6    O     O_R   0.712070 0.069000 0.520560 -0.562064
O7    O     O_R   0.345780 0.069050 0.520520 -0.569300
O8    O     O_R   0.654220 0.930950 0.479480 -0.569277
C3    C     C_R   0.260004 0.000652 0.500771 0.872244
C4    C     C_R   0.739996 0.999328 0.499256 0.872269
Cu1   Cu    Cu3+1 0.465750 0.918270 0.475680 1.018057
Cu2   Cu    Cu3+1 0.534250 0.081730 0.524320 1.018065
C5    C     C_3   0.018860 0.002278 0.410929 -0.262908
C6    C     C_3   0.981130 0.997658 0.589133 -0.262923
C7    C     C_3   0.960757 0.081181 0.426303 0.379417
C8    C     C_3   0.039237 0.918757 0.573758 0.379415
H1    H     H_    0.036398 0.006478 0.337370 0.193966
H2    H     H_    0.963590 0.993458 0.662691 0.193991
C9    C     C_3   0.875940 0.997504 0.499093 -0.159112
C10   C     C_3   0.124054 0.002439 0.500967 -0.159126
C11   C     C_3   0.932887 0.916376 0.485541 -0.183908
C12   C     C_3   0.067100 0.083560 0.514523 -0.183869
H3    H     H_    0.877901 0.848901 0.472555 0.226510
H4    H     H_    0.122071 0.151002 0.527568 0.226626
C13   C     C_R   0.476070 0.188551 0.205369 -0.088961
C14   C     C_R   0.523977 0.811449 0.794632 -0.088814
C15   C     C_R   0.411788 0.217690 0.028327 -0.096200
C16   C     C_R   0.588326 0.782315 0.971668 -0.096126
C17   C     C_R   0.418465 0.152158 0.129622 -0.191889
C18   C     C_R   0.581608 0.847846 0.870373 -0.192018
C19   C     C_R   0.525536 0.292175 0.178109 0.208101
C20   C     C_R   0.474535 0.707820 0.821900 0.208097
C21   C     C_R   0.491811 0.360954 0.078683 0.034288
C22   C     C_R   0.508297 0.639047 0.921320 0.034231
C23   C     C_R   0.448507 0.321876 0.002286 0.114840
C24   C     C_R   0.551621 0.678127 0.997714 0.114933
C25   C     C_R   0.504615 0.467126 0.051778 0.080124
C26   C     C_R   0.495504 0.532876 0.948225 0.080139
C27   C     C_R   0.480799 0.490707 0.875346 -0.091047
C28   C     C_R   0.519327 0.509298 0.124655 -0.091392
C29   C     C_R   0.448490 0.387088 0.901154 -0.103446
C30   C     C_R   0.551659 0.612916 0.098847 -0.103212
H5    H     H_    0.427549 0.357734 0.842144 0.162388
H6    H     H_    0.572620 0.642269 0.157858 0.162609
H7    H     H_    0.617166 0.927427 0.851549 0.180851
H8    H     H_    0.382895 0.072580 0.148440 0.181051
H9    H     H_    0.375105 0.187340 0.970463 0.169473
H10   H     H_    0.625025 0.812666 0.029529 0.169400
H11   H     H_    0.493267 0.537186 0.797597 0.174538
H12   H     H_    0.506849 0.462825 0.202403 0.174522
N1    N     N_R   0.585750 0.204560 0.560800 -0.211497
N2    N     N_R   0.414250 0.795440 0.439200 -0.211540
C31   C     C_R   0.675403 0.266111 0.691846 0.262451
C32   C     C_R   0.325181 0.733967 0.308009 0.262740
C33   C     C_R   0.652980 0.190455 0.653781 0.016147
C34   C     C_R   0.347439 0.809624 0.346073 0.015824
C35   C     C_R   0.536161 0.292533 0.502565 0.121575
C36   C     C_R   0.463653 0.707412 0.497564 0.121739
C37   C     C_R   0.546398 0.369880 0.539094 -0.059145
C38   C     C_R   0.453545 0.630057 0.461080 -0.059339
C39   C     C_R   0.630804 0.360645 0.630255 -0.124633
C40   C     C_R   0.369354 0.639326 0.369829 -0.124510
C41   C     C_R   0.479875 0.457069 0.486424 -0.039394
C42   C     C_R   0.520003 0.542841 0.513833 -0.039400
C43   C     C_R   0.628793 0.539583 0.589864 0.136242
C44   C     C_R   0.371033 0.460314 0.410440 0.136122
C45   C     C_R   0.675829 0.447724 0.652852 0.301111
C46   C     C_R   0.324096 0.552194 0.347365 0.301551
H13   H     H_    0.508971 0.697682 0.573094 0.176626
H14   H     H_    0.490592 0.302220 0.427096 0.176529
H15   H     H_    0.315022 0.881961 0.299131 0.160430
H16   H     H_    0.685680 0.118190 0.700606 0.160011
N3    N     N_R   0.913419 0.168922 0.342955 0.154026
O9    O     O_R   0.960641 0.259563 0.338741 -0.220559
O10   O     O_R   0.827970 0.156842 0.269809 -0.319369
N4    N     N_R   0.086570 0.831011 0.657099 0.154030
O11   O     O_R   0.039357 0.740373 0.661294 -0.220585
O12   O     O_R   0.172014 0.843080 0.730253 -0.319271
N5    N     N_R   0.731070 0.241530 0.795789 0.154335
O13   O     O_R   0.672959 0.258096 0.855814 -0.316857
O14   O     O_R   0.824396 0.185966 0.834606 -0.308957
N6    N     N_R   0.270380 0.758657 0.203861 0.154778
O15   O     O_R   0.178725 0.815731 0.164080 -0.310037
O16   O     O_R   0.328217 0.740770 0.144590 -0.317283
Br1   Br    Br    0.742337 0.660485 0.592539 -0.422399
Br2   Br    Br    0.257298 0.339404 0.408061 -0.422431
Br3   Br    Br    0.325508 0.667648 0.737568 -0.350631
Br4   Br    Br    0.674541 0.332326 0.262473 -0.350557
N7    N     N_R   0.784185 0.448354 0.729816 0.198600
O17   O     O_R   0.895902 0.431103 0.722752 -0.244172
O18   O     O_R   0.775381 0.477649 0.800275 -0.251933
N8    N     N_R   0.215586 0.551566 0.270501 0.198722
O19   O     O_R   0.223870 0.521666 0.200361 -0.251268
O20   O     O_R   0.104306 0.569875 0.277123 -0.245304

loop_
_geom_bond_atom_site_label_1
_geom_bond_atom_site_label_2
_geom_bond_distance
_ccdc_geom_bond_type
C6    C9    1.542546 S    
O7    Cu2   1.968716 S    
N5    O13   1.301804 A    
N1    C35   1.362417 A    
C15   H9    1.083786 S    
C13   C19   1.412662 A    
O5    C3    1.290882 A    
O1    C1    1.306247 A    
C21   C23   1.416345 A    
N6    O16   1.301545 A    
N4    O12   1.300388 A    
C16   C24   1.400648 A    
C36   C38   1.420514 A    
O4    Cu1   1.946615 S    
C37   C39   1.418220 A    
C38   C40   1.418101 A    
C5    H1    1.110312 S    
C5    C10   1.542576 S    
C2    C14   1.470955 S    
C39   C45   1.414191 A    
C31   C39   1.421911 A    
C32   C40   1.421842 A    
C40   C46   1.414119 A    
C31   N5    1.436310 S    
O6    C4    1.290909 A    
C35   H14   1.074961 S    
C5    C11   1.555753 S    
C42   C43   1.422730 A    
C16   H10   1.083785 S    
C14   C20   1.412658 A    
C6    C12   1.555731 S    
C1    C13   1.470960 S    
Cu1   Cu2   2.695060 S    
C27   C29   1.389126 A    
O2    C2    1.306244 A    
C28   C30   1.389121 A    
N5    O14   1.301831 A    
C30   H6    1.084103 S    
C32   N6    1.436580 S    
C25   C28   1.411927 A    
C35   C37   1.420621 A    
C7    C12   1.537458 S    
C38   C42   1.437304 A    
C13   C17   1.402524 A    
C8    C11   1.537472 S    
C14   C18   1.402529 A    
N6    O15   1.301424 A    
O4    C2    1.296620 A    
N7    O17   1.301649 A    
N1    C33   1.354708 A    
N4    O11   1.299493 A    
N2    C36   1.362430 A    
C36   H13   1.074929 S    
C4    C9    1.455320 S    
C7    C9    1.522765 S    
C43   C45   1.405875 A    
C33   H16   1.080422 S    
C23   C29   1.393561 A    
C21   C25   1.422578 A    
N3    O9    1.299473 A    
C24   C30   1.393556 A    
N7    O18   1.301634 A    
O7    C3    1.292120 A    
C22   C26   1.422572 A    
C6    H2    1.110312 S    
C41   C44   1.422711 A    
N8    O20   1.301420 A    
C29   H5    1.084108 S    
O3    Cu2   1.946617 S    
O8    C4    1.292068 A    
C44   C46   1.405913 A    
C8    N4    1.453829 S    
C17   H8    1.083095 S    
C9    C11   1.542554 S    
C44   Br2   1.935028 S    
C18   H7    1.083095 S    
C10   C12   1.542527 S    
O1    Cu1   1.958640 S    
C25   C26   1.418534 A    
Cu1   N2    2.024585 S    
N2    C34   1.354777 A    
C5    C7    1.534714 S    
C26   C27   1.411923 A    
O6    Cu2   1.957660 S    
C46   N8    1.436355 S    
C8    C10   1.522797 S    
C12   H4    1.106712 S    
O3    C1    1.296619 A    
O8    Cu1   1.968716 S    
C3    C10   1.455364 S    
C43   Br1   1.935236 S    
C31   C33   1.396584 A    
C20   Br3   1.944897 S    
C15   C17   1.392654 A    
C19   Br4   1.944912 S    
C16   C18   1.392653 A    
C22   C24   1.416337 A    
C19   C21   1.409605 A    
C32   C34   1.396739 A    
C20   C22   1.409596 A    
C11   H3    1.106793 S    
N8    O19   1.301519 A    
O2    Cu2   1.958640 S    
C37   C41   1.437326 A    
O5    Cu1   1.957660 S    
Cu2   N1    2.024585 S    
C6    C8    1.534716 S    
C41   C42   1.432051 A    
N3    O10   1.300389 A    
C15   C23   1.400652 A    
C7    N3    1.453833 S    
C45   N7    1.436231 S    
C27   H11   1.080075 S    
C34   H15   1.080341 S    
C28   H12   1.080068 S    
