data_mof_unit_10780.cif
_audit_creation_date              2012-12-10T16:52:09-0500
_audit_creation_method            fapswitch 2.2
_symmetry_space_group_name_H-M    P1
_symmetry_Int_Tables_number       1
_space_group_crystal_system       triclinic
_cell_length_a                    7.732255
_cell_length_b                    8.604897
_cell_length_c                    15.000508
_cell_angle_alpha                 91.059203
_cell_angle_beta                  86.177317
_cell_angle_gamma                 93.229421
_cell_volume                      994.152008985

loop_
_atom_site_label
_atom_site_type_symbol
_atom_type_description
_atom_site_fract_x
_atom_site_fract_y
_atom_site_fract_z
_atom_type_partial_charge
C1    C     C_R   0.544469 0.794289 0.496692 0.952384
C2    C     C_R   0.658509 0.558414 0.810423 0.148658
C3    C     C_R   0.491434 0.496500 0.231283 -0.105109
C4    C     C_R   0.508567 0.503492 0.768717 -0.105110
C5    C     C_R   0.640917 0.551250 0.182033 -0.325234
C6    C     C_R   0.359086 0.448737 0.817966 -0.325236
C7    C     C_R   0.645137 0.552857 0.090256 0.119141
C8    C     C_R   0.354869 0.447123 0.909743 0.119141
C9    C     C_R   0.497062 0.499231 0.046614 0.045026
C10   C     C_R   0.502945 0.500746 0.953385 0.045025
C11   C     C_R   0.343709 0.443628 0.096007 0.050389
C12   C     C_R   0.455531 0.205711 0.503308 0.952379
C13   C     C_R   0.656296 0.556352 0.903992 0.050392
C14   C     C_R   0.795878 0.608110 0.041894 -0.208878
C15   C     C_R   0.204128 0.391871 0.958105 -0.208875
C16   C     C_3   0.189141 0.217743 0.259597 -0.773343
C17   C     C_3   0.810859 0.782256 0.740415 -0.773364
C18   C     C_3   0.687405 0.004389 0.401573 -0.901674
C19   C     C_3   0.312593 0.995610 0.598426 -0.901672
C20   C     C_R   0.801489 0.610662 0.949530 -0.228337
C21   C     C_R   0.198515 0.389319 0.050470 -0.228335
C22   C     C_2   0.560074 0.954391 0.479218 -0.011755
C23   C     C_2   0.439925 0.045609 0.520782 -0.011755
C24   C     C_R   0.503237 0.502139 0.673147 0.908645
C25   C     C_R   0.496763 0.497860 0.326853 0.908640
C26   C     C_R   0.341493 0.441575 0.189577 0.148657
H1    H     H_    0.754664 0.594420 0.215519 0.169077
H2    H     H_    0.181516 0.149613 0.196208 0.236390
H3    H     H_    0.073889 0.184297 0.304702 0.230925
H4    H     H_    0.307420 0.189044 0.292743 0.235712
H5    H     H_    0.924749 0.578755 0.774659 0.218729
H6    H     H_    0.818505 0.850372 0.803805 0.236394
H7    H     H_    0.692574 0.810967 0.707281 0.235716
H8    H     H_    0.926102 0.815707 0.695304 0.230929
H9    H     H_    0.733459 0.902635 0.361871 0.236389
H10   H     H_    0.624300 0.078292 0.354671 0.232269
H11   H     H_    0.803637 0.067803 0.426926 0.262959
H12   H     H_    0.245338 0.405571 0.784480 0.169076
H13   H     H_    0.266538 0.097365 0.638127 0.236389
H14   H     H_    0.196362 0.932197 0.573072 0.262960
H15   H     H_    0.375696 0.921708 0.645328 0.232269
H16   H     H_    0.909671 0.649845 0.075611 0.150335
H17   H     H_    0.090332 0.350140 0.924389 0.150335
H18   H     H_    0.920153 0.656292 0.915009 0.161015
H19   H     H_    0.079849 0.343692 0.084990 0.161012
H20   H     H_    0.014597 0.382728 0.432742 0.203366
H21   H     H_    0.985402 0.617272 0.567258 0.203365
H22   H     H_    0.075248 0.421234 0.225336 0.218727
N1    N     N_2   0.950330 0.457950 0.475660 -0.173464
N2    N     N_2   0.049670 0.542050 0.524340 -0.173464
N3    N     N_2   0.192395 0.382737 0.242270 -0.294505
N4    N     N_2   0.807602 0.617260 0.757731 -0.294505
O1    O     O_R   0.389250 0.738570 0.505970 -0.621113
O2    O     O_R   0.610750 0.261430 0.494030 -0.621113
O3    O     O_R   0.678390 0.711620 0.490370 -0.626412
O4    O     O_R   0.321610 0.288380 0.509630 -0.626414
O5    O     O_R   0.355420 0.513510 0.639950 -0.635781
O6    O     O_R   0.644580 0.486490 0.360050 -0.635780
O7    O     O_R   0.644560 0.486560 0.624350 -0.597904
O8    O     O_R   0.355440 0.513440 0.375650 -0.597903
Zn1   Zn    Zn3+2 0.306940 0.517990 0.510420 0.942109
Zn2   Zn    Zn3+2 0.693060 0.482010 0.489580 0.942110

loop_
_geom_bond_atom_site_label_1
_geom_bond_atom_site_label_2
_ccdc_geom_bond_type
O6    Zn2   S    
C19   C23   S    
C6    H12   S    
O5    Zn1   S    
C2    N4    S    
C25   O8    A    
C8    C15   A    
C3    C26   A    
C5    C7    A    
C9    C10   A    
C2    C4    A    
C16   H2    S    
C12   C23   S    
C16   N3    S    
C15   C21   A    
H5    N4    S    
C14   H16   S    
C1    O3    A    
C15   H17   S    
C1    C22   S    
O4    Zn1   S    
C18   C22   S    
C26   N3    S    
C11   C26   A    
C9    C11   A    
H20   N1    S    
C17   H8    S    
C12   O4    A    
C17   H7    S    
C24   O7    A    
C19   H13   S    
C17   N4    S    
C4    C6    A    
C20   H18   S    
C18   H11   S    
H21   N2    S    
C21   H19   S    
H22   N3    S    
C4    C24   S    
C25   O6    A    
C16   H4    S    
O3    Zn2   S    
C14   C20   A    
C3    C25   S    
C18   H9    S    
O1    Zn1   S    
C8    C10   A    
N1    N2    D    
C19   H14   S    
C17   H6    S    
C7    C9    A    
C2    C13   A    
C1    O1    A    
C22   C23   D    
C24   O5    A    
O7    Zn2   S    
C6    C8    A    
N1    Zn2   S    
O2    Zn2   S    
C13   C20   A    
C16   H3    S    
C5    H1    S    
C18   H10   S    
N2    Zn1   S    
C11   C21   A    
C7    C14   A    
C12   O2    A    
C19   H15   S    
O8    Zn1   S    
C3    C5    A    
C10   C13   A    
