data_mof_unit_55802.cif
_audit_creation_date              2012-12-10T16:59:16-0500
_audit_creation_method            fapswitch 2.2
_symmetry_space_group_name_H-M    P1
_symmetry_Int_Tables_number       1
_space_group_crystal_system       triclinic
_cell_length_a                    7.728117
_cell_length_b                    8.534331
_cell_length_c                    27.678534
_cell_angle_alpha                 90.666543
_cell_angle_beta                  86.619596
_cell_angle_gamma                 93.673825
_cell_volume                      1818.54081114

loop_
_atom_site_label
_atom_site_type_symbol
_atom_type_description
_atom_site_fract_x
_atom_site_fract_y
_atom_site_fract_z
_atom_type_partial_charge
C1    C     C_R   0.545926 0.794859 0.498774 0.958029
C2    C     C_R   0.454088 0.205144 0.501292 0.958706
C3    C     C_R   0.494688 0.496795 0.898119 -0.059202
C4    C     C_R   0.470222 0.502325 0.101557 -0.058421
C5    C     C_R   0.605360 0.608438 0.872333 -0.012630
C6    C     C_R   0.412127 0.365716 0.127343 -0.020456
C7    C     C_R   0.706054 0.720002 0.897448 -0.163565
C8    C     C_R   0.359031 0.229916 0.102244 -0.184220
C9    C     C_R   0.394458 0.383987 0.872776 -0.110961
C10   C     C_R   0.528083 0.637597 0.126814 -0.101830
C11   C     C_R   0.511805 0.496940 0.646144 -0.271786
C12   C     C_R   0.486920 0.503917 0.353565 -0.284317
C13   C     C_R   0.543374 0.636963 0.024903 -0.062181
C14   C     C_R   0.386294 0.376580 0.974888 -0.062974
C15   C     C_R   0.401111 0.369433 0.025651 0.084895
C16   C     C_R   0.571012 0.623827 0.974098 0.090968
C17   C     C_R   0.470951 0.503257 0.050585 0.002670
C18   C     C_R   0.483497 0.499054 0.949171 0.002248
C19   C     C_R   0.586122 0.778055 0.050797 0.486899
C20   C     C_R   0.279464 0.266562 0.948875 0.516860
C21   C     C_R   0.577931 0.775516 0.101619 -0.235980
C22   C     C_R   0.283516 0.274331 0.898178 -0.221762
C23   C     C_R   0.503241 0.497572 0.593771 0.965482
C24   C     C_R   0.496679 0.502962 0.406117 0.956666
C25   C     C_R   0.689920 0.727015 0.947548 -0.155044
C26   C     C_R   0.355660 0.231190 0.052225 -0.117389
C27   C     C_2   0.570272 0.958357 0.498075 -0.355588
C28   C     C_2   0.429773 0.041653 0.502114 -0.351973
C29   C     C_R   0.613862 0.604371 0.821779 0.563805
C30   C     C_R   0.411369 0.367737 0.177852 0.553337
C31   C     C_R   0.404012 0.386439 0.822171 0.613618
C32   C     C_R   0.529694 0.633142 0.177260 0.622674
C33   C     C_R   0.612375 0.387506 0.719323 0.309518
C34   C     C_R   0.358266 0.592197 0.281319 0.311335
C35   C     C_R   0.607998 0.386098 0.668786 0.148253
C36   C     C_R   0.370427 0.598948 0.331606 0.157288
C37   C     C_R   0.423108 0.609202 0.673906 0.463091
C38   C     C_R   0.591694 0.405348 0.324904 0.468822
C39   C     C_R   0.424697 0.606197 0.724025 -0.205276
C40   C     C_R   0.586188 0.407998 0.274849 -0.201270
C41   C     C_R   0.518593 0.496690 0.746555 0.111341
C42   C     C_R   0.469833 0.499534 0.253123 0.101060
H1    H     H_    0.014000 0.383454 0.463465 0.209491
H2    H     H_    0.986000 0.616582 0.536522 0.208300
H3    H     H_    0.352424 0.689254 0.745645 0.193071
H4    H     H_    0.671557 0.337006 0.252669 0.196640
H5    H     H_    0.797501 0.802783 0.878518 0.194417
H6    H     H_    0.321653 0.121276 0.121088 0.204191
H7    H     H_    0.605841 0.882749 0.121693 0.201177
H8    H     H_    0.197118 0.195507 0.878543 0.206207
H9    H     H_    0.777823 0.809786 0.964982 0.182583
H10   H     H_    0.325780 0.119804 0.035017 0.219647
H11   H     H_    0.702901 0.009574 0.494200 0.193394
H12   H     H_    0.297149 0.990437 0.506006 0.193926
N1    N     N_R   0.513531 0.494745 0.798027 -0.330628
N2    N     N_R   0.469103 0.500426 0.201594 -0.329553
N3    N     N_2   0.950320 0.457960 0.486880 -0.147786
N4    N     N_2   0.049680 0.542040 0.513120 -0.148748
O1    O     O_R   0.389250 0.738570 0.503220 -0.602402
O2    O     O_R   0.610750 0.261430 0.496780 -0.604859
O3    O     O_R   0.678390 0.711630 0.494810 -0.634106
O4    O     O_R   0.321610 0.288370 0.505190 -0.634127
O5    O     O_R   0.355440 0.513440 0.575450 -0.568287
O6    O     O_R   0.644560 0.486560 0.424550 -0.563815
O7    O     O_R   0.644590 0.486500 0.567040 -0.605469
O8    O     O_R   0.355410 0.513500 0.432960 -0.603276
O9    O     O_2   0.720528 0.709128 0.796440 -0.517185
O10   O     O_2   0.352766 0.238800 0.203148 -0.519018
O11   O     O_2   0.592040 0.759910 0.201929 -0.512204
O12   O     O_2   0.305090 0.281752 0.797139 -0.510343
Zn1   Zn    Zn3+2 0.306940 0.517990 0.505620 1.017913
Zn2   Zn    Zn3+2 0.693060 0.482010 0.494380 1.016538
O13   O     O_3   0.327361 0.717453 0.652265 -0.584466
C43   C     C_3   0.433172 0.856887 0.644853 -0.168670
H13   H     H_    0.471430 0.910285 0.679848 0.203109
H14   H     H_    0.357997 0.942810 0.626514 0.203458
H15   H     H_    0.550579 0.836209 0.620913 0.145476
O14   O     O_3   0.705501 0.310662 0.345497 -0.576783
C44   C     C_3   0.621052 0.160710 0.352957 -0.177093
H16   H     H_    0.710905 0.085277 0.370297 0.200068
H17   H     H_    0.587214 0.103904 0.318050 0.197109
H18   H     H_    0.502823 0.166531 0.377780 0.138944
Br1   Br    Br    0.236356 0.747209 0.368718 -0.427143
Br2   Br    Br    0.723978 0.226208 0.631730 -0.457818
Br3   Br    Br    0.187525 0.706192 0.250665 -0.354143
Br4   Br    Br    0.744294 0.241070 0.751930 -0.353892
O15   O     O_3   0.605188 0.920303 0.026277 -0.640010
C45   C     C_3   0.744244 0.018594 0.042732 -0.327996
H19   H     H_    0.857590 0.951979 0.051513 0.166786
H20   H     H_    0.699822 0.089929 0.074324 0.188519
H21   H     H_    0.789122 0.101786 0.013437 0.235101
O16   O     O_3   0.151705 0.170692 0.973348 -0.628725
C46   C     C_3   0.154401 0.013573 0.956511 -0.366500
H22   H     H_    0.288488 0.977168 0.947244 0.193959
H23   H     H_    0.071933 0.995061 0.925169 0.186068
H24   H     H_    0.097877 0.935026 0.985770 0.188209

loop_
_geom_bond_atom_site_label_1
_geom_bond_atom_site_label_2
_ccdc_geom_bond_type
O15   C45   S    
C46   H22   S    
C8    C26   A    
O13   C43   S    
C14   C18   A    
C34   C42   A    
C21   H7    S    
C39   C41   A    
C40   H4    S    
C20   O16   S    
C43   H14   S    
C19   C21   A    
C19   O15   S    
C1    O1    A    
C2    O2    A    
N4    Zn1   S    
O2    Zn2   S    
C36   Br1   S    
C3    C18   A    
C11   C37   A    
C41   N1    S    
C42   N2    S    
C29   O9    S    
C31   O12   S    
H2    N4    S    
C43   H15   S    
C12   C36   A    
C24   O8    A    
C22   H8    S    
C40   C42   A    
C46   H23   S    
C9    C31   A    
C5    C29   A    
C10   C21   A    
C23   O5    A    
C43   H13   S    
C13   C19   A    
C14   C20   A    
C4    C6    A    
C44   H17   S    
C28   H12   S    
O14   C44   S    
C39   H3    S    
C15   C26   A    
C6    C8    A    
C38   O14   S    
C30   N2    A    
C34   Br3   S    
C7    H5    S    
C33   Br4   S    
C8    H6    S    
C3    C9    A    
C26   H10   S    
O8    Zn1   S    
C45   H21   S    
O5    Zn1   S    
C4    C17   A    
O3    Zn2   S    
C16   C18   A    
C6    C30   A    
C45   H20   S    
C46   H24   S    
C4    C10   A    
C5    C7    A    
C16   C25   A    
C15   C17   A    
C37   O13   S    
C20   C22   A    
C3    C5    A    
C1    O3    A    
C44   H18   S    
C35   Br2   S    
C27   H11   S    
C32   O11   S    
O7    Zn2   S    
C29   N1    A    
C12   C24   S    
C25   H9    S    
C7    C25   A    
C13   C17   A    
C33   C41   A    
C23   O7    A    
C11   C35   A    
C37   C39   A    
C38   C40   A    
N3    N4    D    
C11   C23   S    
O16   C46   S    
C33   C35   A    
O4    Zn1   S    
C34   C36   A    
O6    Zn2   S    
N3    Zn2   S    
C12   C38   A    
C9    C22   A    
H1    N3    S    
C44   H16   S    
C10   C32   A    
C45   H19   S    
C24   O6    A    
C13   C16   A    
C27   C28   D    
C1    C27   S    
C14   C15   A    
C2    C28   S    
C31   N1    A    
C32   N2    A    
C30   O10   S    
C2    O4    A    
O1    Zn1   S    
