data_mof_unit_27764.cif
_audit_creation_date              2012-12-11T15:59:27-0500
_audit_creation_method            fapswitch 2.2
_symmetry_space_group_name_H-M    P1
_symmetry_Int_Tables_number       1
_space_group_crystal_system       triclinic
_cell_length_a                    10.691833
_cell_length_b                    10.732239
_cell_length_c                    17.064353
_cell_angle_alpha                 99.30142
_cell_angle_beta                  99.693766
_cell_angle_gamma                 61.305256
_cell_volume                      1685.68671199

loop_
_atom_site_label
_atom_site_type_symbol
_atom_type_description
_atom_site_fract_x
_atom_site_fract_y
_atom_site_fract_z
_atom_type_partial_charge
C1    C     C_R   0.356721 0.769089 0.397822 0.539520
C2    C     C_R   0.857621 0.203128 0.198367 0.031379
C3    C     C_R   0.867738 0.214381 0.282406 0.019657
C4    C     C_R   0.777733 0.471063 0.283656 -0.145132
C5    C     C_R   0.782823 0.458152 0.203041 -0.152780
C6    C     C_R   0.878597 0.070339 0.156417 -0.061187
C7    C     C_R   0.930679 0.949028 0.196637 -0.137793
C8    C     C_R   0.955559 0.958433 0.279478 -0.134909
C9    C     C_R   0.923306 0.089973 0.322338 -0.093100
C10   C     C_R   0.820186 0.350526 0.324156 0.004366
C11   C     C_R   0.356292 0.814667 0.156900 0.005497
C12   C     C_R   0.369755 0.346871 0.357486 0.556550
C13   C     C_R   0.450097 0.848047 0.215428 0.020326
C14   C     C_R   0.435693 0.854260 0.296908 0.011326
C15   C     C_R   0.283228 0.738875 0.256968 -0.140963
C16   C     C_R   0.283967 0.748698 0.177885 -0.143586
C17   C     C_R   0.555635 0.877562 0.195629 -0.094883
C18   C     C_R   0.632093 0.927403 0.254311 -0.128692
C19   C     C_R   0.609376 0.944869 0.333855 -0.101059
C20   C     C_R   0.510134 0.911172 0.355273 -0.097889
C21   C     C_R   0.349584 0.800182 0.317179 0.010383
C22   C     C_R   0.338186 0.341854 0.825671 0.064486
C23   C     C_R   0.774766 0.378738 0.403155 0.538757
C24   C     C_R   0.462627 0.243709 0.788353 0.002161
C25   C     C_R   0.445079 0.215035 0.705352 -0.007328
C26   C     C_R   0.227481 0.442273 0.699766 -0.158686
C27   C     C_R   0.222035 0.447263 0.782057 0.242074
C28   C     C_R   0.598259 0.160828 0.831080 0.048652
C29   C     C_R   0.697477 0.033128 0.793419 -0.138419
C30   C     C_R   0.665654 0.990234 0.714501 -0.123209
C31   C     C_R   0.541312 0.080791 0.670288 -0.063349
C32   C     C_R   0.336745 0.325444 0.660394 -0.050919
C33   C     C_1   0.816197 0.342355 0.709211 -0.050159
C34   C     C_R   0.380633 0.715763 0.631717 0.561834
C35   C     C_1   0.843201 0.314280 0.776990 -0.033134
C36   C     C_1   0.357837 0.766030 0.713810 -0.037496
C37   C     C_1   0.325254 0.812741 0.780644 -0.024511
C38   C     C_R   0.891007 0.308076 0.086928 0.569677
C39   C     C_R   0.319332 0.299294 0.120014 0.562659
C40   C     C_R   0.298642 0.886308 0.083690 0.558841
C41   C     C_R   0.885452 0.297651 0.859213 0.573325
C42   C     C_R   0.309863 0.295975 0.894570 0.599684
C43   C     C_R   0.280693 0.881390 0.857668 0.566909
C44   C     C_R   0.368888 0.346053 0.584418 0.540598
C45   C     C_R   0.772802 0.380927 0.629909 0.539785
C46   C     C_1   0.343263 0.336796 0.274088 -0.032747
C47   C     C_1   0.332270 0.326187 0.203271 -0.032978
C48   C     C_R   0.829519 0.324725 0.160208 0.010592
Cr1   Cr    Cr6+3 0.608100 0.610860 0.522250 0.998171
Cr2   Cr    Cr6+3 0.288890 0.599990 0.488420 1.007488
Cr3   Cr    Cr6+3 0.603040 0.289190 0.489390 1.001703
Cr4   Cr    Cr6+3 0.053960 0.052250 0.967380 1.013303
Cr5   Cr    Cr6+3 0.059890 0.373160 0.992710 1.049363
Cr6   Cr    Cr6+3 0.373370 0.061690 0.991710 1.015054
H1    H     H_    0.736891 0.577847 0.313899 0.158732
H2    H     H_    0.707654 0.954294 0.237555 0.135191
H3    H     H_    0.669501 0.983850 0.379122 0.135187
H4    H     H_    0.492606 0.930635 0.417614 0.125825
H5    H     H_    0.149062 0.530632 0.666740 0.137509
H6    H     H_    0.799238 0.966019 0.825355 0.106466
H7    H     H_    0.740195 0.889283 0.686406 0.105981
H8    H     H_    0.521150 0.045535 0.608557 0.133990
H9    H     H_    0.850635 0.058637 0.092846 0.130966
H10   H     H_    0.756866 0.552396 0.174786 0.139117
H11   H     H_    0.948470 0.847929 0.163563 0.103613
H12   H     H_    0.994392 0.864567 0.310787 0.127276
H13   H     H_    0.943279 0.093232 0.386754 0.126123
H14   H     H_    0.227778 0.684371 0.270767 0.139958
H15   H     H_    0.584812 0.857587 0.135574 0.137869
H16   H     H_    0.219404 0.713642 0.133386 0.139062
O1    O     O_R   0.749810 0.499790 0.438040 -0.523301
O2    O     O_R   0.298970 0.468800 0.557390 -0.513562
O3    O     O_R   0.489400 0.255930 0.561910 -0.522442
O4    O     O_R   0.723890 0.306050 0.584610 -0.491433
O5    O     O_3   0.500010 0.500010 0.500020 -0.259458
O6    O     O_R   0.171100 0.914680 0.053100 -0.513344
O7    O     O_R   0.941680 0.184840 0.050710 -0.520334
O8    O     O_R   0.922080 0.403420 0.072610 -0.516176
O9    O     O_R   0.196880 0.369150 0.083850 -0.503150
O10   O     O_R   0.411730 0.181020 0.091530 -0.511455
O11   O     O_R   0.365010 0.944360 0.063320 -0.515403
O12   O     O_R   0.477660 0.726260 0.439290 -0.506025
O13   O     O_R   0.159380 0.906670 0.876210 -0.493946
O14   O     O_R   0.930820 0.177420 0.886730 -0.511094
O15   O     O_R   0.910360 0.395420 0.895720 -0.507799
O16   O     O_R   0.186010 0.361730 0.919870 -0.456373
O17   O     O_R   0.400000 0.173010 0.914630 -0.527904
O18   O     O_R   0.354140 0.936940 0.899340 -0.503421
O19   O     O_3   0.162410 0.162370 0.983930 -0.259361
O20   O     O_R   0.260150 0.743000 0.412270 -0.527295
O21   O     O_R   0.297740 0.466550 0.394720 -0.505271
O22   O     O_R   0.488080 0.253500 0.386430 -0.517304
O23   O     O_R   0.722670 0.303800 0.421940 -0.504338
O24   O     O_R   0.751130 0.502220 0.613520 -0.531109
O25   O     O_R   0.478890 0.728510 0.601960 -0.497449
O26   O     O_R   0.261470 0.745430 0.587750 -0.508294
C49   C     C_2   0.641996 0.206231 0.913398 0.259601
H17   H     H_    0.733729 0.129841 0.948280 0.096748
O27   O     O_2   0.579095 0.329499 0.942228 -0.522095
O28   O     O_3   0.113918 0.558829 0.823568 -0.541327
C50   C     C_3   0.977881 0.606430 0.779096 -0.087954
H18   H     H_    0.962388 0.683936 0.737876 0.106945
H19   H     H_    0.960825 0.516656 0.746038 0.128847
H20   H     H_    0.894568 0.663273 0.821076 0.144199

loop_
_geom_bond_atom_site_label_1
_geom_bond_atom_site_label_2
_ccdc_geom_bond_type
C28   C49   S    
Cr1   O12   S    
C1    C21   S    
C1    O20   A    
C43   O13   A    
C12   O21   A    
C19   C20   A    
Cr3   O4    S    
C49   H17   S    
C7    C8    A    
C22   C42   S    
C19   H3    S    
C26   C32   A    
C26   C27   A    
C50   H18   S    
C43   O18   A    
C14   C21   A    
C36   C37   T    
Cr5   O9    S    
Cr3   O5    S    
Cr6   O17   S    
C15   C16   A    
C33   C45   S    
C18   C19   A    
Cr4   O14   S    
Cr2   O2    S    
C17   H15   S    
Cr3   O3    S    
Cr2   O20   S    
C8    C9    A    
Cr1   O5    S    
Cr5   O16   S    
C42   O16   A    
Cr1   O24   S    
C26   H5    S    
C38   C48   S    
C18   H2    S    
C25   C32   A    
C50   H19   S    
C13   C14   A    
C31   H8    S    
Cr4   O19   S    
C2    C6    A    
C45   O24   A    
C40   O11   A    
C49   O27   D    
Cr6   O10   S    
C5    C48   A    
C27   O28   S    
C14   C20   A    
C16   H16   S    
C34   O25   A    
Cr6   O19   S    
C12   C46   S    
C38   O8    A    
C2    C48   A    
C1    O12   A    
C41   O14   A    
C8    H12   S    
Cr1   O25   S    
C23   O23   A    
C5    H10   S    
C45   O4    A    
C39   O9    A    
C6    H9    S    
C37   C43   S    
Cr4   O13   S    
C9    H13   S    
C29   C30   A    
C3    C9    A    
C23   O1    A    
Cr3   O22   S    
C7    H11   S    
C11   C16   A    
C29   H6    S    
C17   C18   A    
C32   C44   S    
C24   C25   A    
Cr3   O23   S    
C50   H20   S    
C22   C27   A    
C4    H1    S    
Cr5   O19   S    
C22   C24   A    
C4    C10   A    
Cr4   O7    S    
C39   C47   S    
C44   O3    A    
C46   C47   T    
C28   C29   A    
C25   C31   A    
C12   O22   A    
C24   C28   A    
C34   O26   A    
C4    C5    A    
Cr4   O6    S    
C6    C7    A    
C38   O7    A    
C10   C23   S    
C41   O15   A    
C13   C17   A    
C39   O10   A    
C2    C3    A    
C3    C10   A    
Cr2   O5    S    
Cr6   O18   S    
C11   C13   A    
Cr2   O26   S    
C30   C31   A    
C15   H14   S    
O28   C50   S    
C33   C35   T    
C44   O2    A    
C34   C36   S    
C11   C40   S    
C35   C41   S    
Cr5   O8    S    
C40   O6    A    
Cr2   O21   S    
C15   C21   A    
Cr1   O1    S    
C30   H7    S    
Cr5   O15   S    
C42   O17   A    
C20   H4    S    
Cr6   O11   S    
