data_mof_unit_13330.cif
_audit_creation_date              2012-12-10T17:43:16-0500
_audit_creation_method            fapswitch 2.2
_symmetry_space_group_name_H-M    P1
_symmetry_Int_Tables_number       1
_space_group_crystal_system       triclinic
_cell_length_a                    15.115868
_cell_length_b                    13.705621
_cell_length_c                    10.632079
_cell_angle_alpha                 90.181644
_cell_angle_beta                  88.775923
_cell_angle_gamma                 90.261787
_cell_volume                      2202.13682717

loop_
_atom_site_label
_atom_site_type_symbol
_atom_type_description
_atom_site_fract_x
_atom_site_fract_y
_atom_site_fract_z
_atom_type_partial_charge
C1    C     C_R   0.329089 0.499790 0.502967 0.819357
C2    C     C_R   0.959496 0.415562 0.297249 -0.215596
C3    C     C_R   0.444863 0.793254 0.581292 0.018060
C4    C     C_R   0.555137 0.206746 0.418708 0.018060
C5    C     C_R   0.555185 0.793423 0.418790 0.021750
C6    C     C_R   0.444815 0.206577 0.581210 0.021750
C7    C     C_R   0.556469 0.896480 0.416811 -0.006556
C8    C     C_R   0.443531 0.103520 0.583189 -0.006555
C9    C     C_R   0.443565 0.896308 0.583246 -0.004272
C10   C     C_R   0.556435 0.103692 0.416754 -0.004272
C11   C     C_R   0.500008 0.948184 0.500014 0.087574
C12   C     C_R   0.670911 0.500210 0.497033 0.819358
C13   C     C_R   0.499992 0.051816 0.499986 0.087574
C14   C     C_R   0.612612 0.948859 0.333972 -0.196990
C15   C     C_R   0.387388 0.051140 0.666028 -0.196990
C16   C     C_R   0.387406 0.948522 0.666060 -0.200410
C17   C     C_R   0.612593 0.051478 0.333940 -0.200410
C18   C     C_R   0.500776 0.499853 0.259068 0.794730
C19   C     C_R   0.499224 0.500147 0.740932 0.794730
C20   C     C_3   0.422352 0.533692 0.045460 -0.157987
C21   C     C_3   0.577647 0.466308 0.954540 -0.157986
C22   C     C_3   0.487574 0.591706 0.960058 -0.137978
C23   C     C_R   0.953061 0.500227 0.498573 0.028553
C24   C     C_3   0.512426 0.408294 0.039942 -0.137978
C25   C     C_3   0.433868 0.442392 0.960853 -0.150827
C26   C     C_3   0.566132 0.557608 0.039147 -0.150828
C27   C     C_3   0.499126 0.500411 0.877740 0.019810
C28   C     C_3   0.500874 0.499589 0.122260 0.019810
C29   C     C_R   0.815119 0.461967 0.390286 0.090346
C30   C     C_R   0.184881 0.538033 0.609714 0.090346
C31   C     C_R   0.767363 0.500774 0.494865 -0.142748
C32   C     C_R   0.232637 0.499226 0.505135 -0.142747
C33   C     C_R   0.811156 0.541380 0.598213 -0.107768
C34   C     C_R   0.046939 0.499774 0.501426 0.028553
C35   C     C_R   0.188844 0.458620 0.401787 -0.107769
C36   C     C_R   0.904034 0.542393 0.599501 0.061859
C37   C     C_R   0.095966 0.457607 0.400498 0.061859
C38   C     C_3   0.766875 0.430109 0.271732 -0.413268
C39   C     C_3   0.780263 0.504774 0.166473 -0.843477
C40   C     C_3   0.233125 0.569891 0.728268 -0.413268
C41   C     C_3   0.219737 0.495226 0.833526 -0.843478
C42   C     C_1   0.759852 0.581171 0.703684 0.232632
C43   C     C_1   0.240148 0.418829 0.296316 0.232631
C44   C     C_R   0.908740 0.458905 0.394628 0.100627
C45   C     C_R   0.091260 0.541095 0.605372 0.100627
C46   C     C_R   0.949096 0.584603 0.700183 -0.202703
C47   C     C_R   0.050904 0.415397 0.299817 -0.202703
C48   C     C_R   0.040504 0.584438 0.702751 -0.215595
Cu1   Cu    Cu3+1 0.500000 0.597420 0.500000 0.947581
Cu2   Cu    Cu3+1 0.500000 0.402580 0.500000 0.947581
H1    H     H_    0.380562 0.394017 0.926382 0.140327
H2    H     H_    0.930052 0.380976 0.216914 0.157283
H3    H     H_    0.401834 0.752305 0.644675 0.116901
H4    H     H_    0.598165 0.247695 0.355325 0.116901
H5    H     H_    0.598248 0.752602 0.355459 0.124357
H6    H     H_    0.401752 0.247398 0.644541 0.124357
H7    H     H_    0.656547 0.910482 0.269180 0.138580
H8    H     H_    0.343453 0.089517 0.730819 0.138580
H9    H     H_    0.343481 0.910014 0.730861 0.135206
H10   H     H_    0.656519 0.089986 0.269139 0.135206
H11   H     H_    0.750851 0.575655 0.195569 0.246009
H12   H     H_    0.619438 0.605983 0.073618 0.140328
H13   H     H_    0.851292 0.516634 0.143025 0.258432
H14   H     H_    0.747430 0.478455 0.080464 0.241973
H15   H     H_    0.788781 0.356600 0.240630 0.189181
H16   H     H_    0.694631 0.421827 0.286682 0.203443
H17   H     H_    0.148708 0.483365 0.856975 0.258433
H18   H     H_    0.249149 0.424345 0.804431 0.246009
H19   H     H_    0.252569 0.521544 0.919536 0.241973
H20   H     H_    0.305369 0.578173 0.713318 0.203443
H21   H     H_    0.211219 0.643400 0.759370 0.189181
H22   H     H_    0.359239 0.561680 0.086479 0.138178
H23   H     H_    0.640761 0.438320 0.913521 0.138178
H24   H     H_    0.477227 0.666822 0.924627 0.141723
H25   H     H_    0.522772 0.333177 0.075373 0.141723
H26   H     H_    0.914136 0.618549 0.778612 0.156943
H27   H     H_    0.085864 0.381451 0.221388 0.156943
H28   H     H_    0.069948 0.619024 0.783086 0.157283
N1    N     N_R   0.500000 0.743810 0.500000 -0.182747
N2    N     N_R   0.500000 0.256190 0.500000 -0.182747
N3    N     N_1   0.719085 0.613011 0.787430 -0.306928
N4    N     N_1   0.280915 0.386989 0.212570 -0.306928
O1    O     O_R   0.370260 0.582280 0.500030 -0.593916
O2    O     O_R   0.629740 0.417720 0.499970 -0.593916
O3    O     O_R   0.629740 0.582280 0.499970 -0.571536
O4    O     O_R   0.370260 0.417720 0.500030 -0.571536
O5    O     O_R   0.499980 0.582260 0.316850 -0.589887
O6    O     O_R   0.500020 0.417740 0.683150 -0.589887
O7    O     O_R   0.500020 0.582260 0.683150 -0.585824
O8    O     O_R   0.499980 0.417740 0.316850 -0.585825

loop_
_geom_bond_atom_site_label_1
_geom_bond_atom_site_label_2
_ccdc_geom_bond_type
C21   C26   S    
C8    C13   A    
C40   H21   S    
C34   C37   A    
C11   C13   A    
Cu1   O5    S    
C30   C45   A    
C3    N1    A    
C46   H26   S    
Cu2   O2    S    
C41   H17   S    
C1    O1    A    
C7    C11   A    
C39   H14   S    
C40   H20   S    
C12   O3    A    
C19   O7    A    
C33   C42   S    
C35   C37   A    
C9    C16   A    
C4    N2    A    
C38   C39   S    
C20   C25   S    
C10   C17   A    
C15   C16   A    
C21   H23   S    
C33   C36   A    
C12   O2    A    
C48   H28   S    
Cu2   O8    S    
C7    C14   A    
C38   H16   S    
C2    C44   A    
C29   C38   S    
C31   C33   A    
C36   C46   A    
C5    N1    A    
C35   C43   S    
Cu2   O6    S    
C21   C27   S    
C14   C17   A    
C42   N3    T    
C41   H18   S    
C39   H11   S    
C46   C48   A    
C18   O8    A    
C32   C35   A    
Cu1   O3    S    
C18   C28   S    
C24   C25   S    
C19   O6    A    
C6    H6    S    
C5    C7    A    
C6    C8    A    
C20   C28   S    
C1    C32   S    
C23   C44   A    
Cu1   N1    S    
C16   H9    S    
C25   H1    S    
C3    C9    A    
C6    N2    A    
C38   H15   S    
C23   C34   A    
C30   C40   S    
C34   C45   A    
C9    C11   A    
C2    H2    S    
C40   C41   S    
C20   C22   S    
C23   C36   A    
C8    C15   A    
C22   C27   S    
C12   C31   S    
C15   H8    S    
C37   C47   A    
C47   H27   S    
C4    C10   A    
C19   C27   S    
C41   H19   S    
C45   C48   A    
C1    O4    A    
C14   H7    S    
C4    H4    S    
C5    H5    S    
C24   C28   S    
Cu1   O7    S    
C10   C13   A    
Cu2   N2    S    
C24   H25   S    
C2    C47   A    
C25   C27   S    
C39   H13   S    
C26   C28   S    
C18   O5    A    
Cu1   O1    S    
C26   H12   S    
C29   C44   A    
C30   C32   A    
C3    H3    S    
Cu2   O4    S    
C17   H10   S    
C29   C31   A    
Cu1   Cu2   S    
C22   C26   S    
C21   C24   S    
C43   N4    T    
C22   H24   S    
C20   H22   S    
