data_mof_unit_46142.cif
_audit_creation_date              2013-03-05T16:05:41-0500
_audit_creation_method            fapswitch 2.2
_symmetry_space_group_name_H-M    P1
_symmetry_Int_Tables_number       1
_space_group_crystal_system       triclinic
_cell_length_a                    10.651983
_cell_length_b                    14.989036
_cell_length_c                    15.518608
_cell_angle_alpha                 82.264694
_cell_angle_beta                  89.68983
_cell_angle_gamma                 104.16416
_cell_volume                      2378.66181214

loop_
_atom_site_label
_atom_site_type_symbol
_atom_site_description
_atom_site_fract_x
_atom_site_fract_y
_atom_site_fract_z
_atom_type_partial_charge
O1    O     O_R   0.462770 0.383110 0.605620 -0.636728
O2    O     O_R   0.510160 0.531900 0.639510 -0.580536
C1    C     C_R   0.484044 0.441784 0.661531 0.933427
O3    O     O_R   0.661510 0.425600 0.483070 -0.584396
O4    O     O_R   0.708900 0.574390 0.516960 -0.613789
C2    C     C_R   0.742172 0.500724 0.499653 0.882098
Zn1   Zn    Zn3+2 0.468350 0.400660 0.477370 0.995823
Zn2   Zn    Zn3+2 0.531650 0.599340 0.522630 0.955963
O5    O     O_R   0.489840 0.468100 0.360490 -0.564016
O6    O     O_R   0.537230 0.616890 0.394380 -0.632351
O7    O     O_R   0.291100 0.425610 0.483040 -0.645521
O8    O     O_R   0.338490 0.574400 0.516930 -0.634421
C3    C     C_R   0.519408 0.558126 0.338026 0.869634
C4    C     C_R   0.257959 0.499447 0.500692 0.829793
C5    C     C_3   0.898648 0.416797 0.563316 -0.356044
H1    H     H_    0.838713 0.349963 0.546905 0.209063
H2    H     H_    0.867030 0.422110 0.630526 0.207399
C6    C     C_3   0.041975 0.414978 0.562134 -0.400108
H3    H     H_    0.078428 0.415972 0.629203 0.167881
H4    H     H_    0.051785 0.349191 0.540199 0.197739
H5    H     H_    0.086340 0.430931 0.383771 0.212193
C7    C     C_3   0.930562 0.499876 0.404958 0.161470
C8    C     C_3   0.959429 0.590916 0.531666 -0.447091
C9    C     C_3   0.879120 0.501181 0.499461 0.042885
H6    H     H_    0.947428 0.653903 0.488779 0.177138
H7    H     H_    0.926466 0.595662 0.598660 0.245989
C10   C     C_3   0.121572 0.499976 0.500354 0.126560
C11   C     C_3   0.073659 0.495518 0.406779 -0.445068
C12   C     C_3   0.102098 0.590532 0.531518 -0.394317
H8    H     H_    0.137958 0.595793 0.598409 0.199485
H9    H     H_    0.157828 0.652936 0.487728 0.178871
H10   H     H_    0.926624 0.566995 0.365439 0.086320
H11   H     H_    0.133251 0.554952 0.361473 0.134073
C13   C     C_R   0.471496 0.404770 0.753221 -0.158842
C14   C     C_R   0.547216 0.592022 0.245729 -0.066537
C15   C     C_R   0.344598 0.299368 0.871259 -0.151025
C16   C     C_R   0.367570 0.329020 0.782671 -0.249965
C17   C     C_R   0.556319 0.448002 0.812819 0.236437
C18   C     C_R   0.513574 0.433082 0.900770 0.007202
C19   C     C_R   0.415010 0.352408 0.930594 0.065593
C20   C     C_R   0.561484 0.497680 0.958882 0.061301
C21   C     C_R   0.525916 0.472557 0.048780 -0.053600
C22   C     C_R   0.456654 0.378935 0.078828 0.281086
C23   C     C_R   0.391688 0.323979 0.019277 -0.254417
C24   C     C_R   0.634450 0.589077 0.928426 -0.115086
C25   C     C_R   0.678311 0.652868 0.985288 -0.234793
C26   C     C_R   0.639674 0.630964 0.072872 0.170028
C27   C     C_R   0.556725 0.542819 0.103823 0.118235
C28   C     C_R   0.678089 0.697562 0.129460 -0.187295
C29   C     C_R   0.635328 0.676838 0.216646 -0.191904
C30   C     C_R   0.500395 0.530157 0.187345 -0.159554
H12   H     H_    0.328718 0.256161 0.042075 0.190218
H13   H     H_    0.421200 0.470963 0.209319 0.165006
H14   H     H_    0.672731 0.725790 0.261250 0.160170
H15   H     H_    0.736951 0.721358 0.959739 0.147752
H16   H     H_    0.267369 0.238351 0.893288 0.149399
H17   H     H_    0.304366 0.292959 0.737152 0.165230
H18   H     H_    0.655638 0.613829 0.860034 0.171619
H19   H     H_    0.743393 0.764463 0.106766 0.142406
N1    N     N_R   0.573860 0.731700 0.552730 -0.105256
N2    N     N_R   0.426060 0.268290 0.447230 -0.109981
C31   C     C_R   0.706208 0.845614 0.627696 -0.319050
C32   C     C_R   0.669432 0.755305 0.608837 0.019625
C33   C     C_R   0.510106 0.792740 0.513955 -0.064108
C34   C     C_R   0.541567 0.885437 0.531059 -0.000152
C35   C     C_R   0.643323 0.911295 0.588371 0.177591
C36   C     C_R   0.477224 0.952774 0.492816 0.081946
C37   C     C_R   0.519720 0.046441 0.510028 0.088073
C38   C     C_R   0.622914 0.069135 0.566548 -0.210882
C39   C     C_R   0.682420 0.002456 0.605421 -0.204959
C40   C     C_R   0.370943 0.929252 0.438908 -0.229391
C41   C     C_R   0.308828 0.995244 0.402089 -0.186014
C42   C     C_R   0.349844 0.086875 0.417469 0.150866
C43   C     C_R   0.456245 0.113986 0.470957 -0.005843
C44   C     C_R   0.283649 0.151634 0.380780 -0.227022
C45   C     C_R   0.323327 0.242744 0.397108 0.111715
C46   C     C_R   0.492612 0.208020 0.483866 -0.003361
H20   H     H_    0.760533 0.022691 0.648846 0.146741
H21   H     H_    0.570989 0.235665 0.523634 0.130606
H22   H     H_    0.271657 0.293347 0.370576 0.141528
H23   H     H_    0.227149 0.974097 0.361635 0.146400
H24   H     H_    0.718280 0.704008 0.637758 0.175961
H25   H     H_    0.438077 0.766886 0.469134 0.126809
H26   H     H_    0.659919 0.137854 0.583209 0.141244
H27   H     H_    0.331184 0.859812 0.424752 0.132588
H28   H     H_    0.201343 0.131803 0.340564 0.162391
N3    N     N_R   0.692080 0.487865 0.789330 0.175893
O9    O     O_R   0.730992 0.528900 0.711257 -0.467129
O10   O     O_R   0.779298 0.474842 0.844839 -0.380722
N4    N     N_R   0.461919 0.335224 0.166569 0.193314
O11   O     O_R   0.570094 0.352085 0.206935 -0.297028
O12   O     O_R   0.366923 0.266697 0.200115 -0.437183
H29   H     H_    0.783789 0.864158 0.671856 0.149341
N5    N     N_R   0.852716 0.424369 0.362243 0.229203
O13   O     O_R   0.849116 0.337802 0.389805 -0.392042
O14   O     O_R   0.792537 0.444372 0.292344 -0.329792

loop_
_geom_bond_atom_site_label_1
_geom_bond_atom_site_label_2
_geom_bond_distance
_ccdc_geom_bond_type
C5    C6    1.533667 S    
N3    O9    1.298943 A    
C39   H20   1.084452 S    
C13   C16   1.401150 A    
C42   C44   1.397882 A    
C42   C43   1.419250 A    
C22   C23   1.394403 A    
C18   C20   1.417551 A    
C35   C39   1.389451 A    
C24   C25   1.387142 A    
Zn1   O7    2.016187 S    
C31   C32   1.385579 A    
C7    H10   1.115737 S    
N1    C32   1.354969 A    
C8    C12   1.521113 S    
C15   C16   1.387823 A    
C3    C14   1.457149 S    
O4    C2    1.298948 A    
O7    C4    1.302426 A    
C10   C12   1.559724 S    
C37   C43   1.422668 A    
C5    H1    1.110597 S    
Zn1   O5    1.937228 S    
C6    H3    1.113571 S    
C20   C21   1.419388 A    
C8    H7    1.112394 S    
O5    C3    1.306056 A    
Zn1   N2    2.042798 S    
C40   H27   1.076005 S    
C27   C30   1.394872 A    
N2    C46   1.349605 A    
C37   C38   1.414601 A    
C34   C36   1.422111 A    
C43   C46   1.409424 A    
C25   H15   1.084064 S    
C8    C9    1.553444 S    
C4    C10   1.454786 S    
C36   C40   1.414258 A    
C41   H23   1.084472 S    
C23   H12   1.084131 S    
O1    Zn1   1.970789 S    
C7    N5    1.468511 S    
C38   C39   1.384365 A    
O3    Zn1   2.003864 S    
C46   H21   1.074555 S    
N2    C45   1.354059 A    
C24   H18   1.079557 S    
C22   N4    1.437038 S    
C31   C35   1.398501 A    
C32   H24   1.081114 S    
C36   C37   1.427817 A    
C15   C19   1.398278 A    
O3    C2    1.295892 A    
C18   C19   1.414744 A    
C21   C27   1.422165 A    
C1    C13   1.448942 S    
C30   H13   1.079019 S    
C44   C45   1.385529 A    
C33   H25   1.074930 S    
C12   H8    1.114122 S    
C15   H16   1.083814 S    
C44   H28   1.083894 S    
N4    O12   1.300636 A    
C26   C27   1.417829 A    
Zn2   O8    2.003864 S    
C2    C9    1.457099 S    
C14   C29   1.399226 A    
C29   H14   1.082986 S    
N5    O14   1.300569 A    
C5    C9    1.555199 S    
H5    C11   1.113314 S    
O8    C4    1.291679 A    
C11   H11   1.113871 S    
C34   C35   1.419062 A    
N3    O10   1.302088 A    
C14   C30   1.390770 A    
C7    C9    1.567064 S    
C21   C22   1.429843 A    
C5    H2    1.113259 S    
C25   C26   1.390056 A    
C13   C17   1.405540 A    
O2    Zn2   1.937228 S    
C6    C10   1.547563 S    
C45   H22   1.081871 S    
C41   C42   1.389227 A    
O6    C3    1.305379 A    
O4    Zn2   2.016186 S    
C26   C28   1.405365 A    
C28   H19   1.083688 S    
C17   N3    1.447047 S    
N1    C33   1.349321 A    
C33   C34   1.409126 A    
O2    C1    1.307480 A    
C40   C41   1.383811 A    
C12   H9    1.114410 S    
C38   H26   1.075776 S    
Zn2   N1    2.042444 S    
N4    O11   1.300745 A    
C17   C18   1.407651 A    
C6    H4    1.113355 S    
C8    H6    1.114219 S    
N5    O13   1.301590 A    
C19   C23   1.387054 A    
Zn2   O6    1.970789 S    
C28   C29   1.394830 A    
C31   H29   1.083879 S    
C10   C11   1.546340 S    
C20   C24   1.415945 A    
C7    C11   1.541801 S    
O1    C1    1.299108 A    
C16   H17   1.083626 S    
