data_mof_unit_46984.cif
_audit_creation_date              2012-12-11T16:22:12-0500
_audit_creation_method            fapswitch 2.2
_symmetry_space_group_name_H-M    P1
_symmetry_Int_Tables_number       1
_space_group_crystal_system       triclinic
_cell_length_a                    13.43452
_cell_length_b                    14.033159
_cell_length_c                    30.03852
_cell_angle_alpha                 97.957366
_cell_angle_beta                  90.383956
_cell_angle_gamma                 118.56853
_cell_volume                      4908.39354796

loop_
_atom_site_label
_atom_site_type_symbol
_atom_type_description
_atom_site_fract_x
_atom_site_fract_y
_atom_site_fract_z
_atom_type_partial_charge
C1    C     C_R   0.721107 0.098845 0.569183 0.544711
C2    C     C_1   0.337584 0.676720 0.764067 -0.045229
C3    C     C_3   0.119120 0.559626 0.273306 -0.407004
C4    C     C_3   0.237722 0.438631 0.209607 -0.400959
C5    C     C_3   0.159183 0.013911 0.074056 -0.385771
C6    C     C_3   0.160887 0.958983 0.293544 -0.252346
C7    C     C_3   0.087124 0.851819 0.311997 -0.309653
C8    C     C_3   0.999132 0.763979 0.275537 -0.461744
C9    C     C_3   0.135523 0.643458 0.674323 -0.403890
C10   C     C_3   0.515948 0.391395 0.195736 -0.256774
C11   C     C_3   0.532215 0.393483 0.246439 -0.293989
C12   C     C_3   0.638146 0.498389 0.268117 -0.470320
C13   C     C_1   0.340023 0.684198 0.724691 -0.039924
C14   C     C_3   0.667222 0.925910 0.357443 -0.231788
C15   C     C_3   0.733139 0.865773 0.367220 -0.281320
C16   C     C_3   0.654150 0.742246 0.363076 -0.455075
C17   C     C_3   0.141062 0.621142 0.572097 -0.240301
C18   C     C_3   0.070608 0.496194 0.571201 -0.312251
C19   C     C_3   0.962898 0.446023 0.539227 -0.450868
C20   C     C_3   0.024144 0.148934 0.197834 -0.418648
C21   C     C_3   0.778497 0.011775 0.275292 -0.403044
C22   C     C_3   0.550955 0.714987 0.589739 -0.241354
C23   C     C_3   0.561781 0.613210 0.596039 -0.313904
C24   C     C_R   0.381756 0.783297 0.549484 0.527665
C25   C     C_3   0.666918 0.616881 0.575471 -0.457888
C26   C     C_3   0.497762 0.615998 0.899437 -0.383217
C27   C     C_3   0.223346 0.950138 0.767206 -0.249648
C28   C     C_3   0.108835 0.914888 0.787433 -0.295105
C29   C     C_3   0.071120 0.809710 0.807164 -0.465028
C30   C     C_R   0.299120 0.600616 0.896665 0.031587
C31   C     C_3   0.220963 0.108310 0.722477 0.029913
C32   C     C_3   0.273790 0.065364 0.754851 0.036826
C33   C     C_1   0.296975 0.199692 0.876422 -0.024089
C34   C     C_1   0.365089 0.138457 0.613365 -0.022047
C35   C     C_3   0.261396 0.216141 0.756439 -0.087878
C36   C     C_3   0.315636 0.172558 0.788276 0.036667
C37   C     C_R   0.341174 0.689280 0.677203 0.019418
C38   C     C_3   0.374630 0.267608 0.733955 0.020028
C39   C     C_3   0.333333 0.160895 0.700384 0.061585
C40   C     C_3   0.429125 0.225908 0.766407 -0.108153
C41   C     C_R   0.397235 0.119174 0.569369 0.546188
C42   C     C_3   0.387195 0.117667 0.732387 -0.123786
C43   C     C_1   0.306275 0.183250 0.836799 -0.070700
C44   C     C_1   0.347070 0.150844 0.652198 -0.059179
C45   C     C_3   0.915689 0.245836 0.733660 0.030651
C46   C     C_3   0.838501 0.265756 0.766998 0.039722
C47   C     C_1   0.890031 0.201491 0.879383 -0.021968
C48   C     C_R   0.243009 0.667769 0.651047 0.029334
C49   C     C_1   0.766924 0.129474 0.614966 -0.027044
C50   C     C_3   0.913245 0.156235 0.759034 -0.090771
C51   C     C_3   0.834773 0.175997 0.792038 0.028609
C52   C     C_3   0.805846 0.068983 0.728822 0.020616
C53   C     C_R   0.715092 0.092053 0.441200 0.531589
C54   C     C_3   0.809782 0.158491 0.703574 0.049673
C55   C     C_3   0.727727 0.087631 0.762380 -0.109965
C56   C     C_3   0.731180 0.177910 0.736668 -0.114391
C57   C     C_1   0.858163 0.188044 0.840495 -0.071503
C58   C     C_1   0.791715 0.146213 0.654772 -0.069873
C59   C     C_R   0.248927 0.671601 0.603984 0.013430
C60   C     C_3   0.238889 0.617404 0.258260 0.046046
C61   C     C_3   0.283140 0.711195 0.229855 -0.093842
C62   C     C_1   0.309865 0.607153 0.111410 -0.020613
C63   C     C_1   0.364371 0.732552 0.378635 -0.042295
C64   C     C_3   0.294372 0.560500 0.228822 0.039944
C65   C     C_R   0.381626 0.783322 0.424586 0.533432
C66   C     C_3   0.339532 0.654177 0.200761 0.052530
C67   C     C_3   0.404868 0.622785 0.260614 -0.107199
C68   C     C_3   0.348529 0.679986 0.289618 0.051146
C69   C     C_3   0.450353 0.717171 0.231911 -0.125141
C70   C     C_R   0.232009 0.645008 0.830943 -0.134622
C71   C     C_3   0.394216 0.774660 0.261690 -0.121238
C72   C     C_1   0.328349 0.634291 0.151574 -0.061875
C73   C     C_1   0.355229 0.702703 0.338691 -0.072659
C74   C     C_R   0.352648 0.133722 0.402071 0.003303
C75   C     C_R   0.409272 0.237405 0.388849 -0.132986
C76   C     C_R   0.389657 0.249572 0.345150 -0.130100
C77   C     C_R   0.395106 0.114542 0.443266 0.538305
C78   C     C_R   0.313395 0.158524 0.314216 0.037538
C79   C     C_R   0.246834 0.055361 0.327829 0.013959
C80   C     C_R   0.267294 0.044532 0.372406 -0.114101
C81   C     C_R   0.216928 0.615743 0.873721 -0.142687
C82   C     C_R   0.257856 0.102823 0.151139 -0.118277
C83   C     C_R   0.247234 0.112246 0.105827 -0.018270
C84   C     C_R   0.406786 0.297829 0.122026 -0.142982
C85   C     C_R   0.417815 0.289780 0.167469 0.002036
C86   C     C_R   0.337122 0.191858 0.182280 0.036767
C87   C     C_1   0.326058 0.179978 0.228687 -0.049244
C88   C     C_1   0.316909 0.169674 0.267608 -0.058942
C89   C     C_R   0.357521 0.714982 0.586306 0.002206
C90   C     C_R   0.318118 0.214037 0.091719 0.020112
C91   C     C_R   0.769027 0.125834 0.399271 0.015005
C92   C     C_R   0.402704 0.624567 0.876657 -0.009447
C93   C     C_R   0.746995 0.048500 0.359079 0.005967
C94   C     C_R   0.791522 0.088448 0.318744 0.028822
C95   C     C_R   0.847480 0.202955 0.318345 0.037741
C96   C     C_R   0.869371 0.277199 0.357776 -0.137081
C97   C     C_R   0.831919 0.238994 0.397977 -0.146139
C98   C     C_R   0.871885 0.304603 0.164988 -0.132939
C99   C     C_R   0.879633 0.293632 0.118340 -0.135515
C100  C     C_R   0.969941 0.181734 0.124536 -0.108605
C101  C     C_R   0.447550 0.713295 0.610857 -0.018694
C102  C     C_R   0.967580 0.196298 0.171258 0.005427
C103  C     C_R   0.416628 0.654934 0.833461 -0.093875
C104  C     C_R   0.916495 0.257031 0.191529 0.045376
C105  C     C_1   0.897992 0.258281 0.238380 -0.038363
C106  C     C_1   0.878463 0.242422 0.276322 -0.038844
C107  C     C_R   0.927801 0.231095 0.097801 0.012397
C108  C     C_R   0.284108 0.232725 0.922067 0.546558
C109  C     C_R   0.266088 0.547169 0.937635 0.540425
C110  C     C_R   0.943966 0.221605 0.923243 0.547527
C111  C     C_R   0.293423 0.243610 0.049153 0.540253
C112  C     C_R   0.275700 0.558990 0.065160 0.545952
C113  C     C_R   0.439858 0.706885 0.656844 -0.125292
C114  C     C_R   0.330362 0.662010 0.810387 0.021957
C115  C     C_R   0.957927 0.234932 0.050982 0.537415
C116  C     C_3   0.104677 0.045295 0.696365 -0.417445
C117  C     C_3   0.431575 0.382838 0.721963 -0.410173
C118  C     C_3   0.851962 0.374980 0.791067 -0.249747
C119  C     C_3   0.845449 0.445458 0.757684 -0.299295
C120  C     C_3   0.829575 0.539422 0.781981 -0.467536
C121  C     C_3   0.022619 0.332543 0.716765 -0.411971
C122  C     C_3   0.786171 0.956390 0.706074 -0.256709
C123  C     C_3   0.788270 0.887499 0.741082 -0.300395
C124  C     C_3   0.781445 0.780138 0.718462 -0.463482
Cr1   Cr    Cr6+3 0.583430 0.162610 0.509470 1.006882
Cr2   Cr    Cr6+3 0.584210 0.916680 0.495400 0.988511
Cr3   Cr    Cr6+3 0.332380 0.920740 0.495100 1.005982
Cr4   Cr    Cr6+3 0.086810 0.177030 0.983130 1.006728
Cr5   Cr    Cr6+3 0.337180 0.419300 0.994610 1.005117
Cr6   Cr    Cr6+3 0.084840 0.422330 0.995830 1.016666
H1    H     H_    0.137105 0.598946 0.887671 0.132429
H2    H     H_    0.435729 0.863540 0.275910 0.108366
H3    H     H_    0.628670 0.791154 0.605165 0.149901
H4    H     H_    0.520249 0.663607 0.934116 0.139236
H5    H     H_    0.471801 0.528531 0.900542 0.169503
H6    H     H_    0.575727 0.649730 0.880991 0.104987
H7    H     H_    0.062172 0.742202 0.780481 0.147764
H8    H     H_    0.133895 0.822580 0.834748 0.157187
H9    H     H_    0.987764 0.786058 0.821223 0.141233
H10   H     H_    0.114700 0.980206 0.814529 0.175432
H11   H     H_    0.042932 0.899496 0.760837 0.158648
H12   H     H_    0.212067 0.891424 0.736318 0.136365
H13   H     H_    0.537510 0.759003 0.220678 0.101664
H14   H     H_    0.285363 0.949700 0.791750 0.147935
H15   H     H_    0.452469 0.584417 0.273392 0.096400
H16   H     H_    0.199587 0.027057 0.162849 0.106038
H17   H     H_    0.223203 0.965423 0.383372 0.127614
H18   H     H_    0.474240 0.307617 0.411312 0.128148
H19   H     H_    0.464711 0.374638 0.111044 0.131846
H20   H     H_    0.439791 0.328889 0.334747 0.104282
H21   H     H_    0.849349 0.334703 0.098402 0.117287
H22   H     H_    0.831655 0.350488 0.180380 0.106485
H23   H     H_    0.438250 0.076516 0.722005 0.100702
H24   H     H_    0.913779 0.364934 0.357277 0.109692
H25   H     H_    0.848354 0.298484 0.428063 0.116315
H26   H     H_    0.011954 0.137375 0.109393 0.133116
H27   H     H_    0.492959 0.668998 0.816968 0.101992
H28   H     H_    0.511581 0.715523 0.677137 0.106078
H29   H     H_    0.037866 0.025602 0.720221 0.119498
H30   H     H_    0.095623 0.096573 0.673333 0.131328
H31   H     H_    0.094797 0.968124 0.676415 0.132254
H32   H     H_    0.451419 0.444030 0.752967 0.129361
H33   H     H_    0.511572 0.399065 0.706259 0.130596
H34   H     H_    0.515010 0.274514 0.784690 0.104487
H35   H     H_    0.373660 0.390363 0.697883 0.133864
H36   H     H_    0.743933 0.506767 0.794868 0.149249
H37   H     H_    0.895146 0.585710 0.810746 0.151246
H38   H     H_    0.837484 0.595969 0.758156 0.138654
H39   H     H_    0.925267 0.480312 0.740441 0.156823
H40   H     H_    0.772949 0.395016 0.731722 0.164661
H41   H     H_    0.782833 0.356468 0.814097 0.143759
H42   H     H_    0.934956 0.420639 0.811706 0.141506
H43   H     H_    0.080448 0.392324 0.745780 0.135058
H44   H     H_    0.066742 0.292466 0.697626 0.128804
H45   H     H_    0.209956 0.256967 0.766690 0.102752
H46   H     H_    0.999176 0.375900 0.694106 0.121357
H47   H     H_    0.702203 0.731084 0.695814 0.147667
H48   H     H_    0.856015 0.797049 0.698636 0.147041
H49   H     H_    0.781064 0.731543 0.744680 0.138072
H50   H     H_    0.867906 0.934272 0.763779 0.157823
H51   H     H_    0.715019 0.868379 0.761960 0.161564
H52   H     H_    0.702308 0.912978 0.686069 0.143486
H53   H     H_    0.853155 0.968387 0.682577 0.142250
H54   H     H_    0.056371 0.523198 0.243355 0.131993
H55   H     H_    0.110075 0.493430 0.292033 0.137890
H56   H     H_    0.656902 0.187328 0.726907 0.099284
H57   H     H_    0.102743 0.619595 0.295641 0.128888
H58   H     H_    0.212947 0.389592 0.237511 0.133696
H59   H     H_    0.160986 0.416230 0.187400 0.153736
H60   H     H_    0.297464 0.420603 0.189572 0.137525
H61   H     H_    0.085618 0.025753 0.065911 0.154428
H62   H     H_    0.197279 0.001201 0.042611 0.137876
H63   H     H_    0.126508 0.937611 0.089203 0.111598
H64   H     H_    0.941424 0.792442 0.263078 0.148048
H65   H     H_    0.042009 0.744979 0.246874 0.149476
H66   H     H_    0.947336 0.687587 0.289760 0.139111
H67   H     H_    0.650774 0.022605 0.774619 0.105376
H68   H     H_    0.141886 0.819763 0.324185 0.163725
H69   H     H_    0.041512 0.867625 0.340383 0.158694
H70   H     H_    0.103375 0.984951 0.278710 0.144876
H71   H     H_    0.207600 0.941616 0.265957 0.144703
H72   H     H_    0.065846 0.637422 0.652289 0.121594
H73   H     H_    0.104679 0.565362 0.687820 0.118659
H74   H     H_    0.154031 0.710164 0.702917 0.124324
H75   H     H_    0.715668 0.501842 0.253840 0.150588
H76   H     H_    0.632539 0.572217 0.262330 0.144124
H77   H     H_    0.645664 0.499413 0.305040 0.139261
H78   H     H_    0.164512 0.649650 0.813090 0.105881
H79   H     H_    0.457537 0.391624 0.262770 0.164682
H80   H     H_    0.542847 0.322327 0.252343 0.180245
H81   H     H_    0.595952 0.403528 0.180794 0.140548
H82   H     H_    0.505723 0.463903 0.191531 0.136259
H83   H     H_    0.588548 0.724791 0.387621 0.171234
H84   H     H_    0.611943 0.708142 0.328392 0.144956
H85   H     H_    0.704158 0.701091 0.370129 0.131225
H86   H     H_    0.799673 0.880325 0.343252 0.152028
H87   H     H_    0.776749 0.897586 0.401749 0.187752
H88   H     H_    0.600032 0.911193 0.380742 0.181219
H89   H     H_    0.987828 0.147586 0.769050 0.096612
H90   H     H_    0.616317 0.888627 0.324426 0.128841
H91   H     H_    0.908271 0.482785 0.550355 0.147523
H92   H     H_    0.984958 0.460255 0.504298 0.144430
H93   H     H_    0.914214 0.355986 0.539224 0.155442
H94   H     H_    0.122795 0.456809 0.559742 0.161550
H95   H     H_    0.045259 0.476497 0.605207 0.167159
H96   H     H_    0.089950 0.662842 0.581292 0.141856
H97   H     H_    0.161605 0.631372 0.536819 0.165555
H98   H     H_    0.029557 0.173882 0.234777 0.136951
H99   H     H_    0.977427 0.057814 0.189720 0.122596
H100  H     H_    0.233564 0.747715 0.217021 0.098806
H101  H     H_    0.112672 0.179026 0.188504 0.141330
H102  H     H_    0.719946 0.014782 0.249942 0.137332
H103  H     H_    0.862658 0.038272 0.261807 0.130284
H104  H     H_    0.747384 0.925067 0.278941 0.115565
H105  H     H_    0.661973 0.619003 0.538721 0.147703
H106  H     H_    0.745060 0.690689 0.592119 0.148789
H107  H     H_    0.672246 0.542422 0.580415 0.148056
H108  H     H_    0.568414 0.607530 0.632299 0.154192
H109  H     H_    0.484926 0.537714 0.579489 0.167526
H110  H     H_    0.545565 0.713083 0.552877 0.173789
O1    O     O_R   0.493980 0.188910 0.559650 -0.511672
O2    O     O_R   0.170560 0.527890 0.952050 -0.521328
O3    O     O_R   0.987620 0.318470 0.945550 -0.496384
O4    O     O_R   0.678640 0.153520 0.554450 -0.495616
O5    O     O_R   0.976400 0.159270 0.031530 -0.525640
O6    O     O_R   0.194000 0.188570 0.028560 -0.504067
O7    O     O_R   0.365260 0.335720 0.039020 -0.521537
O8    O     O_R   0.330440 0.515580 0.044910 -0.496837
O9    O     O_R   0.177310 0.536200 0.050190 -0.507619
O10   O     O_R   0.993870 0.326170 0.036530 -0.496528
O11   O     O_3   0.169610 0.339550 0.991190 -0.238320
O12   O     O_R   0.480180 0.824400 0.444640 -0.513695
O13   O     O_R   0.698130 0.004030 0.549500 -0.513084
O14   O     O_R   0.481060 0.827210 0.535360 -0.506458
O15   O     O_R   0.309260 0.811560 0.537660 -0.519358
O16   O     O_R   0.341620 0.023400 0.546290 -0.491372
O17   O     O_R   0.493030 0.185890 0.461780 -0.516485
O18   O     O_R   0.677760 0.150720 0.463730 -0.498967
O19   O     O_R   0.697180 0.001010 0.451640 -0.528443
O20   O     O_R   0.308310 0.808540 0.439800 -0.513877
O21   O     O_R   0.340740 0.020600 0.455570 -0.506068
O22   O     O_3   0.500010 0.000010 0.499990 -0.231437
O23   O     O_R   0.969650 0.150960 0.933380 -0.506957
O24   O     O_R   0.187740 0.180870 0.937580 -0.494292
O25   O     O_R   0.358510 0.327410 0.940870 -0.517252
O26   O     O_R   0.324180 0.507870 0.953930 -0.503138

loop_
_geom_bond_atom_site_label_1
_geom_bond_atom_site_label_2
_ccdc_geom_bond_type
C6    H70   S    
C87   C88   T    
Cr5   O11   S    
C10   C85   S    
C5    H62   S    
C93   C94   A    
C53   O19   A    
C18   H95   S    
C16   H85   S    
C101  C113  A    
C45   C50   S    
C95   C96   A    
C19   H91   S    
C55   C56   S    
C24   C89   S    
C63   C65   S    
C118  H42   S    
C12   H77   S    
C120  H36   S    
C7    C8    S    
C115  O10   A    
C98   H22   S    
C45   C46   S    
C70   C114  A    
C29   H8    S    
C34   C41   S    
C41   O16   A    
Cr2   O22   S    
C22   C101  S    
C77   O21   A    
Cr2   O19   S    
C8    H65   S    
Cr3   O15   S    
Cr4   O5    S    
C118  H41   S    
C35   C38   S    
C28   C29   S    
C9    H74   S    
C76   C78   A    
C40   H34   S    
C68   C71   S    
C11   H80   S    
C1    O13   A    
C38   C39   S    
C5    C83   S    
C95   C106  S    
C81   H1    S    
C66   C69   S    
C20   C102  S    
C21   C94   S    
C26   C92   S    
C15   C16   S    
Cr1   O17   S    
C50   H89   S    
C27   H12   S    
C46   C118  S    
Cr1   O4    S    
Cr2   O12   S    
C18   C19   S    
C59   C89   A    
Cr4   O23   S    
C69   C71   S    
C70   C81   A    
C118  C119  S    
C124  H49   S    
C26   H5    S    
C9    H73   S    
C92   C103  A    
C71   H2    S    
C38   C117  S    
C52   C122  S    
C61   C66   S    
C80   H17   S    
C21   H103  S    
C21   H104  S    
C25   H106  S    
C66   C72   S    
C121  H43   S    
C74   C77   S    
C28   H10   S    
Cr1   O22   S    
C53   C91   S    
C50   C52   S    
Cr1   O1    S    
C51   C57   S    
C25   H107  S    
C113  H28   S    
C15   H87   S    
C18   H94   S    
C3    H54   S    
C14   C93   S    
C124  H48   S    
Cr6   O2    S    
C52   C55   S    
C3    C60   S    
C100  H26   S    
C23   C25   S    
C20   H101  S    
C77   O17   A    
C14   H90   S    
C61   C71   S    
C108  O25   A    
C33   C108  S    
C84   C90   A    
C90   C111  S    
C29   H7    S    
C3    H55   S    
C104  C105  S    
C82   H16   S    
C52   C54   S    
C50   C51   S    
C39   C42   S    
C22   H110  S    
Cr6   O10   S    
Cr6   O11   S    
C29   H9    S    
C96   H24   S    
Cr4   O11   S    
C74   C75   A    
C22   H3    S    
Cr3   O16   S    
C33   C43   T    
C64   C67   S    
C4    H60   S    
C116  H31   S    
C123  C124  S    
C103  C114  A    
C19   H93   S    
C84   C85   A    
C5    H61   S    
C6    H71   S    
C30   C92   A    
C9    H72   S    
C117  H35   S    
C23   H108  S    
C78   C79   A    
C103  H27   S    
C30   C109  S    
C45   C121  S    
C68   C73   S    
C85   C86   A    
C21   H102  S    
C99   H21   S    
C46   C51   S    
C28   H11   S    
C117  H33   S    
C49   C58   T    
C67   C68   S    
C41   O1    A    
C60   C61   S    
C67   C69   S    
C35   C36   S    
C64   C66   S    
C24   O15   A    
C16   H84   S    
C75   C76   A    
C63   C73   T    
C121  H44   S    
C67   H15   S    
C26   H4    S    
C1    O4    A    
C91   C93   A    
C23   H109  S    
C17   H96   S    
C31   C32   S    
C76   H20   S    
C11   C12   S    
Cr5   O25   S    
C96   C97   A    
C65   O20   A    
Cr6   O3    S    
C100  C102  A    
C61   H100  S    
C110  O23   A    
C62   C72   T    
C94   C95   A    
Cr2   O14   S    
C91   C97   A    
C37   C48   A    
C24   O14   A    
C2    C13   T    
C107  C115  S    
C124  H47   S    
C6    C7    S    
C2    C114  S    
C86   C87   S    
C119  H39   S    
C10   H82   S    
C122  H53   S    
C17   C59   S    
C45   C54   S    
C82   C83   A    
C112  O9    A    
C117  H32   S    
C31   C35   S    
C25   H105  S    
C32   C36   S    
C31   C116  S    
C27   C28   S    
C36   C40   S    
C110  O3    A    
C120  H38   S    
C48   C59   A    
C5    H63   S    
C54   C58   S    
Cr6   O9    S    
C78   C88   S    
C112  O8    A    
C83   C90   A    
C100  C107  A    
C20   H99   S    
C89   C101  A    
C27   C32   S    
C14   C15   S    
C13   C37   S    
C4    H59   S    
C22   C23   S    
C19   H92   S    
C53   O18   A    
C42   H23   S    
C56   H56   S    
C15   H86   S    
C36   C43   S    
C3    H57   S    
C119  C120  S    
C54   C56   S    
C116  H30   S    
C39   C44   S    
C123  H50   S    
C75   H18   S    
C69   H13   S    
C47   C110  S    
C99   C107  A    
C105  C106  T    
C4    C64   S    
C20   H98   S    
Cr3   O22   S    
C102  C104  A    
C17   C18   S    
C60   C64   S    
C35   H45   S    
C12   H75   S    
C4    H58   S    
C7    H68   S    
Cr4   O6    S    
C123  H51   S    
C82   C86   A    
C84   H19   S    
C38   C40   S    
C17   H97   S    
C27   H14   S    
C6    C79   S    
C55   H67   S    
C1    C49   S    
C109  O2    A    
C30   C81   A    
C111  O6    A    
C98   C104  A    
Cr5   O7    S    
Cr1   O18   S    
C40   C42   S    
C31   C39   S    
C8    H66   S    
Cr2   O13   S    
C51   C55   S    
C97   H25   S    
C7    H69   S    
C16   H83   S    
C109  O26   A    
Cr4   O24   S    
C26   H6    S    
C10   C11   S    
C119  H40   S    
C79   C80   A    
C121  H46   S    
Cr3   O21   S    
C10   H81   S    
C122  H52   S    
C62   C112  S    
C60   C68   S    
C9    C48   S    
C111  O7    A    
C98   C99   A    
C65   O12   A    
C46   C56   S    
C47   C57   T    
C32   C42   S    
Cr3   O20   S    
C14   H88   S    
C37   C113  A    
C74   C80   A    
C116  H29   S    
C34   C44   T    
C122  C123  S    
C108  O24   A    
C70   H78   S    
C11   H79   S    
Cr5   O26   S    
C120  H37   S    
C12   H76   S    
C8    H64   S    
C115  O5    A    
Cr5   O8    S    
