data_mof_unit_43114.cif
_audit_creation_date              2013-03-05T16:02:43-0500
_audit_creation_method            fapswitch 2.2
_symmetry_space_group_name_H-M    P1
_symmetry_Int_Tables_number       1
_space_group_crystal_system       triclinic
_cell_length_a                    23.378721
_cell_length_b                    11.710169
_cell_length_c                    10.443562
_cell_angle_alpha                 90.066608
_cell_angle_beta                  89.902586
_cell_angle_gamma                 90.291071
_cell_volume                      2859.0782344

loop_
_atom_site_label
_atom_site_type_symbol
_atom_site_description
_atom_site_fract_x
_atom_site_fract_y
_atom_site_fract_z
_atom_type_partial_charge
O1    O     O_R   0.500000 0.337200 0.605810 -0.574472
O2    O     O_R   0.500000 0.662800 0.394190 -0.577311
O3    O     O_R   0.500000 0.662800 0.605810 -0.576643
O4    O     O_R   0.500000 0.337200 0.394190 -0.574131
C1    C     C_R   0.500083 0.283278 0.499936 0.849558
C2    C     C_R   0.500042 0.716720 0.500052 0.848611
O5    O     O_R   0.417880 0.500000 0.605840 -0.568494
O6    O     O_R   0.582120 0.500000 0.394160 -0.561944
O7    O     O_R   0.582120 0.500000 0.605840 -0.585871
O8    O     O_R   0.417880 0.500000 0.394160 -0.573515
C3    C     C_R   0.390460 0.500718 0.499925 0.968854
C4    C     C_R   0.609522 0.498733 0.499951 0.963554
Cu1   Cu    Cu3+1 0.500000 0.500000 0.625300 0.975770
Cu2   Cu    Cu3+1 0.500000 0.500000 0.374700 0.981615
C5    C     C_R   0.876939 0.548395 0.404427 0.650146
C6    C     C_R   0.123240 0.382027 0.459615 0.656967
C7    C     C_R   0.884545 0.384187 0.536915 0.603422
C8    C     C_R   0.117397 0.553850 0.350955 0.633696
N1    N     N_R   0.852537 0.466346 0.479614 -0.418071
N2    N     N_R   0.148552 0.484081 0.428989 -0.438992
C9    C     C_R   0.943285 0.374637 0.509044 -0.103739
C10   C     C_R   0.057490 0.559220 0.365313 -0.136050
C11   C     C_R   0.937148 0.557957 0.395369 -0.124701
C12   C     C_R   0.063276 0.374932 0.475465 -0.139930
C13   C     C_R   0.970304 0.467095 0.445284 -0.076809
C14   C     C_R   0.030277 0.468054 0.430717 -0.076775
C15   C     C_R   0.975599 0.277637 0.544833 0.175809
C16   C     C_R   0.024894 0.652728 0.319943 0.144427
C17   C     C_R   0.964955 0.653756 0.338526 0.163250
C18   C     C_R   0.035720 0.279933 0.534080 0.160901
O9    O     O_2   0.842476 0.617597 0.336983 -0.501475
O10   O     O_2   0.155837 0.287815 0.465531 -0.452487
O11   O     O_2   0.859770 0.316861 0.625559 -0.554944
O12   O     O_2   0.142494 0.602920 0.249011 -0.473377
C19   C     C_R   0.241597 0.597616 0.415968 0.353152
C20   C     C_R   0.757950 0.386305 0.430539 0.356822
C21   C     C_R   0.233668 0.446319 0.571152 0.359090
C22   C     C_R   0.765604 0.552068 0.573551 0.340700
C23   C     C_R   0.301578 0.589197 0.418326 0.209485
C24   C     C_R   0.698100 0.404040 0.422459 0.211597
C25   C     C_R   0.294039 0.441821 0.581347 0.281229
C26   C     C_R   0.705679 0.559574 0.578094 0.270150
C27   C     C_R   0.327678 0.508627 0.498364 -0.330960
C28   C     C_R   0.672148 0.487647 0.500116 -0.336210
C29   C     C_R   0.207923 0.508081 0.468480 -0.032749
C30   C     C_R   0.791520 0.466439 0.497809 0.064909
C31   C     C_1   0.500210 0.161955 0.499827 -0.163785
C32   C     C_1   0.500144 0.838039 0.500116 -0.167837
C33   C     C_1   0.500263 0.059712 0.499879 0.003817
C34   C     C_1   0.500228 0.940282 0.500025 0.002844
N3    N     N_1   0.500000 0.500000 0.186410 -0.155990
N4    N     N_1   0.500000 0.500000 0.813590 -0.156245
C35   C     C_1   0.500065 0.500038 0.071994 0.066711
C36   C     C_1   0.500123 0.500079 0.928024 0.053817
I1    I     I_    0.934437 0.117752 0.592373 -0.213813
I2    I     I_    0.065843 0.801252 0.237520 -0.219476
I3    I     I_    0.919669 0.810295 0.299519 -0.218159
I4    I     I_    0.082611 0.144844 0.625940 -0.242973
O13   O     O_3   0.217245 0.697867 0.372690 -0.537597
C37   C     C_3   0.222234 0.783988 0.467615 0.124521
H1    H     H_    0.223406 0.867813 0.417949 0.189907
H2    H     H_    0.262689 0.778935 0.523877 0.132835
C38   C     C_3   0.170410 0.782205 0.557720 -0.405419
H3    H     H_    0.131003 0.800515 0.502394 0.264803
H4    H     H_    0.165682 0.696656 0.601853 0.191682
C39   C     C_3   0.176887 0.870392 0.664342 -0.814157
H5    H     H_    0.214063 0.848991 0.725784 0.240427
H6    H     H_    0.137696 0.870692 0.724548 0.278332
H7    H     H_    0.183282 0.956944 0.623243 0.288222
O14   O     O_3   0.786637 0.301489 0.362400 -0.594067
C40   C     C_3   0.763007 0.190072 0.377191 0.117754
H8    H     H_    0.793465 0.130156 0.331076 0.178829
H9    H     H_    0.722908 0.179123 0.322462 0.174943
C41   C     C_3   0.755605 0.151346 0.517271 -0.368654
H10   H     H_    0.797654 0.152460 0.565836 0.286393
H11   H     H_    0.726088 0.208967 0.569619 0.211825
C42   C     C_3   0.731385 0.030187 0.524118 -0.832598
H12   H     H_    0.688621 0.026310 0.478029 0.253235
H13   H     H_    0.726801 0.004109 0.625841 0.263707
H14   H     H_    0.760563 0.969336 0.475428 0.282479
O15   O     O_3   0.200641 0.389985 0.661876 -0.553539
C43   C     C_3   0.171286 0.471519 0.737441 -0.001905
H15   H     H_    0.135578 0.509703 0.682189 0.151017
H16   H     H_    0.200535 0.541248 0.770219 0.113006
C44   C     C_3   0.146094 0.412918 0.855595 -0.323963
H17   H     H_    0.116730 0.343200 0.825073 0.254361
H18   H     H_    0.181080 0.375055 0.913279 0.215913
C45   C     C_3   0.113054 0.497157 0.938949 -0.814623
H19   H     H_    0.141679 0.567406 0.971459 0.280833
H20   H     H_    0.095833 0.452378 0.024519 0.270098
H21   H     H_    0.076729 0.533757 0.884464 0.249123
O16   O     O_3   0.797686 0.638029 0.630941 -0.551293
C46   C     C_3   0.830972 0.593811 0.732358 0.064384
H22   H     H_    0.872964 0.565245 0.694957 0.162581
H23   H     H_    0.809554 0.521014 0.782521 0.128461
C47   C     C_3   0.842375 0.688958 0.829544 -0.341950
H24   H     H_    0.865758 0.760030 0.781714 0.251468
H25   H     H_    0.801154 0.722743 0.866273 0.224559
C48   C     C_3   0.877857 0.646071 0.942075 -0.826555
H26   H     H_    0.854550 0.577167 0.993729 0.263209
H27   H     H_    0.885928 0.717459 0.009763 0.287288
H28   H     H_    0.919660 0.613033 0.907897 0.254467
O17   O     O_3   0.334923 0.668876 0.354144 -0.592678
C49   C     C_3   0.333007 0.644533 0.221690 0.121218
H29   H     H_    0.289285 0.659091 0.182987 0.184962
H30   H     H_    0.345721 0.554476 0.203257 0.143405
C50   C     C_3   0.374969 0.722806 0.151354 -0.324794
H31   H     H_    0.363242 0.813357 0.168944 0.229115
H32   H     H_    0.418859 0.708749 0.188719 0.242660
C51   C     C_3   0.374466 0.699734 0.007407 -0.930794
H33   H     H_    0.386229 0.609693 0.987520 0.258786
H34   H     H_    0.405931 0.756603 0.959170 0.266588
H35   H     H_    0.331344 0.716536 0.967284 0.256884
O18   O     O_3   0.663940 0.337468 0.343845 -0.607846
C52   C     C_3   0.670538 0.374071 0.215687 0.090268
H36   H     H_    0.715717 0.365409 0.183263 0.167949
H37   H     H_    0.657279 0.464877 0.205222 0.161728
C53   C     C_3   0.632744 0.299530 0.130022 -0.324689
H38   H     H_    0.645047 0.208553 0.141544 0.215551
H39   H     H_    0.587317 0.308655 0.159753 0.241138
C54   C     C_3   0.638659 0.332464 0.989304 -0.938668
H40   H     H_    0.624824 0.421876 0.974901 0.248791
H41   H     H_    0.611168 0.275832 0.929965 0.266504
H42   H     H_    0.683722 0.323370 0.957118 0.257444
O19   O     O_3   0.321207 0.362098 0.658450 -0.577403
C55   C     C_3   0.307604 0.377733 0.789197 0.142435
H43   H     H_    0.271874 0.319282 0.815033 0.199745
H44   H     H_    0.295883 0.467674 0.812889 0.106054
C56   C     C_3   0.359317 0.345768 0.870314 -0.346819
H45   H     H_    0.375101 0.259968 0.841873 0.238472
H46   H     H_    0.393861 0.409093 0.853115 0.234881
C57   C     C_3   0.344382 0.344644 0.012573 -0.938873
H47   H     H_    0.324108 0.426434 0.040457 0.246265
H48   H     H_    0.383838 0.332824 0.070014 0.268389
H49   H     H_    0.314229 0.273464 0.033706 0.271016
O20   O     O_3   0.680168 0.649282 0.642622 -0.566358
C58   C     C_3   0.675332 0.621650 0.773861 0.093019
H50   H     H_    0.718068 0.609371 0.817569 0.139975
H51   H     H_    0.649819 0.542131 0.787687 0.148749
C59   C     C_3   0.645482 0.719831 0.843033 -0.312875
H52   H     H_    0.670176 0.800039 0.827443 0.228237
H53   H     H_    0.601911 0.731156 0.802568 0.233010
C60   C     C_3   0.640645 0.697806 0.986686 -0.926974
H54   H     H_    0.613478 0.621657 0.005137 0.251362
H55   H     H_    0.620616 0.772595 0.034015 0.265078
H56   H     H_    0.683662 0.684396 0.028990 0.261775

loop_
_geom_bond_atom_site_label_1
_geom_bond_atom_site_label_2
_geom_bond_distance
_ccdc_geom_bond_type
C60   H56   1.111087 S    
C39   H6    1.110379 S    
C23   O17   1.385597 S    
C38   H4    1.108163 S    
C46   H22   1.109046 S    
C50   H32   1.111521 S    
C19   C23   1.406485 A    
C59   C60   1.526463 S    
O3    C2    1.272866 A    
C49   H30   1.113585 S    
O15   C43   1.417190 S    
C16   I2    2.160134 S    
N1    C30   1.438794 S    
C31   C33   1.197296 T    
C42   H12   1.111028 S    
C5    N1    1.363758 A    
C1    C31   1.420731 S    
C55   H43   1.110363 S    
C2    C32   1.420660 S    
C37   C38   1.532910 S    
O1    C1    1.272661 A    
C11   C17   1.423499 A    
C19   O13   1.384016 S    
C16   C17   1.414457 A    
C59   H53   1.112090 S    
C22   C26   1.404885 A    
C15   I1    2.158758 S    
C42   H14   1.111115 S    
C39   H7    1.110447 S    
C60   H54   1.109021 S    
C47   C48   1.526560 S    
C22   O16   1.388354 S    
C26   O20   1.384468 S    
O7    Cu1   1.930244 S    
C53   H38   1.111624 S    
C54   H42   1.110895 S    
C51   H34   1.110379 S    
C51   H33   1.110303 S    
C24   O18   1.383467 S    
C48   H26   1.111078 S    
N4    C36   1.195102 T    
C57   H47   1.109179 S    
C52   H37   1.114656 S    
C41   C42   1.526649 S    
C47   H25   1.111142 S    
O6    Cu2   1.930931 S    
C50   H31   1.111584 S    
C20   C30   1.408159 A    
O14   C40   1.422741 S    
N2    C29   1.474237 S    
O3    Cu1   1.917486 S    
C6    N2    1.368843 A    
C56   C57   1.525655 S    
C32   C34   1.197272 T    
C39   H5    1.111051 S    
C9    C15   1.418203 A    
C38   C39   1.524988 S    
O13   C37   1.417849 S    
C46   H23   1.116993 S    
C10   C16   1.419566 A    
Cu1   Cu2   2.617157 S    
C15   C18   1.409961 A    
C21   C25   1.416857 A    
C25   C27   1.405181 A    
C21   O15   1.386679 S    
O2    C2    1.272539 A    
C26   C28   1.407489 A    
C49   H29   1.113816 S    
C20   O14   1.395055 S    
O18   C52   1.413814 S    
C12   C18   1.421365 A    
C44   H18   1.111080 S    
C58   C59   1.528144 S    
C54   H41   1.110390 S    
C41   H10   1.106955 S    
C25   O19   1.390275 S    
C20   C24   1.418252 A    
C59   H52   1.111985 S    
O8    Cu2   1.930246 S    
C40   H9    1.105618 S    
O4    C1    1.272783 A    
C23   C27   1.403785 A    
C55   C56   1.525870 S    
C13   C14   1.410035 A    
C44   H17   1.110786 S    
C5    O9    1.346059 S    
C7    C9    1.408265 A    
C37   H1    1.110944 S    
N3    C35   1.194914 T    
C53   C54   1.525664 S    
O5    C3    1.279460 A    
Cu1   N4    1.966419 S    
C58   H51   1.112694 S    
Cu2   N3    1.966418 S    
C45   H21   1.111117 S    
O5    Cu1   1.930933 S    
O6    C4    1.278206 A    
C52   C53   1.528409 S    
C47   H24   1.111960 S    
C42   H13   1.110574 S    
C7    O11   1.345115 S    
C3    C27   1.471271 S    
C8    O12   1.343072 S    
C51   H35   1.110960 S    
C54   H40   1.107920 S    
C41   H11   1.110397 S    
C57   H48   1.110525 S    
C48   H27   1.109782 S    
C17   I3    2.161024 S    
C43   H15   1.111677 S    
C46   C47   1.529030 S    
C43   H16   1.116226 S    
O19   C55   1.413395 S    
C50   C51   1.527145 S    
O1    Cu1   1.917016 S    
C21   C29   1.429512 A    
C19   C29   1.418209 A    
C56   H45   1.112018 S    
C44   C45   1.526758 S    
C60   H55   1.110380 S    
C9    C13   1.417023 A    
C55   H44   1.116989 S    
C8    C10   1.409995 A    
C12   C14   1.419046 A    
C45   H20   1.110589 S    
O20   C58   1.412858 S    
C40   C41   1.541312 S    
C35   C36   1.503558 S    
C6    O10   1.345583 S    
C43   C44   1.528335 S    
C58   H50   1.109257 S    
C40   H8    1.111035 S    
C4    C28   1.470519 S    
C37   H2    1.116152 S    
C57   H49   1.111019 S    
C18   I4    2.156218 S    
C5    C11   1.414490 A    
O16   C46   1.415516 S    
C7    N1    1.361570 A    
C8    N2    1.368129 A    
C11   C13   1.419778 A    
O4    Cu2   1.917486 S    
O2    Cu2   1.917016 S    
O7    C4    1.277175 A    
C53   H39   1.111630 S    
C22   C30   1.414564 A    
O8    C3    1.276208 A    
C38   H3    1.110252 S    
C24   C28   1.409581 A    
C48   H28   1.111091 S    
C45   H19   1.111018 S    
C6    C12   1.413368 A    
C33   C34   1.398539 S    
C10   C14   1.415758 A    
O17   C49   1.412768 S    
C49   C50   1.527113 S    
C52   H36   1.113727 S    
C56   H46   1.108192 S    
