data_mof_unit_8044.cif
_audit_creation_date              2012-12-11T18:13:12-0500
_audit_creation_method            fapswitch 2.2
_symmetry_space_group_name_H-M    P1
_symmetry_Int_Tables_number       1
_space_group_crystal_system       triclinic
_cell_length_a                    8.261998
_cell_length_b                    12.667947
_cell_length_c                    18.718997
_cell_angle_alpha                 99.759988
_cell_angle_beta                  91.521236
_cell_angle_gamma                 98.385357
_cell_volume                      1907.53798924

loop_
_atom_site_label
_atom_site_type_symbol
_atom_type_description
_atom_site_fract_x
_atom_site_fract_y
_atom_site_fract_z
_atom_type_partial_charge
Ba1   Ba    Ba6+2 0.852780 0.548340 0.465070 1.628892
Ba2   Ba    Ba6+2 0.337060 0.451750 0.534940 1.622266
C1    C     C_3   0.580479 0.899989 0.252791 -0.413823
C2    C     C_3   0.628977 0.818864 0.297518 0.347191
C3    C     C_3   0.459905 0.277451 0.313664 0.309331
C4    C     C_3   0.433341 0.241000 0.231979 -0.401690
C5    C     C_3   0.053273 0.237371 0.733227 0.360686
C6    C     C_3   0.068787 0.212010 0.809424 -0.373994
C7    C     C_3   0.549530 0.176400 0.695142 0.346356
C8    C     C_3   0.588692 0.085934 0.733531 -0.410853
C9    C     C_R   0.992079 0.449321 0.047912 0.005179
C10   C     C_R   0.891496 0.396863 0.095074 0.034547
C11   C     C_R   0.729627 0.351312 0.071776 -0.083924
C12   C     C_3   0.124624 0.762005 0.265799 0.362612
C13   C     C_R   0.668494 0.356984 0.002374 -0.091692
C14   C     C_R   0.768943 0.406511 0.954294 0.034917
C15   C     C_R   0.931291 0.453062 0.976902 0.013793
C16   C     C_R   0.709856 0.408134 0.883688 -0.104559
C17   C     C_R   0.812132 0.452209 0.833369 -0.075499
C18   C     C_R   0.974346 0.501984 0.856213 -0.011745
C19   C     C_R   0.032677 0.502780 0.928557 -0.000520
C20   C     C_R   0.758561 0.444410 0.760210 0.021886
C21   C     C_R   0.867781 0.480893 0.710019 -0.130732
C22   C     C_R   0.024980 0.538660 0.732275 0.056850
C23   C     C_3   0.104187 0.787555 0.189868 -0.367269
C24   C     C_R   0.078435 0.550477 0.807125 -0.061183
C25   C     C_R   0.153502 0.496816 0.071365 -0.008320
C26   C     C_R   0.212587 0.496310 0.143363 -0.004726
C27   C     C_R   0.109056 0.446688 0.192085 -0.047179
C28   C     C_R   0.952512 0.391952 0.165108 -0.041737
C29   C     C_R   0.234222 0.606418 0.834499 -0.033278
C30   C     C_R   0.294466 0.602863 0.904919 0.031139
C31   C     C_R   0.193862 0.550608 0.952120 0.007081
C32   C     C_R   0.254595 0.547039 0.023184 0.013478
C33   C     C_R   0.455926 0.649171 0.928466 -0.085625
C34   C     C_3   0.179853 0.805032 0.638497 0.361952
C35   C     C_R   0.517013 0.643731 0.997915 -0.089132
C36   C     C_R   0.416885 0.593719 0.045864 0.031709
C37   C     C_R   0.375053 0.545769 0.166308 -0.043274
C38   C     C_R   0.476548 0.591177 0.116259 -0.109885
C39   C     C_R   0.430095 0.550223 0.239054 -0.002708
C40   C     C_R   0.323210 0.508934 0.288024 -0.296707
C41   C     C_R   0.164901 0.455368 0.266164 0.045018
C42   C     C_R   0.766469 0.180638 0.523669 -0.268232
C43   C     C_R   0.430337 0.806419 0.467804 -0.245779
C44   C     C_R   0.401263 0.983754 0.443933 -0.103475
C45   C     C_3   0.115955 0.910495 0.664908 -0.291321
C46   C     C_R   0.337817 0.875301 0.440109 -0.001561
C47   C     C_R   0.579798 0.847251 0.506739 0.100766
C48   C     C_R   0.643102 0.959540 0.514092 -0.052769
C49   C     C_R   0.553709 0.027502 0.480451 -0.065677
C50   C     C_R   0.617613 0.138228 0.485784 0.040990
C51   C     C_R   0.856876 0.115480 0.555710 -0.010931
C52   C     C_R   0.793087 0.006208 0.553071 -0.094926
C53   C     C_3   0.957168 0.211074 0.378251 0.276193
C54   C     C_3   0.951941 0.088996 0.361827 -0.340276
C55   C     C_3   0.724922 0.713007 0.685359 0.295831
C56   C     C_3   0.727003 0.750485 0.766951 -0.391951
H1    H     H_    0.719159 0.861682 0.341817 0.071814
H2    H     H_    0.188443 0.956744 0.714048 0.123881
H3    H     H_    0.126905 0.959531 0.621251 0.125694
H4    H     H_    0.986370 0.894486 0.678722 0.107927
H5    H     H_    0.833625 0.229763 0.390290 0.004182
H6    H     H_    0.043606 0.243812 0.425904 0.075539
H7    H     H_    0.869943 0.054061 0.313218 0.116424
H8    H     H_    0.905580 0.051913 0.408172 0.083599
H9    H     H_    0.076880 0.069643 0.351318 0.140069
H10   H     H_    0.847671 0.693953 0.671509 -0.005670
H11   H     H_    0.629306 0.640618 0.670779 0.071189
H12   H     H_    0.531278 0.965999 0.288397 0.103130
H13   H     H_    0.823360 0.821960 0.783951 0.121420
H14   H     H_    0.753159 0.684328 0.795453 0.055728
H15   H     H_    0.606034 0.772899 0.782424 0.114723
H16   H     H_    0.517123 0.785085 0.322562 -0.059040
H17   H     H_    0.484926 0.858719 0.210390 0.113126
H18   H     H_    0.345628 0.303249 0.335404 0.020294
H19   H     H_    0.561417 0.346918 0.324314 0.060140
H20   H     H_    0.327936 0.174331 0.219615 0.129578
H21   H     H_    0.407561 0.309513 0.205847 0.057355
H22   H     H_    0.544913 0.211822 0.209291 0.117108
H23   H     H_    0.688189 0.935222 0.225765 0.128649
H24   H     H_    0.140443 0.721803 0.149282 0.071726
H25   H     H_    0.132864 0.315482 0.731656 0.089300
H26   H     H_    0.923743 0.245254 0.721527 -0.067206
H27   H     H_    0.198646 0.207823 0.823899 0.146702
H28   H     H_    0.026227 0.276234 0.849114 0.074876
H29   H     H_    0.992885 0.133094 0.812370 0.108822
H30   H     H_    0.664028 0.209760 0.671697 -0.047381
H31   H     H_    0.457204 0.141933 0.649895 0.089607
H32   H     H_    0.640493 0.024508 0.695013 0.093968
H33   H     H_    0.475865 0.046631 0.755061 0.124343
H34   H     H_    0.042693 0.685263 0.268577 0.093681
H35   H     H_    0.680052 0.119466 0.779299 0.115915
H36   H     H_    0.649601 0.311976 0.107484 0.062283
H37   H     H_    0.542871 0.321376 0.985979 0.071482
H38   H     H_    0.584461 0.372009 0.868257 0.105843
H39   H     H_    0.874139 0.347334 0.198556 0.098088
H40   H     H_    0.313364 0.650335 0.801029 0.105310
H41   H     H_    0.535841 0.688752 0.892891 0.062590
H42   H     H_    0.642496 0.679622 0.014370 0.071165
H43   H     H_    0.602325 0.626450 0.131455 0.110578
H44   H     H_    0.253782 0.750965 0.275071 -0.072881
H45   H     H_    0.366317 0.515235 0.343900 0.070422
H46   H     H_    0.327532 0.033001 0.419474 0.100113
H47   H     H_    0.863099 0.958839 0.580396 0.098104
H48   H     H_    0.817160 0.264062 0.524160 0.049664
H49   H     H_    0.379673 0.721785 0.463903 0.069985
H50   H     H_    0.974421 0.794759 0.177666 0.149238
H51   H     H_    0.182658 0.865030 0.185675 0.110681
H52   H     H_    0.105448 0.761638 0.589528 0.101729
O1    O     O_2   0.873090 0.425890 0.325140 -0.468356
O2    O     O_3   0.690932 0.797059 0.650548 -0.651759
O3    O     O_3   0.082859 0.847506 0.316656 -0.600613
O4    O     O_2   0.316610 0.574140 0.674900 -0.467564
O5    O     O_3   0.067290 0.565720 0.585630 -0.514015
O6    O     O_3   0.530210 0.372990 0.631200 -0.436508
O7    O     O_3   0.176130 0.745725 0.694913 -0.649191
O8    O     O_3   0.611340 0.366290 0.463630 -0.476917
O9    O     O_3   0.108550 0.314140 0.595200 -0.496441
O10   O     O_2   0.195447 0.121428 0.551296 -0.481863
O11   O     O_3   0.103009 0.153404 0.683750 -0.604688
O12   O     O_3   0.122420 0.434370 0.414380 -0.492939
O13   O     O_3   0.578370 0.633800 0.536380 -0.495715
O14   O     O_2   0.341510 0.231850 0.465510 -0.463872
O15   O     O_3   0.499244 0.190558 0.344630 -0.651184
O16   O     O_2   0.418188 0.451494 0.757213 -0.499316
O17   O     O_3   0.484374 0.253575 0.744903 -0.600111
O18   O     O_3   0.659500 0.627100 0.368810 -0.472723
O19   O     O_2   0.768535 0.544254 0.243133 -0.494687
O20   O     O_3   0.006320 0.253084 0.316670 -0.640161
O21   O     O_3   0.702077 0.740410 0.252433 -0.597716
O22   O     O_2   0.848200 0.768190 0.534530 -0.485154
O23   O     O_3   0.081160 0.685950 0.404810 -0.485429
O24   O     O_2   0.004105 0.879954 0.451823 -0.484123
P1    P     P_3+3 0.041040 0.394770 0.336330 0.972251
P2    P     P_3+3 0.672880 0.754030 0.556100 0.949373
P3    P     P_3+3 0.127225 0.823836 0.404010 0.954810
P4    P     P_3+3 0.148670 0.605320 0.663680 0.953769
P5    P     P_3+3 0.064247 0.174985 0.595406 0.939954
P6    P     P_3+3 0.639193 0.612702 0.274935 0.949050
P7    P     P_3+3 0.520046 0.230246 0.438996 0.935447
P8    P     P_3+3 0.547269 0.382953 0.725026 0.973367
N1    N     N_3   0.815386 0.456176 0.635037 -0.471313
H53   H     H_    0.795966 0.524482 0.614173 0.190381
H54   H     H_    0.893891 0.412008 0.605066 0.206930
N2    N     N_3   0.347209 0.829662 0.619760 -0.532613
H55   H     H_    0.417925 0.867879 0.666667 0.192658
H56   H     H_    0.382491 0.753849 0.605262 0.169663

loop_
_geom_bond_atom_site_label_1
_geom_bond_atom_site_label_2
_ccdc_geom_bond_type
C5    H25   S    
C53   C54   S    
O23   P3    S    
C16   H38   S    
C39   C40   A    
C17   C18   A    
Ba1   O18   S    
Ba1   O22   S    
O1    P1    D    
C40   H45   S    
C45   H4    S    
Ba2   O8    S    
C5    C6    S    
C37   C39   A    
C51   C52   A    
C28   H39   S    
C7    O17   S    
C46   P3    S    
C26   C27   A    
C33   C35   A    
O2    P2    S    
C6    H27   S    
C7    H30   S    
C13   H37   S    
C3    C4    S    
C33   H41   S    
C56   H13   S    
C4    H20   S    
C55   O2    S    
C19   C31   A    
C13   C14   A    
C34   C45   S    
Ba1   Ba2   S    
C29   H40   S    
Ba1   O12   S    
C39   P6    S    
O21   P6    S    
C45   H2    S    
Ba2   O6    S    
C42   C51   A    
O20   P1    S    
Ba2   O9    S    
O15   P7    S    
C14   C15   A    
C53   H5    S    
C1    H23   S    
C21   C22   A    
C43   C47   A    
Ba1   P2    S    
C1    H17   S    
C7    C8    S    
C2    H16   S    
C23   H51   S    
O8    P7    S    
C5    H26   S    
C38   H43   S    
C24   C29   A    
C51   P5    S    
C27   C41   A    
C21   N1    S    
O24   P3    D    
Ba1   O23   S    
C48   C49   A    
C2    O21   S    
N2    H56   S    
Ba2   O12   S    
C25   C32   A    
C44   C46   A    
C49   C50   A    
Ba2   P4    S    
C30   C33   A    
C17   C20   A    
C7    H31   S    
C37   C38   A    
C16   C17   A    
C26   C37   A    
C22   P4    S    
Ba2   O13   S    
C44   H46   S    
C44   C49   A    
O16   P8    D    
C15   C19   A    
O17   P8    S    
Ba1   O13   S    
C35   C36   A    
Ba2   O5    S    
C5    O11   S    
C4    H22   S    
C29   C30   A    
O5    P4    S    
C9    C25   A    
O22   P2    D    
C53   O20   S    
C53   H6    S    
C1    H12   S    
C31   C32   A    
O10   P5    D    
C48   C52   A    
C10   C11   A    
C41   P1    S    
C34   O7    S    
C12   H34   S    
O6    P8    S    
C34   N2    S    
C47   P2    S    
C8    H33   S    
Ba2   O14   S    
C11   C13   A    
C34   H52   S    
C23   H24   S    
O3    P3    S    
O14   P7    D    
C40   C41   A    
C55   H10   S    
C3    H19   S    
C1    C2    S    
C12   O3    S    
N2    H55   S    
C43   C46   A    
N1    H54   S    
C9    C15   A    
C52   H47   S    
C10   C28   A    
C32   C36   A    
C22   C24   A    
O7    P4    S    
C42   C50   A    
C45   H3    S    
C9    C10   A    
C42   H48   S    
C56   H15   S    
C54   H9    S    
C11   H36   S    
C50   P7    S    
C8    H35   S    
O13   P2    S    
C6    H29   S    
O9    P5    S    
C30   C31   A    
O11   P5    S    
C3    H18   S    
N1    H53   S    
O18   P6    S    
Ba1   O1    S    
C36   C38   A    
Ba2   O4    S    
C56   H14   S    
C4    H21   S    
O19   P6    D    
C18   C24   A    
C20   P8    S    
C54   H8    S    
C2    H1    S    
C6    H28   S    
Ba1   O8    S    
O4    P4    D    
C12   C23   S    
O12   P1    S    
C12   H44   S    
C27   C28   A    
C43   H49   S    
C18   C19   A    
C8    H32   S    
C14   C16   A    
C47   C48   A    
C3    O15   S    
C25   C26   A    
C20   C21   A    
Ba1   O5    S    
C55   H11   S    
C55   C56   S    
Ba1   P1    S    
C35   H42   S    
C54   H7    S    
C23   H50   S    
