data_mof_unit_42870.cif
_audit_creation_date              2012-12-10T18:44:28-0500
_audit_creation_method            fapswitch 2.2
_symmetry_space_group_name_H-M    P1
_symmetry_Int_Tables_number       1
_space_group_crystal_system       triclinic
_cell_length_a                    12.92188
_cell_length_b                    10.640283
_cell_length_c                    9.824371
_cell_angle_alpha                 89.97946
_cell_angle_beta                  98.039464
_cell_angle_gamma                 89.946716
_cell_volume                      1337.50072649

loop_
_atom_site_label
_atom_site_type_symbol
_atom_type_description
_atom_site_fract_x
_atom_site_fract_y
_atom_site_fract_z
_atom_type_partial_charge
C1    C     C_R   0.502589 0.260243 0.500368 0.835257
C2    C     C_R   0.702377 0.495596 0.528518 0.875206
C3    C     C_R   0.815542 0.488950 0.548306 -0.100260
C4    C     C_R   0.184458 0.511051 0.451694 -0.100259
C5    C     C_R   0.014207 0.499438 0.314583 -0.272388
C6    C     C_R   0.985793 0.500563 0.685417 -0.272388
C7    C     C_R   0.121881 0.510038 0.320438 0.001044
C8    C     C_R   0.878119 0.489962 0.679562 0.001044
C9    C     C_R   0.137493 0.511369 0.571676 -0.270193
C10   C     C_R   0.862507 0.488631 0.428324 -0.270193
C11   C     C_R   0.030873 0.503728 0.564521 0.179939
C12   C     C_R   0.497411 0.739757 0.499632 0.835256
C13   C     C_R   0.969127 0.496272 0.435479 0.179939
C14   C     C_R   0.423399 0.068009 0.416031 -0.132314
C15   C     C_R   0.576601 0.931991 0.583969 -0.132315
C16   C     C_R   0.417220 0.938500 0.415550 -0.046744
C17   C     C_R   0.582779 0.061500 0.584450 -0.046744
C18   C     C_2   0.837795 0.478935 0.812971 0.417547
C19   C     C_2   0.162205 0.521065 0.187029 0.417547
C20   C     C_2   0.327129 0.874797 0.332759 0.450165
C21   C     C_2   0.672871 0.125203 0.667241 0.450165
C22   C     C_R   0.495641 0.872163 0.499816 -0.135249
C23   C     C_R   0.504359 0.127837 0.500184 -0.135249
C24   C     C_R   0.569104 0.572757 0.084587 -0.054076
C25   C     C_R   0.430896 0.427243 0.915412 -0.054076
C26   C     C_R   0.569100 0.572684 0.940585 -0.013568
C27   C     C_R   0.430900 0.427316 0.059415 -0.013568
C28   C     C_R   0.297623 0.504404 0.471482 0.875207
H1    H     H_    0.624311 0.630690 0.895939 0.128119
H2    H     H_    0.636281 0.876777 0.645961 0.176039
H3    H     H_    0.313682 0.775295 0.345542 0.109515
H4    H     H_    0.686319 0.224705 0.654458 0.109514
H5    H     H_    0.624292 0.630937 0.149290 0.134187
H6    H     H_    0.375708 0.369063 0.850710 0.134187
H7    H     H_    0.375689 0.369310 0.104061 0.128119
H8    H     H_    0.816137 0.485174 0.327408 0.176037
H9    H     H_    0.183863 0.514826 0.672592 0.176037
H10   H     H_    0.869372 0.539009 0.898013 0.041711
H11   H     H_    0.130627 0.460992 0.101987 0.041712
H12   H     H_    0.965171 0.496468 0.215398 0.136715
H13   H     H_    0.034828 0.503532 0.784602 0.136715
H14   H     H_    0.363719 0.123223 0.354039 0.176039
N1    N     N_R   0.499970 0.499970 0.857200 -0.080367
N2    N     N_R   0.500030 0.500030 0.142800 -0.080367
O1    O     O_R   0.499990 0.316750 0.614620 -0.613804
O2    O     O_2   0.224087 0.603362 0.167149 -0.548338
O3    O     O_2   0.265945 0.933211 0.249971 -0.545016
O4    O     O_2   0.734054 0.066790 0.750030 -0.545016
O5    O     O_R   0.500010 0.683250 0.385380 -0.613804
O6    O     O_R   0.499990 0.316780 0.385290 -0.614715
O7    O     O_R   0.500010 0.683220 0.614710 -0.614715
O8    O     O_R   0.346360 0.499970 0.595710 -0.630768
O9    O     O_R   0.653640 0.500030 0.404290 -0.630768
O10   O     O_R   0.346360 0.499990 0.366380 -0.588091
O11   O     O_R   0.653640 0.500010 0.633620 -0.588091
O12   O     O_2   0.775914 0.396638 0.832851 -0.548338
Zn1   Zn    Zn3+2 0.500000 0.499980 0.653120 0.984410
Zn2   Zn    Zn3+2 0.500000 0.500020 0.346880 0.984409

loop_
_geom_bond_atom_site_label_1
_geom_bond_atom_site_label_2
_ccdc_geom_bond_type
C14   C23   A    
C6    C8    A    
O9    Zn2   S    
C1    C23   S    
O7    Zn1   S    
C25   C27   A    
C28   O8    A    
C1    O6    A    
C5    C13   A    
C24   H5    S    
C18   O12   D    
C25   H6    S    
C14   H14   S    
C21   O4    D    
O1    Zn1   S    
C25   N1    A    
C9    H9    S    
C12   O5    A    
C18   H10   S    
C19   O2    D    
C3    C10   A    
C9    C11   A    
C1    O1    A    
C16   C22   A    
C17   C23   A    
C19   H11   S    
C15   H2    S    
C4    C7    A    
C16   C20   S    
C4    C28   S    
C24   C26   A    
C26   N1    A    
C2    C3    S    
C8    C18   S    
C7    C19   S    
C2    O11   A    
O11   Zn1   S    
C24   N2    A    
C21   H4    S    
C14   C16   A    
C20   O3    D    
O8    Zn1   S    
N1    Zn1   S    
O6    Zn2   S    
C20   H3    S    
C12   C22   S    
C11   C13   A    
C12   O7    A    
C26   H1    S    
C5    C7    A    
C3    C8    A    
O10   Zn2   S    
C5    H12   S    
C6    C11   A    
C15   C17   A    
C28   O10   A    
C10   H8    S    
C27   H7    S    
C4    C9    A    
C27   N2    A    
C2    O9    A    
C15   C22   A    
C17   C21   S    
O5    Zn2   S    
N2    Zn2   S    
C6    H13   S    
C10   C13   A    
