data_mof_unit_33951.cif
_audit_creation_date              2012-12-11T15:23:37-0500
_audit_creation_method            fapswitch 2.2
_symmetry_space_group_name_H-M    P1
_symmetry_Int_Tables_number       1
_space_group_crystal_system       triclinic
_cell_length_a                    17.46699
_cell_length_b                    24.502163
_cell_length_c                    15.059789
_cell_angle_alpha                 89.815489
_cell_angle_beta                  125.642958
_cell_angle_gamma                 90.071623
_cell_volume                      5237.81393896

loop_
_atom_site_label
_atom_site_type_symbol
_atom_type_description
_atom_site_fract_x
_atom_site_fract_y
_atom_site_fract_z
_atom_type_partial_charge
C1    C     C_R   0.341352 0.352016 0.911128 -0.083573
C2    C     C_R   0.685798 0.372341 0.091195 -0.067001
C3    C     C_R   0.845569 0.850170 0.912092 -0.091426
C4    C     C_R   0.186694 0.873545 0.091218 -0.073609
C5    C     C_R   0.381029 0.681468 0.999424 -0.125975
C6    C     C_R   0.689350 0.636417 0.005142 -0.045822
C7    C     C_R   0.885296 0.182649 0.999858 -0.127517
C8    C     C_R   0.188436 0.135669 0.002926 -0.037543
C9    C     C_R   0.458019 0.498684 0.281465 0.049442
C10   C     C_R   0.440774 0.498609 0.638613 0.064945
C11   C     C_R   0.955980 0.998353 0.279298 0.055302
C12   C     C_R   0.941332 0.998447 0.638656 0.079944
C13   C     C_R   0.179028 0.497714 0.666631 0.023792
C14   C     C_R   0.795120 0.496386 0.368963 0.017626
C15   C     C_R   0.678174 0.997766 0.669383 0.017662
C16   C     C_R   0.294899 0.996388 0.369149 0.014559
C17   C     C_2   0.930833 0.451320 0.523829 -0.119723
C18   C     C_2   0.030842 0.457583 0.605296 -0.130979
C19   C     C_2   0.429837 0.951411 0.525422 -0.108208
C20   C     C_2   0.529713 0.957789 0.607823 -0.132999
C21   C     C_2   0.875265 0.495251 0.483419 -0.116722
C22   C     C_2   0.077813 0.495635 0.590949 -0.086728
C23   C     C_2   0.374232 0.995309 0.484064 -0.118705
C24   C     C_2   0.576935 0.995823 0.593888 -0.088976
C25   C     C_R   0.335408 0.777006 0.956732 -0.389690
C26   C     C_R   0.757405 0.724083 0.075144 -0.360854
C27   C     C_R   0.832132 0.276953 0.951667 -0.353042
C28   C     C_R   0.241158 0.227235 0.061881 -0.353514
C29   C     C_R   0.780238 0.319987 0.951643 0.566644
C30   C     C_R   0.286206 0.273928 0.064631 0.542722
C31   C     C_R   0.285736 0.821425 0.957632 0.564901
C32   C     C_R   0.803445 0.770026 0.077227 0.542873
C33   C     C_R   0.733605 0.311775 0.001325 -0.147574
C34   C     C_R   0.326133 0.274189 0.006423 -0.131126
C35   C     C_R   0.234492 0.813085 0.001753 -0.132966
C36   C     C_R   0.835340 0.770985 0.010425 -0.125860
C37   C     C_R   0.733089 0.260868 0.044379 0.200168
C38   C     C_R   0.326546 0.227525 0.952165 0.186775
C39   C     C_R   0.228504 0.761776 0.039602 0.192555
C40   C     C_R   0.828394 0.725009 0.949924 0.187498
C41   C     C_R   0.276249 0.718849 0.035790 -0.196988
C42   C     C_R   0.785023 0.678467 0.952977 -0.164931
C43   C     C_R   0.782258 0.218725 0.040605 -0.200141
C44   C     C_R   0.284349 0.180392 0.954703 -0.142573
C45   C     C_R   0.444527 0.651041 0.091185 0.541161
C46   C     C_R   0.599497 0.626215 0.912421 0.538991
C47   C     C_R   0.946522 0.151463 0.091336 0.544390
C48   C     C_R   0.098894 0.125157 0.910834 0.520173
C49   C     C_R   0.329840 0.726899 0.996199 0.063714
C50   C     C_R   0.749274 0.678760 0.014656 0.058701
C51   C     C_R   0.832570 0.227278 0.996730 0.046315
C52   C     C_R   0.242363 0.180797 0.009550 0.092068
C53   C     C_R   0.359968 0.520477 0.442119 0.164981
C54   C     C_R   0.364891 0.520938 0.352528 0.152663
C55   C     C_R   0.864128 0.027361 0.444995 0.164572
C56   C     C_R   0.868235 0.027372 0.354696 0.155296
C57   C     C_R   0.444306 0.497607 0.365633 0.009397
C58   C     C_R   0.435554 0.497594 0.540902 0.010749
C59   C     C_R   0.938692 0.996132 0.360945 0.006762
C60   C     C_R   0.931130 0.996314 0.537548 0.018898
C61   C     C_R   0.517004 0.474089 0.463674 -0.178907
C62   C     C_R   0.512718 0.474248 0.551006 -0.188396
C63   C     C_R   0.000510 0.963509 0.451347 -0.178265
C64   C     C_R   0.996271 0.963335 0.538528 -0.199025
C65   C     C_R   0.485063 0.453160 0.252636 -0.100767
C66   C     C_R   0.455472 0.453420 0.700105 -0.131883
C67   C     C_R   0.982433 0.953036 0.249256 -0.098490
C68   C     C_R   0.954522 0.953383 0.699875 -0.134531
C69   C     C_R   0.232873 0.544098 0.712326 0.194390
C70   C     C_R   0.751356 0.542890 0.307097 0.166446
C71   C     C_R   0.732241 0.044138 0.714270 0.202948
C72   C     C_R   0.251352 0.042884 0.307091 0.168967
C73   C     C_R   0.484215 0.544891 0.252642 -0.046674
C74   C     C_R   0.452774 0.544345 0.697685 -0.006191
C75   C     C_R   0.983697 0.044737 0.252258 -0.050036
C76   C     C_R   0.954945 0.044316 0.698557 -0.054109
C77   C     C_R   0.236553 0.452841 0.712922 0.159404
C78   C     C_R   0.746559 0.452080 0.303828 0.142937
C79   C     C_R   0.735885 0.952848 0.714366 0.160825
C80   C     C_R   0.246407 0.952089 0.303923 0.140494
C81   C     C_R   0.350847 0.650792 0.909373 -0.169089
C82   C     C_R   0.691633 0.620370 0.094083 -0.203463
C83   C     C_R   0.854554 0.151820 0.909823 -0.161287
C84   C     C_R   0.191762 0.119843 0.092921 -0.212244
C85   C     C_R   0.435313 0.351644 0.093531 -0.036503
C86   C     C_R   0.592202 0.369811 0.907481 -0.061739
C87   C     C_R   0.940155 0.850195 0.093945 -0.018657
C88   C     C_R   0.093316 0.871002 0.907610 -0.065535
C89   C     C_R   0.365451 0.324160 0.003119 0.130174
C90   C     C_R   0.678306 0.354516 0.999866 0.123913
C91   C     C_R   0.872895 0.821311 0.004517 0.125714
C92   C     C_R   0.179983 0.856409 0.000004 0.128311
H1    H     H_    0.295792 0.337468 0.828925 0.163149
H2    H     H_    0.743060 0.364882 0.175509 0.147956
H3    H     H_    0.800535 0.835481 0.829982 0.165540
H4    H     H_    0.243940 0.866057 0.175533 0.147330
H5    H     H_    0.901200 0.533794 0.526706 0.178852
H6    H     H_    0.041489 0.526125 0.526542 0.177089
H7    H     H_    0.399740 0.033880 0.527323 0.178536
H8    H     H_    0.540811 0.026261 0.529350 0.176738
H9    H     H_    0.380379 0.781034 0.929483 0.144142
H10   H     H_    0.721381 0.725272 0.114272 0.155402
H11   H     H_    0.872934 0.282189 0.919053 0.142164
H12   H     H_    0.200966 0.227859 0.095944 0.149702
H13   H     H_    0.272570 0.679030 0.064824 0.179209
H14   H     H_    0.775924 0.643137 0.904610 0.174581
H15   H     H_    0.782406 0.179166 0.073198 0.181582
H16   H     H_    0.282215 0.144131 0.912304 0.161920
H17   H     H_    0.578522 0.456791 0.473250 0.152289
H18   H     H_    0.570995 0.457319 0.627789 0.133231
H19   H     H_    0.055114 0.939527 0.456613 0.151547
H20   H     H_    0.046791 0.938774 0.608987 0.139078
H21   H     H_    0.481813 0.411160 0.272050 0.114149
H22   H     H_    0.443111 0.411381 0.673441 0.132321
H23   H     H_    0.976460 0.910833 0.265081 0.110978
H24   H     H_    0.940138 0.911401 0.672744 0.130692
H25   H     H_    0.478785 0.586704 0.270694 0.167127
H26   H     H_    0.435027 0.585573 0.666453 0.163264
H27   H     H_    0.978483 0.086554 0.270556 0.167259
H28   H     H_    0.940914 0.085732 0.668887 0.156336
H29   H     H_    0.311795 0.666656 0.827968 0.178437
H30   H     H_    0.749611 0.625416 0.178576 0.179395
H31   H     H_    0.819445 0.168330 0.829130 0.165262
H32   H     H_    0.249737 0.125854 0.177127 0.179470
H33   H     H_    0.477894 0.337005 0.176915 0.111784
H34   H     H_    0.562568 0.359462 0.823598 0.099093
H35   H     H_    0.984604 0.835937 0.177523 0.113494
H36   H     H_    0.064048 0.860821 0.823742 0.105193
H37   H     H_    0.910272 0.412495 0.482472 0.184622
H38   H     H_    0.067482 0.426618 0.668677 0.162333
H39   H     H_    0.409750 0.912560 0.484179 0.183040
H40   H     H_    0.566197 0.926813 0.671205 0.161697
N1    N     N_R   0.395440 0.396300 0.944370 -0.051509
N2    N     N_R   0.604560 0.396300 0.055630 -0.041628
N3    N     N_R   0.895440 0.896300 0.944370 -0.051271
N4    N     N_R   0.104560 0.896300 0.055630 -0.041340
N5    N     N_R   0.449890 0.602500 0.055780 -0.083150
N6    N     N_R   0.550110 0.602500 0.944220 -0.109294
N7    N     N_R   0.949890 0.102500 0.055780 -0.082333
N8    N     N_R   0.050110 0.102500 0.944220 -0.122055
N9    N     N_R   0.525090 0.470990 0.205640 -0.041907
N10   N     N_R   0.474910 0.470990 0.794360 -0.050643
N11   N     N_R   0.025090 0.970990 0.205640 -0.042799
N12   N     N_R   0.974910 0.970990 0.794360 -0.048391
N13   N     N_R   0.320240 0.527820 0.794510 -0.082565
N14   N     N_R   0.679760 0.527820 0.205490 -0.073171
N15   N     N_R   0.820240 0.027820 0.794510 -0.082122
N16   N     N_R   0.179760 0.027820 0.205490 -0.072656
N17   N     N_R   0.524580 0.527810 0.205160 -0.043012
N18   N     N_R   0.475420 0.527810 0.794840 -0.057624
N19   N     N_R   0.024580 0.027810 0.205160 -0.042119
N20   N     N_R   0.975420 0.027810 0.794840 -0.061327
N21   N     N_R   0.320750 0.470990 0.794990 -0.078797
N22   N     N_R   0.679250 0.470990 0.205010 -0.079579
N23   N     N_R   0.820750 0.970990 0.794990 -0.077393
N24   N     N_R   0.179250 0.970990 0.205010 -0.080130
N25   N     N_R   0.393580 0.602500 0.942610 -0.074057
N26   N     N_R   0.606420 0.602500 0.057390 -0.069984
N27   N     N_R   0.893580 0.102500 0.942610 -0.074949
N28   N     N_R   0.106420 0.102500 0.057390 -0.065917
N29   N     N_R   0.451750 0.396300 0.057540 -0.051946
N30   N     N_R   0.548250 0.396300 0.942460 -0.048018
N31   N     N_R   0.951750 0.896300 0.057540 -0.055152
N32   N     N_R   0.048250 0.896300 0.942460 -0.047829
Ni1   Ni    Ni4+2 0.435420 0.434250 0.870220 0.251851
Ni2   Ni    Ni4+2 0.564580 0.434250 0.129780 0.260649
Ni3   Ni    Ni4+2 0.935420 0.934250 0.870220 0.250339
Ni4   Ni    Ni4+2 0.064580 0.934250 0.129780 0.257885
Ni5   Ni    Ni4+2 0.563400 0.564580 0.128670 0.267438
Ni6   Ni    Ni4+2 0.436600 0.564580 0.871330 0.219101
Ni7   Ni    Ni4+2 0.063400 0.064580 0.128670 0.268205
Ni8   Ni    Ni4+2 0.936600 0.064580 0.871330 0.209830
O1    O     O_3   0.781880 0.371471 0.914206 -0.652894
C93   C     C_3   0.747794 0.370222 0.802752 0.173085
H41   H     H_    0.686671 0.398317 0.757768 0.119160
H42   H     H_    0.721774 0.329521 0.762668 0.090996
C94   C     C_3   0.824384 0.390698 0.791142 -0.283906
H43   H     H_    0.849898 0.431224 0.830888 0.232905
H44   H     H_    0.884833 0.361923 0.832778 0.191072
C95   C     C_3   0.787457 0.395991 0.671375 -0.948784
H45   H     H_    0.758463 0.356487 0.628506 0.280707
H46   H     H_    0.845741 0.408341 0.665824 0.287237
H47   H     H_    0.731505 0.427547 0.630408 0.264834
O2    O     O_3   0.277198 0.321941 0.106647 -0.656009
C96   C     C_3   0.322566 0.316801 0.220620 0.157729
H48   H     H_    0.400228 0.314951 0.263565 0.106320
H49   H     H_    0.299694 0.279787 0.242324 0.112270
C97   C     C_3   0.298163 0.366426 0.260865 -0.240134
H50   H     H_    0.320087 0.404276 0.240659 0.215405
H51   H     H_    0.220640 0.368102 0.218536 0.214022
C98   C     C_3   0.346547 0.363703 0.383980 -0.979319
H52   H     H_    0.325837 0.325915 0.405883 0.277476
H53   H     H_    0.325122 0.399372 0.410006 0.286180
H54   H     H_    0.424281 0.364296 0.428250 0.268590
O3    O     O_3   0.291934 0.874006 0.926719 -0.656215
C99   C     C_3   0.290674 0.874108 0.832005 0.172104
H55   H     H_    0.235630 0.845886 0.768721 0.101359
H56   H     H_    0.361059 0.862422 0.853355 0.117052
C100  C     C_3   0.269075 0.931843 0.784670 -0.268226
H57   H     H_    0.201411 0.945832 0.768020 0.199630
H58   H     H_    0.325453 0.960031 0.845359 0.223678
C101  C     C_3   0.262850 0.934053 0.679293 -0.951404
H59   H     H_    0.331593 0.922764 0.695718 0.278509
H60   H     H_    0.244219 0.976064 0.645084 0.282462
H61   H     H_    0.207852 0.905529 0.617902 0.263219
O4    O     O_3   0.800211 0.817534 0.125244 -0.662414
C102  C     C_3   0.847326 0.810487 0.239349 0.159705
H62   H     H_    0.924405 0.815405 0.281397 0.108758
H63   H     H_    0.835226 0.769873 0.262392 0.116538
C103  C     C_3   0.812624 0.853996 0.280649 -0.250608
H64   H     H_    0.829339 0.895153 0.265227 0.213425
H65   H     H_    0.734894 0.850739 0.235148 0.211276
C104  C     C_3   0.857773 0.847279 0.402535 -0.970260
H66   H     H_    0.838051 0.807285 0.418698 0.279276
H67   H     H_    0.832670 0.880202 0.430237 0.284003
H68   H     H_    0.935680 0.849741 0.449923 0.266862
I1    I     I_    0.658283 0.242067 0.112847 -0.283801
I2    I     I_    0.388275 0.224465 0.865394 -0.318609
I3    I     I_    0.147627 0.743676 0.100712 -0.295514
I4    I     I_    0.879381 0.722198 0.851782 -0.318975
I5    I     I_    0.238863 0.550364 0.428331 -0.290210
I6    I     I_    0.254549 0.554732 0.198438 -0.326531
I7    I     I_    0.755236 0.070266 0.439562 -0.301095
I8    I     I_    0.768595 0.071926 0.209070 -0.329866
O5    O     O_3   0.511544 0.668215 0.198335 -0.667259
C105  C     C_3   0.518983 0.725681 0.209441 0.181309
H69   H     H_    0.458980 0.741836 0.208245 0.133442
H70   H     H_    0.521571 0.745139 0.144224 0.099608
C106  C     C_3   0.610031 0.740976 0.318822 -0.258761
H71   H     H_    0.614853 0.718436 0.386106 0.243079
H72   H     H_    0.671022 0.729711 0.317823 0.222867
C107  C     C_3   0.614699 0.802190 0.339949 -0.928314
H73   H     H_    0.609558 0.825522 0.273291 0.259317
H74   H     H_    0.682867 0.812136 0.418230 0.298239
H75   H     H_    0.556514 0.814702 0.345516 0.282309
O6    O     O_3   0.563815 0.640657 0.806182 -0.685476
C108  C     C_3   0.537212 0.696388 0.787080 0.171555
H76   H     H_    0.525444 0.707954 0.708607 0.166334
H77   H     H_    0.593646 0.723758 0.850078 0.106782
C109  C     C_3   0.445736 0.706265 0.776966 -0.360337
H78   H     H_    0.391930 0.675874 0.720318 0.239964
H79   H     H_    0.460081 0.701549 0.858659 0.188463
C110  C     C_3   0.407339 0.763655 0.735022 -0.927336
H80   H     H_    0.459641 0.794677 0.791671 0.253992
H81   H     H_    0.341730 0.769409 0.729738 0.265070
H82   H     H_    0.390763 0.769728 0.652380 0.288814
O7    O     O_3   0.014422 0.168290 0.198535 -0.665546
C111  C     C_3   0.021894 0.225752 0.210497 0.182188
H83   H     H_    0.962167 0.241672 0.210071 0.133656
H84   H     H_    0.023993 0.245647 0.145267 0.098341
C112  C     C_3   0.113159 0.240882 0.319752 -0.261840
H85   H     H_    0.118487 0.217949 0.386973 0.243804
H86   H     H_    0.173920 0.230032 0.318030 0.222252
C113  C     C_3   0.117631 0.301986 0.341724 -0.926329
H87   H     H_    0.112667 0.325684 0.275526 0.260937
H88   H     H_    0.185672 0.311760 0.420263 0.297191
H89   H     H_    0.059316 0.314206 0.347268 0.282921
O8    O     O_3   0.060189 0.149422 0.810016 -0.669441
C114  C     C_3   0.983794 0.182918 0.783917 0.129508
H90   H     H_    0.005589 0.212070 0.851726 0.106807
H91   H     H_    0.924150 0.157479 0.768056 0.117636
C115  C     C_3   0.950270 0.215728 0.680836 -0.220707
H92   H     H_    0.010096 0.239822 0.694007 0.216220
H93   H     H_    0.925083 0.187361 0.611413 0.221429
C116  C     C_3   0.870567 0.254568 0.652044 -0.950946
H94   H     H_    0.809620 0.231435 0.637990 0.287645
H95   H     H_    0.847148 0.277481 0.576378 0.298618
H96   H     H_    0.895376 0.284259 0.719338 0.255668
I9    I     I_    0.189436 0.620363 0.630748 -0.404965
I10   I     I_    0.761633 0.619810 0.376363 -0.441095
I11   I     I_    0.686002 0.121190 0.636406 -0.416110
I12   I     I_    0.262306 0.120010 0.375838 -0.440749
I13   I     I_    0.213484 0.380689 0.623146 -0.451375
I14   I     I_    0.725320 0.377005 0.358681 -0.482615
I15   I     I_    0.710564 0.880426 0.624421 -0.457146
I16   I     I_    0.224909 0.876951 0.358305 -0.467509

loop_
_geom_bond_atom_site_label_1
_geom_bond_atom_site_label_2
_ccdc_geom_bond_type
C25   C31   A    
C23   H7    S    
C55   C56   A    
C29   O1    S    
C26   C32   A    
C6    C82   A    
C87   C91   A    
C86   H34   S    
C70   I10   S    
C85   N29   A    
C38   I2    S    
C11   C75   A    
C7    C83   A    
C19   C20   S    
C16   C72   A    
C37   I1    S    
C114  C115  S    
C61   H17   S    
C115  C116  S    
C87   H35   S    
C84   N28   A    
N9    N17   A    
C112  H85   S    
C39   C41   A    
C96   C97   S    
C104  H66   S    
O2    C96   S    
C12   C68   A    
C48   O8    S    
N9    Ni2   S    
C76   H28   S    
C87   N31   A    
C101  H60   S    
C97   C98   S    
C22   H6    S    
C32   C36   A    
C14   C21   S    
C39   I3    S    
C10   C58   S    
C85   C89   A    
C106  C107  S    
C26   C50   A    
N20   Ni8   S    
C11   C59   S    
C28   H12   S    
C112  H86   S    
C27   C29   A    
C76   N20   A    
C53   I5    S    
C110  H80   S    
C29   C33   A    
C80   I16   S    
N16   Ni7   S    
N19   Ni7   S    
O6    C108  S    
C3    C91   A    
C27   H11   S    
C2    C90   A    
C13   C69   A    
C67   H23   S    
C93   H41   S    
C107  H73   S    
C113  H88   S    
C69   I9    S    
C77   N21   A    
C4    H4    S    
C85   H33   S    
C15   C79   A    
C88   C92   A    
C97   H51   S    
C95   H46   S    
C110  H81   S    
C101  H61   S    
N14   N22   A    
C17   C18   S    
C100  C101  S    
C79   I15   S    
N2    Ni2   S    
N7    Ni7   S    
C70   N14   A    
C65   H21   S    
C104  H67   S    
C116  H94   S    
C8    C52   S    
N5    Ni5   S    
N29   Ni2   S    
C95   H47   S    
C28   C52   A    
C46   N6    A    
N13   N21   A    
C35   C92   S    
C44   C52   A    
C25   C49   A    
C40   C42   A    
C54   I6    S    
N7    N27   A    
C100  H57   S    
N8    Ni8   S    
C24   H8    S    
C108  H76   S    
C40   I4    S    
C55   C60   A    
C14   C70   A    
C5    C49   S    
C67   N11   A    
C30   O2    S    
C20   H40   S    
C99   C100  S    
C1    N1    A    
C41   C49   A    
C34   C38   A    
C11   C67   A    
N3    Ni3   S    
C80   N24   A    
C93   H42   S    
C44   H16   S    
C7    C51   S    
C19   H39   S    
C74   H26   S    
C13   C77   A    
C3    N3    A    
C81   N25   A    
C101  H59   S    
C48   N8    A    
N12   Ni3   S    
C17   H37   S    
C98   H52   S    
C77   I13   S    
C2    H2    S    
C73   H25   S    
C99   H56   S    
C65   N9    A    
C86   C90   A    
C75   N19   A    
C56   I8    S    
C30   C34   A    
O4    C102  S    
C78   N22   A    
C112  C113  S    
C115  H93   S    
N4    Ni4   S    
C113  H89   S    
C8    C84   A    
C53   C54   A    
C5    C45   A    
C109  C110  S    
C33   C37   A    
C102  H62   S    
C72   N16   A    
C97   H50   S    
C16   C80   A    
C46   O6    S    
C37   C43   A    
C35   C39   A    
C8    C48   A    
C98   H53   S    
C103  C104  S    
C38   C44   A    
C106  H71   S    
N1    Ni1   S    
N25   Ni6   S    
C102  C103  S    
N30   Ni1   S    
C5    C81   A    
N16   N24   A    
N6    N26   A    
C69   N13   A    
C62   H18   S    
C36   C40   A    
C53   C58   A    
C94   C95   S    
C109  H79   S    
O5    C105  S    
C75   H27   S    
C105  H69   S    
C43   H15   S    
C6    C50   S    
C42   H14   S    
C93   C94   S    
C71   N15   A    
C41   H13   S    
C58   C62   A    
C42   C50   A    
C63   C64   A    
C86   N30   A    
C36   C91   S    
C1    H1    S    
C15   C24   S    
C111  H84   S    
C68   H24   S    
C94   H43   S    
C16   C23   S    
C105  H70   S    
C108  H77   S    
N17   Ni5   S    
C18   H38   S    
N14   Ni5   S    
C78   I14   S    
C32   O4    S    
C114  H90   S    
C66   H22   S    
C14   C78   A    
N15   N23   A    
C111  H83   S    
C19   C23   D    
C55   I7    S    
C45   N5    A    
N4    N32   A    
C104  H68   S    
N13   Ni6   S    
C110  H82   S    
C1    C89   A    
N27   Ni8   S    
C6    C46   A    
C73   N17   A    
C107  H74   S    
C18   C22   D    
N3    N31   A    
C9    C73   A    
N32   Ni3   S    
C64   H20   S    
C102  H63   S    
C99   H55   S    
C114  H91   S    
N1    N29   A    
C47   N7    A    
C68   N12   A    
N22   Ni2   S    
O7    C111  S    
C2    N2    A    
N26   Ni5   S    
C57   C61   A    
C115  H92   S    
C66   N10   A    
C84   H32   S    
C105  C106  S    
C15   C71   A    
C82   H30   S    
C59   C63   A    
C56   C59   A    
N5    N25   A    
C60   C64   A    
N10   N18   A    
C113  H87   S    
C12   C76   A    
O8    C114  S    
C45   O5    S    
C34   C89   S    
C10   C66   A    
C28   C30   A    
C106  H72   S    
C116  H95   S    
C88   N32   A    
C33   C90   S    
C26   H10   S    
N10   Ni1   S    
C31   O3    S    
C10   C74   A    
C81   H29   S    
C25   H9    S    
C96   H48   S    
N18   Ni6   S    
N23   Ni3   S    
C43   C51   A    
C82   N26   A    
C72   I12   S    
C31   C35   A    
N11   N19   A    
C109  H78   S    
C27   C51   A    
N28   Ni7   S    
C94   H44   S    
C13   C22   S    
N31   Ni4   S    
C9    C57   S    
C107  H75   S    
C63   H19   S    
C61   C62   A    
C116  H96   S    
C9    C65   A    
N11   Ni4   S    
C98   H54   S    
C111  C112  S    
C96   H49   S    
C21   H5    S    
C79   N23   A    
O3    C99   S    
C12   C60   S    
N2    N30   A    
C4    N4    A    
C83   N27   A    
N15   Ni8   S    
C71   I11   S    
C103  H64   S    
C108  C109  S    
N21   Ni1   S    
C100  H58   S    
N24   Ni4   S    
C47   O7    S    
C74   N18   A    
C3    H3    S    
C103  H65   S    
C83   H31   S    
C88   H36   S    
O1    C93   S    
C20   C24   D    
N8    N28   A    
C95   H45   S    
N12   N20   A    
C7    C47   A    
N6    Ni6   S    
C4    C92   A    
C54   C57   A    
C17   C21   D    
