data_mof_unit_44290.cif
_audit_creation_date              2013-03-05T16:06:47-0500
_audit_creation_method            fapswitch 2.2
_symmetry_space_group_name_H-M    P1
_symmetry_Int_Tables_number       1
_space_group_crystal_system       triclinic
_cell_length_a                    10.811344
_cell_length_b                    9.626724
_cell_length_c                    19.357888
_cell_angle_alpha                 90.090445
_cell_angle_beta                  90.834614
_cell_angle_gamma                 88.78046
_cell_volume                      2014.05518301

loop_
_atom_site_label
_atom_site_type_symbol
_atom_site_description
_atom_site_fract_x
_atom_site_fract_y
_atom_site_fract_z
_atom_type_partial_charge
O1    O     O_R   0.319640 0.618740 0.500000 -0.564673
O2    O     O_R   0.680360 0.381260 0.500000 -0.561681
O3    O     O_R   0.680360 0.618740 0.500000 -0.558449
O4    O     O_R   0.319640 0.381260 0.500000 -0.573809
C1    C     C_R   0.871295 0.495033 0.483519 -0.171449
C2    C     C_R   0.127412 0.502784 0.495579 -0.199648
C3    C     C_R   0.262286 0.501235 0.499656 0.867609
C4    C     C_R   0.737062 0.498515 0.493765 0.804204
O5    O     O_R   0.500020 0.618830 0.400190 -0.540312
O6    O     O_R   0.499980 0.381170 0.599810 -0.515176
O7    O     O_R   0.499980 0.618830 0.599810 -0.547461
O8    O     O_R   0.500020 0.381170 0.400190 -0.522864
C5    C     C_R   0.499072 0.499628 0.368138 0.819479
C6    C     C_R   0.500137 0.499771 0.631854 0.814400
Cu1   Cu    Cu3+1 0.500000 0.640660 0.500000 1.035509
Cu2   Cu    Cu3+1 0.500000 0.359340 0.500000 1.034754
C7    C     C_R   0.061961 0.390189 0.522904 -0.101909
C8    C     C_R   0.933295 0.612563 0.459126 -0.054287
C9    C     C_R   0.940325 0.373237 0.499262 -0.107944
C10   C     C_R   0.063043 0.608825 0.458226 -0.089689
C11   C     C_R   0.599043 0.437113 0.743574 -0.172218
C12   C     C_R   0.593891 0.547662 0.255601 -0.204588
C13   C     C_R   0.392057 0.442467 0.258604 -0.137248
C14   C     C_R   0.397403 0.552910 0.742131 -0.193252
H1    H     H_    0.677886 0.393769 0.716457 0.140768
H2    H     H_    0.674171 0.588729 0.281949 0.183405
H3    H     H_    0.315126 0.403376 0.287474 0.158898
H4    H     H_    0.319212 0.598244 0.713989 0.151261
C15   C     C_R   0.598158 0.434298 0.815565 -0.098862
C16   C     C_R   0.590080 0.543700 0.183693 -0.098371
C17   C     C_R   0.387435 0.440017 0.186600 -0.105090
C18   C     C_R   0.395692 0.548486 0.814026 -0.108381
H5    H     H_    0.676417 0.388977 0.843635 0.142716
H6    H     H_    0.667524 0.582200 0.155042 0.158574
H7    H     H_    0.307039 0.398929 0.160259 0.144810
H8    H     H_    0.316242 0.590924 0.840926 0.153229
C19   C     C_R   0.496273 0.489745 0.851076 0.151639
C20   C     C_R   0.486712 0.490293 0.148868 0.146231
C21   C     C_R   0.445036 0.076197 0.447465 0.353199
C22   C     C_R   0.540296 0.926917 0.556565 0.379375
C23   C     C_R   0.554265 0.073714 0.552774 0.346724
C24   C     C_R   0.459257 0.928751 0.443517 0.365791
C25   C     C_R   0.499333 0.497879 0.706896 -0.013683
C26   C     C_R   0.494754 0.497524 0.293089 -0.016647
C27   C     C_R   0.493209 0.614519 0.963887 -0.067969
C28   C     C_R   0.486959 0.359721 0.036437 -0.071786
C29   C     C_R   0.483104 0.614767 0.036213 -0.068447
C30   C     C_R   0.490480 0.359581 0.963315 -0.072022
N1    N     N_R   0.500000 0.852070 0.500000 -0.278418
N2    N     N_R   0.500000 0.147930 0.500000 -0.273192
C31   C     C_R   0.483684 0.487776 0.072563 -0.090487
C32   C     C_R   0.494273 0.487455 0.927370 -0.092400
O9    O     O_3   0.387102 0.147658 0.393715 -0.554069
C33   C     C_3   0.256814 0.138878 0.398774 0.150453
H9    H     H_    0.217883 0.244090 0.409134 0.158665
H10   H     H_    0.224473 0.069339 0.440638 0.182421
C34   C     C_3   0.201784 0.091695 0.330082 -0.705653
H11   H     H_    0.230495 0.982867 0.319229 0.269191
H12   H     H_    0.099195 0.097596 0.332194 0.235386
H13   H     H_    0.233021 0.159296 0.287608 0.223318
O10   O     O_3   0.568137 0.862024 0.618411 -0.531781
C35   C     C_3   0.471567 0.892379 0.665498 0.120598
H14   H     H_    0.393123 0.821909 0.655773 0.151538
H15   H     H_    0.434051 0.001043 0.662115 0.149961
C36   C     C_3   0.519101 0.871412 0.739027 -0.774860
H16   H     H_    0.578859 0.958844 0.754328 0.239785
H17   H     H_    0.439934 0.868599 0.774864 0.219144
H18   H     H_    0.573487 0.772714 0.743398 0.277897
O11   O     O_3   0.609462 0.142709 0.607369 -0.557505
C37   C     C_3   0.739645 0.123411 0.605970 0.155511
H19   H     H_    0.781240 0.225747 0.596384 0.162293
H20   H     H_    0.773913 0.050098 0.565423 0.178173
C38   C     C_3   0.787334 0.072282 0.676009 -0.737761
H21   H     H_    0.761397 0.962767 0.684008 0.271052
H22   H     H_    0.889757 0.077275 0.678249 0.248310
H23   H     H_    0.748582 0.137930 0.718013 0.232511
O12   O     O_3   0.430011 0.865002 0.381862 -0.539854
C39   C     C_3   0.524454 0.891778 0.333677 0.108440
H24   H     H_    0.602565 0.816604 0.341557 0.181438
H25   H     H_    0.562934 0.998162 0.337524 0.149129
C40   C     C_3   0.473547 0.875622 0.260663 -0.780143
H26   H     H_    0.410656 0.964660 0.247721 0.241231
H27   H     H_    0.550837 0.873539 0.223505 0.228395
H28   H     H_    0.421770 0.777827 0.255681 0.270539
C41   C     C_2   0.112212 0.303809 0.581685 0.870851
O13   O     O_2   0.062406 0.196186 0.597988 -0.586411
O14   O     O_R   0.210747 0.351459 0.622288 -0.773409
H29   H     H_    0.234925 0.285280 0.661130 0.337843
C42   C     C_2   0.863992 0.729339 0.425975 0.911222
O15   O     O_2   0.836129 0.722933 0.364677 -0.645679
O16   O     O_R   0.830755 0.845871 0.465135 -0.707616
H30   H     H_    0.778670 0.915608 0.437703 0.297021
C43   C     C_2   0.905588 0.238825 0.466024 0.840217
O17   O     O_2   0.961363 0.130746 0.480438 -0.550189
O18   O     O_R   0.816066 0.238267 0.413048 -0.745396
H31   H     H_    0.804285 0.142847 0.392130 0.320084
C44   C     C_2   0.129168 0.707570 0.413952 0.901966
O19   O     O_2   0.111979 0.832685 0.420575 -0.573961
O20   O     O_R   0.208509 0.655690 0.363261 -0.770633
H32   H     H_    0.242204 0.731325 0.333047 0.353468
C45   C     C_2   0.508327 0.747407 0.926574 0.890345
O21   O     O_2   0.427141 0.837694 0.928388 -0.553531
O22   O     O_R   0.617645 0.769718 0.891046 -0.741430
H33   H     H_    0.622217 0.867784 0.872522 0.352101
C46   C     C_2   0.484385 0.226497 0.075343 0.901657
O23   O     O_2   0.408955 0.138540 0.059635 -0.548849
O24   O     O_R   0.567535 0.202486 0.130246 -0.732024
H34   H     H_    0.555833 0.108982 0.152969 0.345237
C47   C     C_2   0.467536 0.748251 0.073891 0.889632
O25   O     O_2   0.546695 0.836779 0.070634 -0.550676
O26   O     O_R   0.360240 0.772934 0.111738 -0.741368
H35   H     H_    0.355062 0.870984 0.130699 0.350561
C48   C     C_2   0.493337 0.226152 0.924219 0.900240
O27   O     O_2   0.567632 0.133922 0.940485 -0.550752
O28   O     O_R   0.411913 0.206911 0.868399 -0.737254
H36   H     H_    0.423734 0.112778 0.845599 0.342816

loop_
_geom_bond_atom_site_label_1
_geom_bond_atom_site_label_2
_geom_bond_distance
_ccdc_geom_bond_type
O14   H29   1.014037 S    
C43   O17   1.222006 D    
C38   H21   1.108357 S    
O18   H31   1.013058 S    
C44   O19   1.221615 D    
C41   O13   1.221761 D    
C46   O24   1.398290 S    
C45   O21   1.222877 D    
C7    C41   1.499051 S    
C18   H8    1.083185 S    
Cu2   N2    2.035187 S    
C47   O26   1.396897 S    
O7    C6    1.304051 A    
C39   H25   1.115550 S    
C34   H12   1.110717 S    
C22   N1    1.380175 A    
C28   C46   1.489294 S    
C15   H5    1.083102 S    
C16   C20   1.403249 A    
O5    C5    1.303816 A    
C35   H15   1.115553 S    
C40   H27   1.110309 S    
C11   C25   1.400200 A    
O7    Cu1   1.943838 S    
C12   C26   1.397903 A    
C10   C44   1.482762 S    
O8    Cu2   1.943839 S    
C36   H17   1.110366 S    
O24   H34   1.013628 S    
C37   H19   1.108634 S    
O1    Cu1   1.965779 S    
C13   H3    1.083153 S    
C42   O16   1.396547 S    
O2    Cu2   1.965779 S    
C9    C43   1.496779 S    
O12   C39   1.420820 S    
C41   O14   1.399399 S    
C43   O18   1.399912 S    
C38   H22   1.109608 S    
O10   C35   1.421331 S    
O4    C3    1.299195 A    
C44   O20   1.397452 S    
C40   H26   1.109369 S    
C21   C24   1.426510 A    
C28   C30   1.416549 A    
C27   C29   1.405917 A    
C33   H10   1.116711 S    
C16   H6    1.083230 S    
O26   H35   1.012957 S    
O3    C4    1.304375 A    
O6    C6    1.298526 A    
O16   H30   1.012964 S    
C19   C32   1.477568 S    
C39   H24   1.109386 S    
C34   H13   1.110281 S    
C29   C31   1.411364 A    
C20   C31   1.477169 S    
C27   C32   1.411729 A    
C29   C47   1.484245 S    
C11   C15   1.394074 A    
C28   C31   1.416375 A    
C22   O10   1.377693 S    
C13   C17   1.394195 A    
O4    Cu2   1.956849 S    
C14   C18   1.392864 A    
C35   H14   1.111004 S    
O20   H32   1.011827 S    
C36   H18   1.109352 S    
C37   C38   1.522251 S    
C18   C19   1.403215 A    
C27   C45   1.483318 S    
C22   C23   1.426531 A    
C38   H23   1.110450 S    
C17   H7    1.083066 S    
C23   N2    1.365764 A    
C40   H28   1.108851 S    
O3    Cu1   1.956849 S    
C23   O11   1.382187 S    
C48   O27   1.223028 D    
C2    C7    1.414479 A    
C11   H1    1.083248 S    
C33   H9    1.107656 S    
C12   C16   1.392487 A    
C35   C36   1.518555 S    
O1    C3    1.301475 A    
C8    C42   1.479660 S    
O2    C4    1.302523 A    
C14   H4    1.083281 S    
C1    C4    1.467261 S    
O9    C33   1.417734 S    
C2    C3    1.458918 S    
C1    C9    1.407781 A    
C2    C10   1.416558 A    
C46   O23   1.223038 D    
C17   C20   1.402075 A    
O5    Cu1   1.943179 S    
O6    Cu2   1.943177 S    
C47   O25   1.222897 D    
C39   C40   1.518234 S    
C34   H11   1.106990 S    
C21   O9    1.383164 S    
C1    C8    1.412645 A    
C7    C9    1.398848 A    
C8    C10   1.402809 A    
Cu1   N1    2.035186 S    
O11   C37   1.416386 S    
C13   C26   1.400592 A    
C24   N1    1.381706 A    
C30   C32   1.416653 A    
C21   N2    1.364491 A    
O8    C5    1.298865 A    
C24   O12   1.376975 S    
C45   O22   1.396748 S    
C36   H16   1.109213 S    
C12   H2    1.082057 S    
C15   C19   1.402382 A    
O22   H33   1.012837 S    
C14   C25   1.398642 A    
C6    C25   1.452956 S    
C37   H20   1.116699 S    
O28   H36   1.013783 S    
C42   O15   1.221766 D    
C5    C26   1.452987 S    
Cu1   Cu2   2.708190 S    
C30   C48   1.489822 S    
C48   O28   1.398377 S    
C33   C34   1.521523 S    
