data_mof_unit_10030.cif
_audit_creation_date              2012-12-10T17:03:26-0500
_audit_creation_method            fapswitch 2.2
_symmetry_space_group_name_H-M    P1
_symmetry_Int_Tables_number       1
_space_group_crystal_system       triclinic
_cell_length_a                    15.059802
_cell_length_b                    11.069807
_cell_length_c                    9.925946
_cell_angle_alpha                 112.210471
_cell_angle_beta                  97.719615
_cell_angle_gamma                 92.961632
_cell_volume                      1508.58775769

loop_
_atom_site_label
_atom_site_type_symbol
_atom_type_description
_atom_site_fract_x
_atom_site_fract_y
_atom_site_fract_z
_atom_type_partial_charge
C1    C     C_R   0.496178 0.253897 0.438676 0.790910
C2    C     C_R   0.506620 0.746136 0.560796 0.807076
C3    C     C_R   0.023147 0.260702 0.329789 0.193363
C4    C     C_R   0.981031 0.682248 0.747340 0.205461
C5    C     C_2   0.486341 0.112584 0.399752 -0.213468
C6    C     C_2   0.519787 0.886578 0.595685 -0.207158
C7    C     C_2   0.524900 0.061025 0.494408 0.194790
C8    C     C_2   0.485845 0.933865 0.493760 0.176578
C9    C     C_2   0.520087 0.481107 0.068659 0.264294
C10   C     C_2   0.496441 0.476018 0.910679 0.229282
C11   C     C_R   0.329021 0.498451 0.501094 0.822456
C12   C     C_R   0.670901 0.501721 0.499330 0.808779
C13   C     C_R   0.827344 0.600807 0.607422 0.232058
C14   C     C_R   0.172697 0.388029 0.400887 0.220431
C15   C     C_R   0.767668 0.498233 0.498349 -0.200492
C16   C     C_R   0.232224 0.493622 0.506320 -0.176982
C17   C     C_R   0.799579 0.388367 0.397904 -0.113694
C18   C     C_R   0.200804 0.592024 0.621938 -0.120288
C19   C     C_R   0.893466 0.376481 0.410991 0.009497
C20   C     C_R   0.108411 0.584264 0.635174 0.012344
C21   C     C_R   0.953863 0.480871 0.522108 -0.086492
C22   C     C_R   0.047977 0.479879 0.525867 -0.067426
C23   C     C_R   0.920542 0.589268 0.625676 0.016015
C24   C     C_R   0.081429 0.375938 0.417607 -0.010774
C25   C     C_R   0.929276 0.262460 0.320630 0.180375
C26   C     C_R   0.074554 0.677138 0.754662 0.171899
Cu1   Cu    Cu3+1 0.515770 0.521810 0.644910 0.962477
Cu2   Cu    Cu3+1 0.484230 0.478190 0.355090 0.972955
N1    N     N_2   0.460520 0.445420 0.137370 -0.240399
N2    N     N_2   0.539480 0.554580 0.862630 -0.250517
O1    O     O_R   0.508410 0.332340 0.577400 -0.550911
O2    O     O_R   0.491590 0.667660 0.422600 -0.591382
O3    O     O_R   0.481780 0.295500 0.332650 -0.573271
O4    O     O_R   0.518220 0.704500 0.667350 -0.568571
O5    O     O_R   0.383570 0.518390 0.622380 -0.584923
O6    O     O_R   0.616430 0.481610 0.377620 -0.533316
O7    O     O_R   0.356940 0.481550 0.377630 -0.556399
O8    O     O_R   0.643060 0.518450 0.622370 -0.595474
N3    N     N_2   0.794535 0.720751 0.691168 -0.391839
H1    H     H_    0.745161 0.713642 0.750981 0.278282
C27   C     C_3   0.778935 0.809168 0.616429 -0.704700
H2    H     H_    0.837367 0.820207 0.562873 0.228092
H3    H     H_    0.770226 0.907308 0.698001 0.249356
H4    H     H_    0.716765 0.772204 0.532516 0.202096
N4    N     N_2   0.200939 0.308229 0.266181 -0.402875
H5    H     H_    0.154811 0.282107 0.170409 0.259927
C28   C     C_3   0.261522 0.211540 0.268938 -0.566752
H6    H     H_    0.226375 0.110985 0.207575 0.230276
H7    H     H_    0.288740 0.223144 0.383468 0.190575
H8    H     H_    0.317817 0.221953 0.211579 0.245259
C29   C     C_1   0.734195 0.292129 0.280073 0.326630
N5    N     N_1   0.681491 0.216279 0.186564 -0.240754
C30   C     C_1   0.262482 0.708902 0.712977 0.301230
N6    N     N_1   0.311867 0.801639 0.784789 -0.255324
N7    N     N_2   0.871542 0.148038 0.222670 -0.421034
H9    H     H_    0.882284 0.110690 0.114764 0.250647
C31   C     C_3   0.851025 0.049931 0.280846 -0.685682
H10   H     H_    0.780838 0.003397 0.233369 0.248133
H11   H     H_    0.857516 0.094107 0.403085 0.226706
H12   H     H_    0.896783 0.972258 0.248805 0.219873
N8    N     N_2   0.134117 0.759520 0.886311 -0.422803
H13   H     H_    0.116533 0.851736 0.942205 0.250118
C32   C     C_3   0.166709 0.694769 0.982513 -0.623431
H14   H     H_    0.110265 0.663536 0.027631 0.217027
H15   H     H_    0.217355 0.763519 0.075465 0.230356
H16   H     H_    0.199578 0.607466 0.921650 0.247606
N9    N     N_2   0.059557 0.139442 0.263529 -0.426063
H17   H     H_    0.023761 0.073335 0.164980 0.246569
C33   C     C_3   0.090891 0.079247 0.365316 -0.685155
H18   H     H_    0.119767 0.987383 0.305588 0.213997
H19   H     H_    0.034497 0.055164 0.415490 0.225376
H20   H     H_    0.144159 0.146412 0.454835 0.240121
N10   N     N_2   0.947569 0.776450 0.867263 -0.392670
H21   H     H_    0.973493 0.873289 0.902002 0.236071
C34   C     C_3   0.926039 0.734478 0.981793 -0.675233
H22   H     H_    0.859248 0.764294 0.008586 0.233463
H23   H     H_    0.977474 0.782200 0.082806 0.208557
H24   H     H_    0.923067 0.626049 0.946373 0.226752
N11   N     N_2   0.407996 0.864147 0.386532 -0.430419
H25   H     H_    0.418754 0.787506 0.293355 0.280510
C35   C     C_3   0.325437 0.848858 0.440884 -0.656215
H26   H     H_    0.327393 0.769656 0.483444 0.223392
H27   H     H_    0.267514 0.821928 0.349334 0.217893
H28   H     H_    0.314981 0.942331 0.529439 0.223206
N12   N     N_2   0.609692 0.121627 0.586598 -0.436943
H29   H     H_    0.615085 0.219763 0.652731 0.285420
C36   C     C_3   0.686987 0.085041 0.514509 -0.720278
H30   H     H_    0.687825 0.125835 0.428337 0.239165
H31   H     H_    0.685036 0.976430 0.463324 0.236181
H32   H     H_    0.749720 0.124959 0.596901 0.228757
C37   C     C_1   0.575907 0.966847 0.735415 0.281584
N13   N     N_1   0.620732 0.030038 0.847204 -0.250411
C38   C     C_1   0.434063 0.032402 0.256156 0.282131
N14   N     N_1   0.392721 0.968874 0.141274 -0.256818
N15   N     N_2   0.433804 0.370421 0.806445 -0.381791
H33   H     H_    0.368851 0.393452 0.790616 0.255190
C39   C     C_3   0.440497 0.240522 0.806980 -0.652754
H34   H     H_    0.406808 0.166244 0.698845 0.221648
H35   H     H_    0.406236 0.227317 0.893315 0.216849
H36   H     H_    0.512157 0.223289 0.825473 0.242321
N16   N     N_2   0.613754 0.489330 0.122449 -0.370996
H37   H     H_    0.648405 0.427394 0.046364 0.240772
C40   C     C_3   0.662282 0.619244 0.200412 -0.654725
H38   H     H_    0.718957 0.615138 0.281676 0.227413
H39   H     H_    0.617844 0.691123 0.259854 0.234350
H40   H     H_    0.693119 0.652363 0.123101 0.194210
C41   C     C_1   0.555588 0.686243 0.957498 0.390679
N17   N     N_1   0.568667 0.796111 0.035620 -0.313553
C42   C     C_1   0.370420 0.453400 0.089992 0.392837
N18   N     N_1   0.295470 0.459956 0.051378 -0.357487

loop_
_geom_bond_atom_site_label_1
_geom_bond_atom_site_label_2
_ccdc_geom_bond_type
N7    H9    S    
C32   H15   S    
C38   N14   T    
N2    C41   S    
C27   H3    S    
C27   H2    S    
N15   H33   S    
C36   H30   S    
C17   C29   S    
C39   H34   S    
C1    O3    A    
C7    C8    S    
N3    C27   S    
C30   N6    T    
N16   H37   S    
C1    C5    S    
C10   N15   S    
C2    O2    A    
N1    C42   S    
Cu2   N1    S    
C19   C21   A    
C26   N8    S    
C33   H18   S    
C31   H11   S    
Cu1   O8    S    
C6    C37   S    
C1    O1    A    
C13   C23   A    
C33   H19   S    
N10   H21   S    
C14   C24   A    
N8    C32   S    
C40   H38   S    
C18   C30   S    
C35   H27   S    
C8    N11   S    
C41   N17   T    
C12   O6    A    
C9    C10   S    
C18   C20   A    
C9    N1    D    
C2    O4    A    
N4    C28   S    
C32   H16   S    
N16   C40   S    
C21   C22   A    
Cu1   N2    S    
N10   C34   S    
C3    C24   A    
C2    C6    S    
C39   H35   S    
C35   H26   S    
C28   H8    S    
N12   C36   S    
Cu1   O4    S    
Cu1   O1    S    
C29   N5    T    
C3    C25   A    
N11   H25   S    
C28   H7    S    
N3    H1    S    
C5    C7    D    
C4    C23   A    
C31   H12   S    
C6    C8    D    
Cu1   O5    S    
N12   H29   S    
N9    H17   S    
N9    C33   S    
C33   H20   S    
C34   H22   S    
C11   C16   S    
C10   N2    D    
C4    C26   A    
C28   H6    S    
C12   C15   S    
Cu2   O2    S    
C40   H39   S    
C34   H23   S    
C4    N10   S    
C9    N16   S    
C20   C22   A    
Cu2   O3    S    
N7    C31   S    
C13   C15   A    
C27   H4    S    
C22   C24   A    
C37   N13   T    
C39   H36   S    
C11   O7    A    
C15   C17   A    
C3    N9    S    
C25   N7    S    
C5    C38   S    
N15   C39   S    
C14   N4    S    
N11   C35   S    
C21   C23   A    
C42   N18   T    
C31   H10   S    
C7    N12   S    
C20   C26   A    
Cu2   O7    S    
C11   O5    A    
C17   C19   A    
C40   H40   S    
C14   C16   A    
C12   O8    A    
N8    H13   S    
C19   C25   A    
C34   H24   S    
C13   N3    S    
C32   H14   S    
N4    H5    S    
Cu2   O6    S    
C16   C18   A    
C36   H32   S    
Cu1   Cu2   S    
C36   H31   S    
C35   H28   S    
