data_mof_unit_36833.cif
_audit_creation_date              2012-12-11T16:05:00-0500
_audit_creation_method            fapswitch 2.2
_symmetry_space_group_name_H-M    P1
_symmetry_Int_Tables_number       1
_space_group_crystal_system       triclinic
_cell_length_a                    10.617712
_cell_length_b                    10.614827
_cell_length_c                    16.883388
_cell_angle_alpha                 98.742366
_cell_angle_beta                  98.720917
_cell_angle_gamma                 61.194521
_cell_volume                      1641.25243474

loop_
_atom_site_label
_atom_site_type_symbol
_atom_type_description
_atom_site_fract_x
_atom_site_fract_y
_atom_site_fract_z
_atom_type_partial_charge
C1    C     C_R   0.353361 0.777473 0.399551 0.549167
C2    C     C_3   0.689741 0.373257 0.231873 -0.137033
C3    C     C_3   0.775244 0.372470 0.313285 0.057948
C4    C     C_3   0.902333 0.227749 0.288240 -0.120259
C5    C     C_3   0.968642 0.311496 0.258447 -0.144719
C6    C     C_3   0.841063 0.456407 0.284485 -0.110954
C7    C     C_3   0.756031 0.457227 0.202114 -0.116189
C8    C     C_3   0.883733 0.313084 0.176899 0.059950
C9    C     C_3   0.394572 0.710512 0.201127 -0.144872
C10   C     C_3   0.265743 0.762155 0.250943 -0.101412
C11   C     C_3   0.343425 0.817174 0.320396 0.060705
C12   C     C_R   0.367130 0.343538 0.359835 0.537570
C13   C     C_3   0.473354 0.764558 0.271622 -0.122841
C14   C     C_3   0.401543 0.915273 0.240050 -0.121477
C15   C     C_3   0.272641 0.966530 0.290768 -0.150392
C16   C     C_3   0.194249 0.912398 0.220726 -0.113432
C17   C     C_3   0.323786 0.859395 0.171269 0.058857
C18   C     C_3   0.433305 0.240656 0.768453 -0.091830
C19   C     C_3   0.362848 0.388192 0.734330 -0.104541
C20   C     C_3   0.322374 0.319094 0.654823 0.050454
C21   C     C_3   0.392400 0.171758 0.688663 -0.107678
C22   C     C_3   0.245396 0.210843 0.717610 -0.152708
C23   C     C_R   0.716271 0.410345 0.389935 0.557415
C24   C     C_3   0.175385 0.359184 0.682073 -0.131053
C25   C     C_3   0.216134 0.427548 0.763008 -0.103421
C26   C     C_3   0.287122 0.279864 0.796746 0.040555
C27   C     C_1   0.846662 0.328447 0.705813 -0.047455
C28   C     C_1   0.892961 0.294787 0.773096 -0.048882
C29   C     C_1   0.358143 0.764592 0.714393 -0.050232
C30   C     C_1   0.326742 0.811112 0.782050 -0.047562
C31   C     C_R   0.947444 0.288796 0.102956 0.538308
C32   C     C_R   0.292144 0.262287 0.122979 0.548528
C33   C     C_R   0.294720 0.891853 0.088965 0.542753
C34   C     C_R   0.379921 0.715285 0.631628 0.557693
C35   C     C_R   0.942705 0.275591 0.855923 0.540570
C36   C     C_R   0.277240 0.252039 0.877015 0.546881
C37   C     C_R   0.282634 0.879992 0.859740 0.539051
C38   C     C_R   0.364120 0.343066 0.582823 0.539464
C39   C     C_R   0.779060 0.377044 0.628741 0.544975
C40   C     C_1   0.327366 0.318394 0.277781 -0.069210
C41   C     C_1   0.307295 0.294455 0.207002 -0.072934
C42   C     C_3   0.818229 0.228155 0.204991 -0.107014
Cr1   Cr    Cr6+3 0.608340 0.611040 0.520430 1.013701
Cr2   Cr    Cr6+3 0.287650 0.601120 0.489350 1.015517
Cr3   Cr    Cr6+3 0.604040 0.287870 0.490280 1.022161
Cr4   Cr    Cr6+3 0.054020 0.052700 0.970850 1.018566
Cr5   Cr    Cr6+3 0.059230 0.375120 0.993390 1.023269
Cr6   Cr    Cr6+3 0.374950 0.061200 0.992340 1.014140
H1    H     H_    0.575222 0.396235 0.224289 0.116394
H2    H     H_    0.458615 0.976590 0.232877 0.132857
H3    H     H_    0.226072 0.067905 0.330900 0.105784
H4    H     H_    0.079240 0.970422 0.197659 0.129536
H5    H     H_    0.411774 0.461369 0.740031 0.109411
H6    H     H_    0.539930 0.192816 0.804053 0.149225
H7    H     H_    0.464079 0.067007 0.656730 0.140934
H8    H     H_    0.810038 0.134298 0.170410 0.131860
H9    H     H_    0.959279 0.135435 0.325902 0.127808
H10   H     H_    0.083437 0.285891 0.267724 0.096053
H11   H     H_    0.851015 0.550287 0.317755 0.130044
H12   H     H_    0.698670 0.550179 0.164923 0.136518
H13   H     H_    0.439937 0.609832 0.160414 0.115653
H14   H     H_    0.586969 0.708336 0.297012 0.124704
O1    O     O_R   0.751220 0.499230 0.435170 -0.524431
O2    O     O_R   0.297880 0.469080 0.560050 -0.512106
O3    O     O_R   0.489720 0.254590 0.564810 -0.515781
O4    O     O_R   0.725220 0.304230 0.585080 -0.487833
O5    O     O_3   0.500010 0.500010 0.500020 -0.285077
O6    O     O_R   0.171830 0.913880 0.057510 -0.522241
O7    O     O_R   0.940690 0.186050 0.054730 -0.493821
O8    O     O_R   0.920470 0.405720 0.075010 -0.511671
O9    O     O_R   0.196690 0.370460 0.084120 -0.491765
O10   O     O_R   0.412990 0.180750 0.091610 -0.496423
O11   O     O_R   0.366620 0.943130 0.065760 -0.519577
O12   O     O_R   0.477220 0.727600 0.436870 -0.515375
O13   O     O_R   0.160510 0.906330 0.879210 -0.508415
O14   O     O_R   0.930190 0.179050 0.889450 -0.476816
O15   O     O_R   0.909140 0.398170 0.896710 -0.497436
O16   O     O_R   0.186190 0.363460 0.918830 -0.502115
O17   O     O_R   0.401670 0.173200 0.913310 -0.500438
O18   O     O_R   0.356120 0.936130 0.900470 -0.507976
O19   O     O_3   0.162740 0.163010 0.985530 -0.328048
O20   O     O_R   0.258650 0.745120 0.411470 -0.517991
O21   O     O_R   0.297070 0.467240 0.395960 -0.501043
O22   O     O_R   0.488830 0.252610 0.387790 -0.515495
O23   O     O_R   0.724400 0.302390 0.420980 -0.496829
O24   O     O_R   0.752100 0.501210 0.612190 -0.513178
O25   O     O_R   0.478040 0.729440 0.600970 -0.491859
O26   O     O_R   0.259530 0.747110 0.588490 -0.501433
H15   H     H_    0.197310 0.137129 0.712785 0.108998
H16   H     H_    0.070909 0.407443 0.644593 0.137462
H17   H     H_    0.144296 0.532168 0.794956 0.141676
H18   H     H_    0.208700 0.699705 0.256082 0.140159

loop_
_geom_bond_atom_site_label_1
_geom_bond_atom_site_label_2
_ccdc_geom_bond_type
C18   C21   S    
C3    C23   S    
C2    C7    S    
C1    C11   S    
C3    C6    S    
Cr4   O14   S    
Cr1   O1    S    
C7    C8    S    
C32   O10   A    
Cr2   O2    S    
C5    H10   S    
C9    H13   S    
C1    O12   A    
Cr6   O17   S    
C8    C42   S    
Cr2   O20   S    
C5    C6    S    
C15   C16   S    
Cr6   O19   S    
C12   O22   A    
C18   C19   S    
C9    C13   S    
Cr4   O7    S    
C42   H8    S    
C11   C15   S    
C31   O8    A    
C13   H14   S    
C20   C24   S    
C28   C35   S    
C27   C39   S    
C16   C17   S    
C18   C26   S    
C4    H9    S    
Cr3   O5    S    
C32   C41   S    
C15   H3    S    
C9    C10   S    
Cr2   O21   S    
Cr1   O12   S    
C23   O1    A    
C37   O13   A    
C10   H18   S    
C13   C14   S    
Cr1   O24   S    
C14   C17   S    
C17   C33   S    
Cr6   O10   S    
Cr6   O11   S    
Cr4   O13   S    
C32   O9    A    
C38   O2    A    
C37   O18   A    
C35   O14   A    
C25   H17   S    
C24   C25   S    
C21   H7    S    
C1    O20   A    
C29   C34   S    
C35   O15   A    
C12   O21   A    
C12   C40   S    
Cr3   O23   S    
Cr5   O8    S    
Cr4   O6    S    
C29   C30   T    
C2    H1    S    
Cr4   O19   S    
C20   C38   S    
C38   O3    A    
C34   O26   A    
C9    C17   S    
Cr5   O9    S    
C33   O11   A    
C40   C41   T    
Cr3   O3    S    
C39   O4    A    
C22   C24   S    
Cr3   O22   S    
Cr5   O15   S    
C3    C4    S    
C7    H12   S    
Cr3   O4    S    
C26   C36   S    
C8    C31   S    
C6    H11   S    
C16   H4    S    
C4    C5    S    
C36   O17   A    
C24   H16   S    
C5    C8    S    
C6    C7    S    
C39   O24   A    
Cr1   O25   S    
Cr6   O18   S    
C19   C20   S    
C2    C3    S    
C25   C26   S    
C23   O23   A    
C36   O16   A    
C11   C13   S    
C19   H5    S    
C14   H2    S    
C4    C42   S    
C2    C42   S    
C22   H15   S    
Cr2   O26   S    
C34   O25   A    
Cr5   O19   S    
C19   C25   S    
C10   C11   S    
C18   H6    S    
C31   O7    A    
C20   C21   S    
C30   C37   S    
Cr1   O5    S    
C22   C26   S    
C27   C28   T    
C14   C15   S    
Cr2   O5    S    
C10   C16   S    
Cr5   O16   S    
C21   C22   S    
C33   O6    A    
