data_mof_unit_39620.cif
_audit_creation_date              2012-12-11T15:53:44-0500
_audit_creation_method            fapswitch 2.2
_symmetry_space_group_name_H-M    P1
_symmetry_Int_Tables_number       1
_space_group_crystal_system       triclinic
_cell_length_a                    10.632527
_cell_length_b                    10.660211
_cell_length_c                    16.956647
_cell_angle_alpha                 80.856995
_cell_angle_beta                  99.020035
_cell_angle_gamma                 118.28051
_cell_volume                      1663.68315935

loop_
_atom_site_label
_atom_site_type_symbol
_atom_type_description
_atom_site_fract_x
_atom_site_fract_y
_atom_site_fract_z
_atom_type_partial_charge
C1    C     C_R   0.384413 0.285267 0.631954 0.528459
C2    C     C_R   0.515409 0.705751 0.735891 -0.126241
C3    C     C_R   0.494263 0.720848 0.812528 0.361612
C4    C     C_3   0.094475 0.503338 0.769420 -0.244629
C5    C     C_3   0.118706 0.484268 0.687297 -0.224983
C6    C     C_R   0.398822 0.617145 0.685728 -0.061812
C7    C     C_1   0.823251 0.657161 0.705885 -0.057168
C8    C     C_1   0.850095 0.684536 0.773886 -0.039458
C9    C     C_1   0.365036 0.235486 0.714544 -0.031106
C10   C     C_1   0.334094 0.188409 0.781896 -0.025980
C11   C     C_1   0.336012 0.663610 0.277702 -0.010721
C12   C     C_R   0.413777 0.619952 0.601530 0.539990
C13   C     C_1   0.323321 0.672684 0.206814 -0.027203
C14   C     C_R   0.793114 0.645150 0.147926 -0.045397
C15   C     C_R   0.773959 0.518950 0.196814 -0.119246
C16   C     C_R   0.741626 0.499812 0.274316 -0.052951
C17   C     C_R   0.706656 0.711078 0.250539 0.375789
C18   C     C_R   0.743576 0.732846 0.171754 0.374907
C19   C     C_3   0.871464 0.449706 0.218848 -0.087520
C20   C     C_3   0.840294 0.434359 0.305091 0.353310
C21   C     C_R   0.718454 0.600422 0.304631 -0.086139
C22   C     C_R   0.260509 0.049733 0.180532 -0.027345
C23   C     C_R   0.777981 0.619579 0.626589 0.537926
C24   C     C_R   0.152206 0.054531 0.214877 -0.046165
C25   C     C_R   0.175592 0.093998 0.291239 0.086318
C26   C     C_R   0.406941 0.098524 0.308661 -0.128584
C27   C     C_R   0.382138 0.056266 0.231022 -0.137743
C28   C     C_3   0.063956 0.130769 0.185129 -0.189425
C29   C     C_3   0.088268 0.173269 0.269129 0.278096
C30   C     C_R   0.309278 0.132205 0.335750 -0.024675
C31   C     C_R   0.890395 0.701474 0.856141 0.579180
C32   C     C_R   0.316813 0.705367 0.899022 0.568520
C33   C     C_R   0.286895 0.119293 0.858626 0.551158
C34   C     C_R   0.349664 0.222524 0.400750 0.540396
C35   C     C_R   0.881146 0.688092 0.081659 0.576996
C36   C     C_R   0.313134 0.700412 0.123624 0.548232
C37   C     C_R   0.245445 0.036887 0.094911 0.553266
C38   C     C_R   0.365731 0.653989 0.360781 0.577997
C39   C     C_R   0.701506 0.583522 0.389599 0.579776
C40   C     C_R   0.354501 0.649520 0.838170 0.022995
C41   C     C_R   0.248222 0.539989 0.794378 -0.041758
C42   C     C_R   0.270462 0.523388 0.719502 -0.010452
Cr1   Cr    Cr6+3 0.608440 0.389080 0.519680 1.072310
Cr2   Cr    Cr6+3 0.288640 0.400090 0.490760 1.077400
Cr3   Cr    Cr6+3 0.602940 0.710800 0.489510 1.122919
Cr4   Cr    Cr6+3 0.052530 0.947560 0.964210 1.109014
Cr5   Cr    Cr6+3 0.059970 0.626800 0.992920 1.019098
Cr6   Cr    Cr6+3 0.373320 0.938440 0.995370 1.122462
H1    H     H_    0.619648 0.771568 0.713697 0.158704
H2    H     H_    0.507234 0.117420 0.343821 0.227812
H3    H     H_    0.463762 0.041750 0.208538 0.199951
H4    H     H_    0.950694 0.056715 0.167388 0.258577
H5    H     H_    0.115881 0.224509 0.140821 0.110743
H6    H     H_    0.149587 0.290869 0.272655 0.111128
H7    H     H_    0.072117 0.595296 0.768790 0.151564
H8    H     H_    0.019918 0.401763 0.801736 0.168764
H9    H     H_    0.058852 0.371461 0.672408 0.165679
H10   H     H_    0.109277 0.564626 0.639433 0.172005
H11   H     H_    0.985509 0.521792 0.207747 0.081377
O1    O     O_R   0.754020 0.497590 0.609930 -0.507937
O2    O     O_R   0.295080 0.533620 0.397890 -0.499048
O3    O     O_R   0.485280 0.746620 0.388440 -0.432196
O4    O     O_R   0.720550 0.696220 0.420010 -0.412587
O5    O     O_3   0.500010 0.499990 0.499980 -0.353144
O6    O     O_R   0.163320 0.092900 0.874450 -0.499453
O7    O     O_R   0.934650 0.822080 0.882840 -0.451487
O8    O     O_R   0.915520 0.604140 0.893670 -0.518503
O9    O     O_R   0.191760 0.638110 0.923230 -0.517520
O10   O     O_R   0.406180 0.826930 0.920660 -0.422712
O11   O     O_R   0.358620 0.062870 0.901950 -0.486006
O12   O     O_R   0.481420 0.271390 0.600630 -0.477573
O13   O     O_R   0.163910 0.085460 0.050210 -0.507398
O14   O     O_R   0.935200 0.815170 0.045770 -0.450729
O15   O     O_R   0.916120 0.596690 0.069430 -0.532585
O16   O     O_R   0.192310 0.631200 0.086170 -0.528649
O17   O     O_R   0.406770 0.819480 0.096420 -0.446717
O18   O     O_R   0.359170 0.055960 0.064880 -0.496283
O19   O     O_3   0.161940 0.837600 0.984160 -0.311522
O20   O     O_R   0.263810 0.254550 0.589590 -0.491243
O21   O     O_R   0.300820 0.531200 0.560890 -0.491773
O22   O     O_R   0.491480 0.744020 0.564270 -0.492550
O23   O     O_R   0.726290 0.693800 0.583010 -0.513584
O24   O     O_R   0.747830 0.500190 0.434090 -0.476726
O25   O     O_R   0.475680 0.273800 0.437630 -0.493684
O26   O     O_R   0.257620 0.257160 0.413750 -0.481762
C43   C     C_1   0.811820 0.312721 0.183695 0.329217
N1    N     N_1   0.764886 0.205154 0.156028 -0.199698
F1    F     F_    0.768941 0.294785 0.339158 -0.599286
C44   C     C_1   0.966879 0.525063 0.356547 0.267831
N2    N     N_1   0.064219 0.597449 0.397524 -0.276982
F2    F     F_    0.963641 0.107560 0.307537 -0.531504
F3    F     F_    0.606358 0.817202 0.856810 -0.595523
F4    F     F_    0.673008 0.805565 0.275128 -0.538731
F5    F     F_    0.740959 0.844313 0.121554 -0.579684

loop_
_geom_bond_atom_site_label_1
_geom_bond_atom_site_label_2
_ccdc_geom_bond_type
C31   O7    A    
C5    C42   S    
C35   O15   A    
C16   C21   A    
C23   O23   A    
Cr1   O24   S    
C41   C42   A    
C14   C18   A    
C19   C20   S    
Cr6   O10   S    
C19   C43   S    
C33   O6    A    
C7    C8    T    
Cr2   O5    S    
C31   O8    A    
C26   C27   A    
C1    O12   A    
C5    H10   S    
C28   C29   S    
C2    H1    S    
Cr4   O7    S    
C26   H2    S    
C6    C12   S    
C4    C41   S    
C15   C16   A    
C20   F1    S    
Cr3   O3    S    
C11   C13   T    
Cr6   O19   S    
Cr6   O17   S    
C36   O17   A    
Cr3   O23   S    
C18   F5    S    
C9    C10   T    
Cr4   O13   S    
C32   O9    A    
C38   O2    A    
C4    H8    S    
Cr1   O25   S    
C2    C6    A    
C34   O25   A    
Cr5   O8    S    
C27   H3    S    
Cr1   O5    S    
C25   C29   S    
C23   O1    A    
C30   C34   S    
Cr2   O21   S    
C1    C9    S    
C24   C25   A    
Cr4   O6    S    
C14   C35   S    
Cr4   O19   S    
C43   N1    T    
C19   H11   S    
C22   C37   S    
C37   O18   A    
Cr3   O4    S    
C17   C21   A    
C3    F3    S    
C34   O26   A    
Cr6   O18   S    
C11   C38   S    
C15   C19   S    
C36   O16   A    
C21   C39   S    
C16   C20   S    
C17   C18   A    
C33   O11   A    
C13   C36   S    
Cr1   O1    S    
C40   C41   A    
C3    C40   A    
C26   C30   A    
C22   C27   A    
C4    H7    S    
C1    O20   A    
C22   C24   A    
C17   F4    S    
Cr2   O26   S    
Cr5   O9    S    
C29   F2    S    
C25   C30   A    
C35   O14   A    
Cr1   O12   S    
C8    C31   S    
Cr2   O20   S    
Cr3   O22   S    
C24   C28   S    
Cr5   O15   S    
Cr6   O11   S    
C4    C5    S    
C28   H5    S    
C32   O10   A    
Cr2   O2    S    
C39   O4    A    
C20   C44   S    
Cr3   O5    S    
C5    H9    S    
C29   H6    S    
C2    C3    A    
Cr5   O16   S    
C28   H4    S    
C7    C23   S    
C12   O21   A    
C12   O22   A    
C10   C33   S    
C32   C40   S    
C39   O24   A    
C6    C42   A    
C37   O13   A    
C14   C15   A    
Cr5   O19   S    
C44   N2    T    
Cr4   O14   S    
C38   O3    A    
