data_mof_unit_19652.cif
_audit_creation_date              2012-12-11T15:55:51-0500
_audit_creation_method            fapswitch 2.2
_symmetry_space_group_name_H-M    P1
_symmetry_Int_Tables_number       1
_space_group_crystal_system       triclinic
_cell_length_a                    11.081301
_cell_length_b                    11.055523
_cell_length_c                    18.751318
_cell_angle_alpha                 90.504619
_cell_angle_beta                  90.46109
_cell_angle_gamma                 59.818879
_cell_volume                      1985.71216975

loop_
_atom_site_label
_atom_site_type_symbol
_atom_type_description
_atom_site_fract_x
_atom_site_fract_y
_atom_site_fract_z
_atom_type_partial_charge
C1    C     C_R   0.354648 0.778306 0.398882 0.532771
C2    C     C_R   0.618442 0.186186 0.152562 0.048894
C3    C     C_R   0.352932 0.333672 0.162216 0.003742
C4    C     C_R   0.492119 0.269677 0.269122 -0.151790
C5    C     C_R   0.486564 0.266534 0.194779 -0.026651
C6    C     C_R   0.103959 0.639400 0.335776 -0.056653
C7    C     C_R   0.985877 0.746533 0.368526 -0.120183
C8    C     C_R   0.629106 0.232133 0.084295 -0.060950
C9    C     C_R   0.733287 0.141524 0.037404 -0.068356
C10   C     C_R   0.232940 0.412358 0.203092 -0.149434
C11   C     C_R   0.239000 0.414748 0.276285 -0.046972
C12   C     C_R   0.388475 0.354976 0.387045 0.542412
C13   C     C_R   0.866423 0.736814 0.370910 -0.130915
C14   C     C_R   0.867438 0.621248 0.339588 -0.085729
C15   C     C_R   0.989103 0.509749 0.311444 -0.094046
C16   C     C_R   0.110307 0.517780 0.312104 0.020580
C17   C     C_R   0.369827 0.341494 0.310534 0.004494
C18   C     C_R   0.827897 0.347886 0.176644 0.017779
C19   C     C_R   0.864704 0.238630 0.223538 0.023719
C20   C     C_R   0.820397 0.261173 0.292760 0.015435
C21   C     C_R   0.668687 0.503871 0.267863 -0.187050
C22   C     C_R   0.719659 0.481506 0.197158 -0.160735
C23   C     C_R   0.708329 0.417713 0.395353 0.561612
C24   C     C_3   0.003496 0.120169 0.242427 -0.259044
C25   C     C_3   0.955936 0.145294 0.319617 -0.266981
C26   C     C_R   0.734052 0.395579 0.318593 -0.001354
C27   C     C_R   0.348489 0.850384 0.178952 0.007235
C28   C     C_R   0.401734 0.915790 0.223533 0.025630
C29   C     C_R   0.392367 0.914044 0.297637 0.000440
C30   C     C_R   0.237040 0.829745 0.284021 -0.167689
C31   C     C_R   0.265379 0.804829 0.212010 -0.164835
C32   C     C_3   0.542640 0.900453 0.229223 -0.273114
C33   C     C_3   0.525975 0.908435 0.310074 -0.291598
C34   C     C_R   0.346338 0.764893 0.605799 0.547569
C35   C     C_R   0.324364 0.851213 0.329525 0.012282
C36   C     C_R   0.326893 0.332168 0.819578 0.010067
C37   C     C_R   0.449795 0.237974 0.783717 0.021842
C38   C     C_R   0.458126 0.244771 0.711681 0.034228
C39   C     C_R   0.236864 0.457792 0.709042 -0.120792
C40   C     C_R   0.226462 0.451006 0.783170 -0.145269
C41   C     C_3   0.530665 0.080658 0.780913 -0.265665
C42   C     C_3   0.538672 0.090501 0.701129 -0.279593
C43   C     C_R   0.347546 0.345851 0.672223 0.017371
C44   C     C_R   0.853075 0.318022 0.828444 0.009695
C45   C     C_R   0.373664 0.353665 0.597782 0.556213
C46   C     C_R   0.890627 0.399793 0.787769 0.012334
C47   C     C_R   0.874621 0.407870 0.715318 0.077730
C48   C     C_R   0.803766 0.234366 0.718670 -0.173302
C49   C     C_R   0.816167 0.229117 0.793183 -0.179645
C50   C     C_3   0.840374 0.552934 0.795116 -0.218706
C51   C     C_3   0.817945 0.562428 0.715499 0.153817
C52   C     C_R   0.824786 0.331063 0.679792 -0.012505
C53   C     C_R   0.317051 0.817343 0.830986 0.019066
C54   C     C_R   0.224028 0.790867 0.792667 0.019809
C55   C     C_R   0.230348 0.782067 0.719193 0.036140
C56   C     C_R   0.763543 0.376219 0.609834 0.561680
C57   C     C_R   0.432898 0.807847 0.719975 -0.172721
C58   C     C_R   0.431547 0.808696 0.794417 -0.168711
C59   C     C_3   0.068208 0.867091 0.792141 -0.271132
C60   C     C_3   0.075338 0.859275 0.711657 -0.282332
C61   C     C_R   0.328162 0.800401 0.681301 0.023240
C62   C     C_R   0.906440 0.317851 0.110457 0.541983
C63   C     C_R   0.328224 0.295000 0.091677 0.532775
C64   C     C_R   0.307913 0.899415 0.105622 0.540032
C65   C     C_R   0.886486 0.307896 0.903713 0.540062
C66   C     C_R   0.298258 0.290239 0.887200 0.546155
C67   C     C_R   0.836512 0.009325 0.060228 -0.059178
C68   C     C_R   0.277406 0.890629 0.899211 0.546085
C69   C     C_R   0.836312 0.968402 0.130385 -0.120673
C70   C     C_R   0.728409 0.056190 0.176502 -0.114038
Cr1   Cr    Cr6+3 0.601740 0.606840 0.505840 0.983727
Cr2   Cr    Cr6+3 0.291500 0.601560 0.495070 0.992098
Cr3   Cr    Cr6+3 0.606780 0.291630 0.499130 0.997071
Cr4   Cr    Cr6+3 0.062440 0.063060 0.008240 0.984887
Cr5   Cr    Cr6+3 0.062950 0.375000 0.998920 1.000920
Cr6   Cr    Cr6+3 0.374550 0.061770 0.992470 1.009297
H1    H     H_    0.593269 0.219439 0.294923 0.139079
H2    H     H_    0.773528 0.819750 0.395726 0.101952
H3    H     H_    0.773808 0.618823 0.336439 0.146376
H4    H     H_    0.988124 0.420446 0.288001 0.119667
H5    H     H_    0.588498 0.607249 0.284196 0.124886
H6    H     H_    0.679921 0.568152 0.160329 0.124665
H7    H     H_    0.089952 0.140814 0.231300 0.145786
H8    H     H_    0.013342 0.023575 0.218907 0.162289
H9    H     H_    0.944426 0.059399 0.342483 0.132020
H10   H     H_    0.013255 0.182882 0.353630 0.152026
H11   H     H_    0.142668 0.838959 0.303645 0.116292
H12   H     H_    0.732483 0.173697 0.983104 0.112080
H13   H     H_    0.202718 0.773115 0.181094 0.134620
H14   H     H_    0.539245 0.993183 0.205954 0.167619
H15   H     H_    0.627388 0.797776 0.209473 0.132519
H16   H     H_    0.595169 0.814201 0.339860 0.141363
H17   H     H_    0.511371 0.007513 0.333595 0.151705
H18   H     H_    0.158253 0.547700 0.680705 0.177457
H19   H     H_    0.137779 0.533038 0.810885 0.123880
H20   H     H_    0.466190 0.034651 0.796069 0.169679
H21   H     H_    0.633902 0.035804 0.807959 0.124353
H22   H     H_    0.645995 0.052998 0.681611 0.125623
H23   H     H_    0.986339 0.836643 0.391065 0.112620
H24   H     H_    0.478728 0.050974 0.670856 0.135490
H25   H     H_    0.766688 0.171834 0.692422 0.139841
H26   H     H_    0.792874 0.159901 0.822979 0.115331
H27   H     H_    0.922679 0.574539 0.813509 0.152479
H28   H     H_    0.741594 0.609409 0.825756 0.092782
H29   H     H_    0.705729 0.619645 0.701656 0.112698
H30   H     H_    0.512865 0.817620 0.692625 0.103188
H31   H     H_    0.511517 0.818673 0.822740 0.118663
H32   H     H_    0.022960 0.974935 0.812981 0.172543
H33   H     H_    0.917741 0.939617 0.023899 0.113982
H34   H     H_    0.025624 0.804407 0.815702 0.125881
H35   H     H_    0.035833 0.793084 0.689100 0.142283
H36   H     H_    0.034699 0.962594 0.685615 0.144183
H37   H     H_    0.918104 0.867255 0.148667 0.098845
H38   H     H_    0.728741 0.019090 0.229732 0.098564
H39   H     H_    0.198214 0.641380 0.330508 0.164382
H40   H     H_    0.550258 0.334042 0.065243 0.090708
H41   H     H_    0.130723 0.469987 0.178196 0.150695
O1    O     O_R   0.748670 0.497520 0.427970 -0.527549
O2    O     O_R   0.300170 0.471020 0.567120 -0.508433
O3    O     O_R   0.491630 0.259030 0.574940 -0.520049
O4    O     O_R   0.718640 0.304340 0.577850 -0.506937
O5    O     O_3   0.500010 0.500010 0.500020 -0.272631
O6    O     O_R   0.186620 0.923750 0.087000 -0.534354
O7    O     O_R   0.957350 0.194160 0.084660 -0.491434
O8    O     O_R   0.935120 0.407280 0.085350 -0.527048
O9    O     O_R   0.203800 0.365060 0.067090 -0.515628
O10   O     O_R   0.417470 0.174910 0.067830 -0.509692
O11   O     O_R   0.375160 0.946380 0.070880 -0.495118
O12   O     O_R   0.476470 0.723930 0.429450 -0.523610
O13   O     O_R   0.160500 0.919670 0.926690 -0.531329
O14   O     O_R   0.933140 0.190380 0.936050 -0.524805
O15   O     O_R   0.909010 0.403210 0.925030 -0.521941
O16   O     O_R   0.179590 0.361290 0.918480 -0.507245
O17   O     O_R   0.391360 0.170840 0.907510 -0.529563
O18   O     O_R   0.350950 0.942600 0.922260 -0.510615
O19   O     O_3   0.166650 0.166610 0.999880 -0.245330
O20   O     O_R   0.264730 0.744140 0.416740 -0.545088
O21   O     O_R   0.309440 0.472410 0.418220 -0.501892
O22   O     O_R   0.501630 0.260530 0.414310 -0.539812
O23   O     O_R   0.727920 0.305730 0.428950 -0.501048
O24   O     O_R   0.738670 0.496020 0.588600 -0.512464
O25   O     O_R   0.467190 0.722540 0.578350 -0.518117
O26   O     O_R   0.254720 0.742640 0.577370 -0.524135
O27   O     O_3   0.907926 0.595303 0.677952 -0.564483
C71   C     C_3   0.831300 0.717906 0.636714 -0.020438
H42   H     H_    0.814606 0.809744 0.668833 0.112652
H43   H     H_    0.727707 0.736501 0.618054 0.142930
C72   C     C_3   0.913213 0.707233 0.569769 -0.342362
H44   H     H_    0.926097 0.618313 0.536118 0.182134
H45   H     H_    0.855874 0.805311 0.538601 0.075667
H46   H     H_    0.017871 0.690584 0.583539 0.164099

loop_
_geom_bond_atom_site_label_1
_geom_bond_atom_site_label_2
_ccdc_geom_bond_type
C44   C49   A    
Cr2   O26   S    
Cr4   O7    S    
C21   C26   A    
C50   H28   S    
C41   C42   S    
C54   C55   A    
Cr1   O5    S    
C19   C20   A    
C72   H46   S    
C65   O15   A    
C23   O1    A    
C62   O7    A    
C71   H42   S    
Cr6   O19   S    
C51   O27   S    
C70   H38   S    
C69   H37   S    
C7    H23   S    
C30   C35   A    
C22   H6    S    
C21   C22   A    
C28   C29   A    
C24   H7    S    
C72   H45   S    
C38   C42   S    
C1    O12   A    
C42   H22   S    
C9    H12   S    
C30   C31   A    
C36   C66   S    
C32   H15   S    
C20   C25   S    
C15   C16   A    
C29   C33   S    
C59   H34   S    
C18   C19   A    
C23   C26   S    
C4    H1    S    
C53   C68   S    
C36   C40   A    
C7    C13   A    
C71   H43   S    
C66   O17   A    
C67   H33   S    
C32   H14   S    
C8    C9    A    
C31   H13   S    
Cr4   O19   S    
C12   C17   S    
Cr1   O24   S    
C45   O2    A    
Cr2   O21   S    
C57   H30   S    
C50   H27   S    
Cr3   O3    S    
C13   C14   A    
C44   C65   S    
C65   O14   A    
Cr6   O18   S    
C44   C46   A    
C54   C59   S    
Cr4   O14   S    
C34   O26   A    
C27   C31   A    
C23   O23   A    
C28   C32   S    
C72   H44   S    
C10   C11   A    
C33   H16   S    
C49   H26   S    
Cr6   O17   S    
Cr5   O19   S    
O27   C71   S    
C39   C43   A    
Cr3   O22   S    
C64   O11   A    
C53   C54   A    
C34   C61   S    
C33   H17   S    
Cr5   O8    S    
C9    C67   A    
C39   H18   S    
C37   C38   A    
C60   H36   S    
C42   H24   S    
Cr1   O12   S    
C66   O16   A    
C34   O25   A    
C11   C16   S    
C15   H4    S    
C48   C52   A    
C51   H29   S    
C25   H9    S    
C50   C51   S    
C12   O22   A    
C14   H3    S    
C24   C25   S    
C68   O13   A    
C43   C45   S    
C47   C52   A    
Cr1   O25   S    
C56   O24   A    
C45   O3    A    
Cr2   O20   S    
C41   H20   S    
C21   H5    S    
Cr3   O4    S    
Cr4   O13   S    
Cr6   O11   S    
C41   H21   S    
C2    C5    S    
C4    C17   A    
C40   H19   S    
C58   H31   S    
C71   C72   S    
C1    O20   A    
Cr5   O15   S    
C1    C35   S    
C46   C50   S    
C46   C47   A    
C36   C37   A    
Cr1   O1    S    
Cr2   O5    S    
C18   C22   A    
C68   O18   A    
C2    C8    A    
C4    C5    A    
C3    C5    A    
C11   C17   A    
C62   O8    A    
C47   C51   S    
C53   C58   A    
Cr5   O16   S    
C57   C61   A    
C6    C7    A    
Cr3   O23   S    
C3    C63   S    
C64   O6    A    
C29   C35   A    
C8    H40   S    
C59   H32   S    
C10   H41   S    
Cr5   O9    S    
C32   C33   S    
C19   C24   S    
C24   H8    S    
C38   C43   A    
C60   H35   S    
C2    C70   A    
C56   O4    A    
C57   C58   A    
C20   C26   A    
C48   C49   A    
C48   H25   S    
C55   C61   A    
Cr2   O2    S    
C25   H10   S    
Cr4   O6    S    
C12   O21   A    
C37   C41   S    
C69   C70   A    
C6    H39   S    
C63   O9    A    
C27   C64   S    
C13   H2    S    
C6    C16   A    
C39   C40   A    
C59   C60   S    
Cr3   O5    S    
C27   C28   A    
C3    C10   A    
Cr6   O10   S    
C14   C15   A    
C18   C62   S    
C67   C69   A    
C30   H11   S    
C55   C60   S    
C63   O10   A    
C52   C56   S    
