data_mof_unit_14024.cif
_audit_creation_date              2012-12-10T20:55:49-0500
_audit_creation_method            fapswitch 2.2
_symmetry_space_group_name_H-M    P1
_symmetry_Int_Tables_number       1
_space_group_crystal_system       triclinic
_cell_length_a                    15.839566
_cell_length_b                    15.076137
_cell_length_c                    10.367049
_cell_angle_alpha                 90.142925
_cell_angle_beta                  90.062223
_cell_angle_gamma                 89.915528
_cell_volume                      2475.63393295

loop_
_atom_site_label
_atom_site_type_symbol
_atom_type_description
_atom_site_fract_x
_atom_site_fract_y
_atom_site_fract_z
_atom_type_partial_charge
C1    C     C_1   0.250858 0.500579 0.510318 -0.040172
C2    C     C_R   0.423567 0.047336 0.479266 -0.101878
C3    C     C_R   0.955240 0.583793 0.517149 -0.097717
C4    C     C_R   0.044611 0.423181 0.560391 -0.102600
C5    C     C_R   0.043851 0.584098 0.516996 -0.092313
C6    C     C_R   0.955971 0.423297 0.563271 -0.092676
C7    C     C_R   0.338900 0.500091 0.500398 0.913165
C8    C     C_R   0.661102 0.499949 0.500123 0.909384
C9    C     C_R   0.484586 0.500088 0.259296 0.852537
C10   C     C_R   0.516319 0.500282 0.740190 0.853364
C11   C     C_R   0.912562 0.502883 0.536780 -0.020073
C12   C     C_1   0.749068 0.500054 0.511537 -0.036062
C13   C     C_R   0.087275 0.503222 0.534294 -0.019530
C14   C     C_1   0.499904 0.806923 0.500036 0.337038
C15   C     C_1   0.499873 0.193008 0.500015 0.226404
C16   C     C_1   0.823486 0.500998 0.523720 0.060106
C17   C     C_1   0.176375 0.501751 0.521347 0.057764
C18   C     C_R   0.438495 0.663123 0.099695 -0.098002
C19   C     C_R   0.567246 0.340932 0.904503 -0.189862
C20   C     C_R   0.560665 0.664188 0.900793 -0.095624
C21   C     C_R   0.438126 0.339632 0.092526 -0.194009
C22   C     C_R   0.467205 0.744877 0.048772 -0.116032
C23   C     C_R   0.536142 0.501581 0.878617 -0.130361
C24   C     C_R   0.538268 0.259022 0.955041 -0.094969
C25   C     C_R   0.530887 0.745437 0.952868 -0.119155
C26   C     C_R   0.468609 0.258365 0.040949 -0.094425
C27   C     C_R   0.525471 0.583070 0.944662 0.019029
C28   C     C_R   0.476119 0.420174 0.053248 0.049826
C29   C     C_R   0.475132 0.582604 0.055118 0.019765
C30   C     C_R   0.528033 0.420735 0.945310 0.050419
C31   C     C_2   0.090890 0.669123 0.502143 1.000159
C32   C     C_2   0.908590 0.341124 0.596897 1.011149
C33   C     C_2   0.907165 0.666994 0.490546 0.985828
C34   C     C_R   0.465950 0.500882 0.120474 -0.128315
C35   C     C_2   0.092545 0.338787 0.578177 1.001052
C36   C     C_2   0.429280 0.173017 0.078579 0.933317
C37   C     C_2   0.564072 0.831197 0.904352 0.984703
C38   C     C_2   0.579064 0.174372 0.916222 0.930091
C39   C     C_2   0.433358 0.830038 0.099151 0.986819
C40   C     C_2   0.342643 0.096477 0.461495 0.423424
C41   C     C_2   0.656805 0.903535 0.541400 0.476203
C42   C     C_2   0.656896 0.096177 0.537039 0.410153
C43   C     C_2   0.342882 0.903651 0.458746 0.467840
C44   C     C_2   0.366307 0.660138 0.192085 0.980978
C45   C     C_R   0.499822 0.904946 0.500080 0.047217
C46   C     C_2   0.643346 0.345550 0.819416 0.999653
C47   C     C_2   0.632835 0.662455 0.808414 0.980890
C48   C     C_2   0.361293 0.342797 0.176222 1.004669
C49   C     C_R   0.499765 0.094907 0.499953 0.067599
C50   C     C_R   0.423644 0.952623 0.478673 -0.093747
C51   C     C_R   0.575960 0.047181 0.520464 -0.089811
C52   C     C_R   0.575960 0.952518 0.521358 -0.103123
H1    H     H_    0.104875 0.796404 0.558688 0.376517
H2    H     H_    0.703296 0.927539 0.609696 0.064010
H3    H     H_    0.703242 0.074637 0.607231 0.074336
H4    H     H_    0.296451 0.927203 0.390103 0.060112
H5    H     H_    0.260003 0.597609 0.248168 0.377266
H6    H     H_    0.602688 0.251487 0.695976 0.291782
H7    H     H_    0.741793 0.603770 0.754568 0.371249
H8    H     H_    0.402412 0.248794 0.298881 0.289245
H9    H     H_    0.814431 0.256356 0.553082 0.396813
H10   H     H_    0.893398 0.775790 0.379529 0.378455
H11   H     H_    0.105223 0.209444 0.531527 0.378985
H12   H     H_    0.443534 0.053739 0.162740 0.363588
H13   H     H_    0.665224 0.909694 0.875504 0.345903
H14   H     H_    0.566427 0.054219 0.833127 0.357337
H15   H     H_    0.331864 0.908471 0.127638 0.346333
H16   H     H_    0.296187 0.073935 0.392101 0.074333
N1    N     N_1   0.500000 0.270550 0.500000 -0.073139
N2    N     N_1   0.500000 0.729450 0.500000 -0.035631
O1    O     O_R   0.378020 0.573650 0.500040 -0.584745
O2    O     O_R   0.068688 0.742560 0.577536 -0.750534
O3    O     O_2   0.928401 0.298609 0.692623 -0.551935
O4    O     O_R   0.841562 0.312572 0.519451 -0.733913
O5    O     O_2   0.847121 0.687669 0.558412 -0.571537
O6    O     O_R   0.930697 0.721371 0.387623 -0.752433
O7    O     O_2   0.153587 0.336404 0.650458 -0.551406
O8    O     O_R   0.067742 0.262278 0.511756 -0.749331
O9    O     O_2   0.353891 0.160959 0.060180 -0.553707
O10   O     O_R   0.478247 0.107257 0.137163 -0.757938
O11   O     O_2   0.515703 0.885603 0.857493 -0.608914
O12   O     O_R   0.621980 0.426350 0.499960 -0.565605
O13   O     O_R   0.650422 0.849459 0.912335 -0.737575
O14   O     O_2   0.654926 0.164043 0.932382 -0.555949
O15   O     O_R   0.530907 0.107247 0.859212 -0.758440
O16   O     O_2   0.481139 0.883670 0.149209 -0.617909
O17   O     O_R   0.347100 0.848588 0.089420 -0.735169
O18   O     O_2   0.326314 0.162085 0.526175 -0.485831
O19   O     O_2   0.673132 0.836537 0.479821 -0.493061
O20   O     O_2   0.673314 0.160477 0.470282 -0.500049
O21   O     O_2   0.326587 0.837097 0.520760 -0.499473
O22   O     O_2   0.360694 0.714358 0.279556 -0.584352
O23   O     O_R   0.621980 0.573650 0.499960 -0.584953
O24   O     O_R   0.305414 0.593643 0.179615 -0.751830
O25   O     O_2   0.698032 0.400344 0.842410 -0.525869
O26   O     O_R   0.653913 0.289417 0.713342 -0.728520
O27   O     O_2   0.636865 0.716135 0.720452 -0.585450
O28   O     O_R   0.695802 0.598087 0.821897 -0.754334
O29   O     O_2   0.305875 0.396794 0.152889 -0.516552
O30   O     O_R   0.350803 0.286189 0.281324 -0.716641
O31   O     O_R   0.378020 0.426350 0.500040 -0.564401
O32   O     O_R   0.499990 0.573670 0.316780 -0.615165
O33   O     O_R   0.500010 0.426330 0.683220 -0.617254
O34   O     O_R   0.500010 0.573670 0.683220 -0.614827
O35   O     O_R   0.499990 0.426330 0.316780 -0.619931
O36   O     O_2   0.148444 0.674993 0.424117 -0.582255
Zn1   Zn    Zn3+2 0.500000 0.598370 0.500000 1.085177
Zn2   Zn    Zn3+2 0.500000 0.401630 0.500000 1.065035

loop_
_geom_bond_atom_site_label_1
_geom_bond_atom_site_label_2
_ccdc_geom_bond_type
C41   O19   D    
C21   C26   A    
O1    Zn1   S    
C27   C29   A    
H12   O10   S    
C6    C32   S    
C39   O17   S    
H10   O6    S    
H14   O15   S    
C19   C46   S    
C47   O28   S    
C8    O12   A    
C10   O33   A    
C24   C26   A    
N2    Zn1   S    
C7    O1    A    
H13   O13   S    
C20   C25   A    
C3    C33   S    
C9    O35   A    
C4    C13   A    
H6    O26   S    
C2    C50   A    
C25   C37   S    
C33   O5    D    
C46   O25   D    
C12   C16   T    
C9    O32   A    
C49   C51   A    
C22   C25   A    
C24   C38   S    
O33   Zn2   S    
C23   C27   A    
C41   C52   S    
C5    C13   A    
C44   O22   D    
C42   C51   S    
C21   C48   S    
O31   Zn2   S    
C4    C35   S    
C28   C34   A    
C18   C22   A    
C14   N2    T    
C37   O11   D    
C48   O30   S    
N1    Zn2   S    
C14   C45   S    
C15   N1    T    
O35   Zn2   S    
C38   O15   S    
C51   C52   A    
C23   C30   A    
C3    C11   A    
C4    C6    A    
C36   O10   S    
C32   O3    D    
C45   C52   A    
H8    O30   S    
C29   C34   A    
C35   O7    D    
C43   O21   D    
C42   O20   D    
C2    C49   A    
C18   C44   S    
C42   H3    S    
C11   C16   S    
C33   O6    S    
C8    C12   S    
O32   Zn1   S    
C18   C29   A    
C26   C36   S    
C31   O2    S    
C21   C28   A    
O12   Zn2   S    
H5    O24   S    
C40   H16   S    
C9    C34   S    
C10   C23   S    
C31   O36   D    
C6    C11   A    
C48   O29   D    
C38   O14   D    
C1    C7    S    
H15   O17   S    
C8    O23   A    
C3    C5    A    
C36   O9    D    
C43   C50   S    
C20   C27   A    
H9    O4    S    
C35   O8    S    
C1    C17   T    
C47   O27   D    
C13   C17   S    
C40   O18   D    
C28   C30   A    
C19   C24   A    
O23   Zn1   S    
C32   O4    S    
C19   C30   A    
C45   C50   A    
C22   C39   S    
C10   O34   A    
C15   C49   S    
C41   H2    S    
C20   C47   S    
C44   O24   S    
C2    C40   S    
C43   H4    S    
C46   O26   S    
C7    O31   A    
H7    O28   S    
C37   O13   S    
C39   O16   D    
H1    O2    S    
O34   Zn1   S    
C5    C31   S    
H11   O8    S    
