data_mof_unit_57183.cif
_audit_creation_date              2012-12-11T15:29:32-0500
_audit_creation_method            fapswitch 2.2
_symmetry_space_group_name_H-M    P1
_symmetry_Int_Tables_number       1
_space_group_crystal_system       triclinic
_cell_length_a                    13.486521
_cell_length_b                    13.499199
_cell_length_c                    27.594527
_cell_angle_alpha                 90.567314
_cell_angle_beta                  89.889784
_cell_angle_gamma                 59.962748
_cell_volume                      4348.73923497

loop_
_atom_site_label
_atom_site_type_symbol
_atom_type_description
_atom_site_fract_x
_atom_site_fract_y
_atom_site_fract_z
_atom_type_partial_charge
C1    C     C_R   0.620255 0.101259 0.569910 0.547425
C2    C     C_1   0.631196 0.731776 0.615845 -0.001620
C3    C     C_3   0.704859 0.558586 0.766851 -0.095803
C4    C     C_3   0.679847 0.653954 0.804457 0.014018
C5    C     C_3   0.596052 0.644528 0.740185 0.272126
C6    C     C_3   0.664681 0.683072 0.709777 0.084618
C7    C     C_3   0.569199 0.738723 0.778164 -0.089989
C8    C     C_3   0.639942 0.777893 0.747575 -0.135705
C9    C     C_1   0.688689 0.633222 0.856620 -0.050872
C10   C     C_1   0.649966 0.704472 0.657681 -0.011422
C11   C     C_3   0.102424 0.116595 0.737575 -0.116061
C12   C     C_R   0.599696 0.779302 0.568443 0.545518
C13   C     C_3   0.198294 0.055464 0.775801 -0.128973
C14   C     C_1   0.097388 0.200032 0.900242 0.002300
C15   C     C_1   0.228902 0.138165 0.616919 -0.008871
C16   C     C_3   0.050075 0.228732 0.768360 -0.135414
C17   C     C_3   0.146195 0.167323 0.805823 0.083516
C18   C     C_3   0.125601 0.267022 0.740906 -0.096273
C19   C     C_3   0.177931 0.154798 0.711048 0.013900
C20   C     C_3   0.220106 0.204355 0.778464 0.272652
C21   C     C_3   0.274577 0.093041 0.748324 -0.087237
C22   C     C_1   0.124576 0.180752 0.858135 -0.009428
C23   C     C_R   0.277545 0.121799 0.569322 0.545830
C24   C     C_1   0.200601 0.147190 0.658868 -0.051423
C25   C     C_3   0.630557 0.276446 0.738847 -0.109414
C26   C     C_3   0.556087 0.258701 0.776820 -0.093698
C27   C     C_1   0.692190 0.206662 0.901249 -0.004179
C28   C     C_1   0.635496 0.133493 0.617802 -0.010981
C29   C     C_3   0.738521 0.203219 0.769660 -0.106596
C30   C     C_3   0.663889 0.185208 0.806805 0.055101
C31   C     C_3   0.759429 0.093682 0.742270 -0.101295
C32   C     C_3   0.651687 0.167059 0.712230 0.046517
C33   C     C_3   0.685045 0.075876 0.780135 -0.094154
C34   C     C_R   0.622060 0.100091 0.431572 0.543694
C35   C     C_3   0.577055 0.149025 0.749356 -0.094803
C36   C     C_1   0.675475 0.195754 0.859144 -0.044833
C37   C     C_1   0.644188 0.152342 0.659909 -0.052288
C38   C     C_R   0.631305 0.741826 0.379539 -0.005675
C39   C     C_R   0.681975 0.792498 0.352299 -0.115945
C40   C     C_R   0.689786 0.781310 0.302025 0.236365
C41   C     C_R   0.651662 0.713206 0.279139 0.065488
C42   C     C_R   0.605510 0.658394 0.306611 -0.163306
C43   C     C_R   0.593522 0.674263 0.356596 -0.148949
C44   C     C_R   0.565985 0.709117 0.200478 -0.132561
C45   C     C_R   0.600676 0.779735 0.429627 0.542062
C46   C     C_R   0.578245 0.681039 0.151579 -0.127239
C47   C     C_R   0.772102 0.651072 0.152657 0.222502
C48   C     C_R   0.761211 0.672397 0.202218 -0.004720
C49   C     C_R   0.659388 0.698962 0.226466 0.018304
C50   C     C_R   0.683791 0.643823 0.127991 0.006513
C51   C     C_R   0.226677 0.136894 0.383382 0.021043
C52   C     C_R   0.250941 0.040429 0.354920 -0.131388
C53   C     C_R   0.225877 0.052091 0.305938 -0.062689
C54   C     C_R   0.173297 0.160577 0.285047 0.077326
C55   C     C_R   0.143124 0.257848 0.313891 -0.122170
C56   C     C_R   0.279431 0.119906 0.430941 0.541925
C57   C     C_R   0.170240 0.246037 0.362873 -0.129016
C58   C     C_R   0.186741 0.236621 0.205598 -0.161016
C59   C     C_R   0.160481 0.255660 0.156199 0.243042
C60   C     C_R   0.071950 0.136919 0.161238 -0.170315
C61   C     C_R   0.095929 0.120000 0.210560 0.231969
C62   C     C_R   0.152004 0.171967 0.232879 0.033084
C63   C     C_R   0.099603 0.207863 0.134343 0.032239
C64   C     C_R   0.641436 0.138637 0.385063 -0.010710
C65   C     C_R   0.748920 0.080094 0.362175 -0.136530
C66   C     C_R   0.760633 0.099969 0.313225 0.248845
C67   C     C_3   0.775010 0.598563 0.736256 -0.131392
C68   C     C_R   0.662536 0.177861 0.287441 0.080809
C69   C     C_R   0.557239 0.241446 0.311531 -0.169347
C70   C     C_R   0.547023 0.223031 0.359998 -0.140426
C71   C     C_R   0.718890 0.094770 0.204338 -0.081160
C72   C     C_R   0.726576 0.107277 0.154338 0.196317
C73   C     C_R   0.612623 0.315006 0.165617 0.179656
C74   C     C_R   0.611916 0.300422 0.215226 -0.085973
C75   C     C_R   0.666747 0.191053 0.234941 -0.009710
C76   C     C_R   0.678855 0.218299 0.135065 0.050717
C77   C     C_R   0.049982 0.234750 0.947993 0.543611
C78   C     C_3   0.750625 0.693060 0.774800 -0.116266
C79   C     C_R   0.712062 0.561784 0.946412 0.539331
C80   C     C_R   0.722751 0.224095 0.949040 0.548666
C81   C     C_R   0.047454 0.243778 0.086473 0.581790
C82   C     C_R   0.707812 0.575061 0.083473 0.549083
C83   C     C_R   0.718849 0.233392 0.087465 0.589986
C84   C     C_1   0.697644 0.607149 0.898636 -0.005701
Cr1   Cr    Cr6+3 0.417550 0.169090 0.500530 1.026576
Cr2   Cr    Cr6+3 0.669180 0.913420 0.499920 1.023792
Cr3   Cr    Cr6+3 0.413260 0.917540 0.499520 1.033963
Cr4   Cr    Cr6+3 0.909770 0.175810 0.018240 1.055017
Cr5   Cr    Cr6+3 0.913300 0.427650 0.016090 1.080148
Cr6   Cr    Cr6+3 0.657770 0.431010 0.016900 1.042844
H1    H     H_    0.957751 0.284461 0.777132 0.100363
H2    H     H_    0.472568 0.326415 0.791655 0.126558
H3    H     H_    0.507607 0.680437 0.133231 0.165028
H4    H     H_    0.833660 0.665921 0.221857 0.179837
H5    H     H_    0.576827 0.604975 0.289191 0.124938
H6    H     H_    0.552739 0.636244 0.377104 0.133881
H7    H     H_    0.024432 0.100390 0.144749 0.144871
H8    H     H_    0.101151 0.342390 0.298226 0.115176
H9    H     H_    0.151351 0.321363 0.384197 0.129465
H10   H     H_    0.481058 0.301546 0.292224 0.110743
H11   H     H_    0.462914 0.269435 0.376745 0.146287
H12   H     H_    0.367264 0.038460 0.739871 0.102803
O1    O     O_R   0.301780 0.195490 0.553940 -0.506713
O2    O     O_R   0.658840 0.818280 0.449970 -0.506446
O3    O     O_R   0.503160 0.801780 0.445740 -0.515040
O4    O     O_R   0.319320 0.022190 0.450230 -0.504287
O5    O     O_3   0.499990 0.000010 0.499990 -0.250225
O6    O     O_R   0.819250 0.149410 0.965240 -0.501543
O7    O     O_R   0.006940 0.180310 0.968270 -0.501804
O8    O     O_R   0.028420 0.332670 0.963010 -0.495721
O9    O     O_R   0.810130 0.520390 0.966030 -0.499566
O10   O     O_R   0.636050 0.541380 0.962520 -0.508919
O11   O     O_R   0.666480 0.323610 0.968170 -0.496350
O12   O     O_R   0.522450 0.158840 0.550250 -0.492200
O13   O     O_R   0.817280 0.156800 0.072180 -0.457027
O14   O     O_R   0.005110 0.187160 0.067410 -0.528734
O15   O     O_R   0.026450 0.340060 0.069950 -0.424526
O16   O     O_R   0.808300 0.527240 0.065170 -0.484297
O17   O     O_R   0.634070 0.548770 0.069460 -0.498544
O18   O     O_R   0.664650 0.330470 0.067300 -0.500022
O19   O     O_3   0.826940 0.344820 0.017080 -0.267860
O20   O     O_R   0.694460 0.003360 0.553820 -0.505776
O21   O     O_R   0.657750 0.819520 0.549120 -0.497675
O22   O     O_R   0.501990 0.803120 0.552700 -0.495528
O23   O     O_R   0.318230 0.023430 0.549370 -0.490979
O24   O     O_R   0.302950 0.194150 0.446980 -0.520631
O25   O     O_R   0.523540 0.157600 0.451100 -0.501703
O26   O     O_R   0.695630 0.002030 0.446860 -0.524361
H13   H     H_    0.814511 0.713683 0.789878 0.121000
O27   O     O_3   0.281622 0.249765 0.800974 -0.694643
H14   H     H_    0.312273 0.275246 0.774185 0.309077
H15   H     H_    0.096833 0.353699 0.726520 0.105803
H16   H     H_    0.608699 0.358595 0.721398 0.138363
H17   H     H_    0.510724 0.126237 0.740277 0.106919
H18   H     H_    0.706984 0.993622 0.797519 0.110100
H19   H     H_    0.843212 0.026180 0.727538 0.108910
H20   H     H_    0.805255 0.225473 0.778648 0.099419
H21   H     H_    0.708048 0.848080 0.369673 0.130415
H22   H     H_    0.859191 0.541382 0.718704 0.109157
H23   H     H_    0.485469 0.733225 0.218526 0.123884
O28   O     O_3   0.728103 0.840869 0.274602 -0.727659
H24   H     H_    0.751119 0.884524 0.296422 0.325551
O29   O     O_3   0.871936 0.631829 0.130499 -0.667016
H25   H     H_    0.852389 0.663206 0.097359 0.338163
H26   H     H_    0.296420 0.954962 0.369628 0.137032
H27   H     H_    0.232521 0.273882 0.223107 0.101180
O30   O     O_3   0.191383 0.321699 0.129168 -0.654227
H28   H     H_    0.233047 0.348549 0.150160 0.324910
H29   H     H_    0.613930 0.867925 0.739131 0.104459
H30   H     H_    0.251466 0.975940 0.284010 0.149034
O31   O     O_3   0.059779 0.058705 0.238021 -0.675086
H31   H     H_    0.021625 0.028436 0.216734 0.349709
H32   H     H_    0.822335 0.015892 0.381694 0.115977
H33   H     H_    0.755333 0.009985 0.219487 0.174877
O32   O     O_3   0.782084 0.012788 0.123950 -0.673573
H34   H     H_    0.810454 0.942235 0.143275 0.335954
O33   O     O_3   0.865578 0.043320 0.289845 -0.688770
H35   H     H_    0.924709 0.992367 0.313128 0.332873
H36   H     H_    0.567972 0.375488 0.238502 0.140229
H37   H     H_    0.484429 0.795352 0.795375 0.109740
O34   O     O_3   0.553245 0.425319 0.148878 -0.687044
H38   H     H_    0.508614 0.424523 0.120543 0.339664
O35   O     O_3   0.515507 0.618979 0.720961 -0.698760
H39   H     H_    0.487426 0.593989 0.748878 0.313039
H40   H     H_    0.729678 0.468748 0.775058 0.097174
H41   H     H_    0.227889 0.968953 0.790554 0.114676
H42   H     H_    0.053104 0.080674 0.719993 0.119326

loop_
_geom_bond_atom_site_label_1
_geom_bond_atom_site_label_2
_ccdc_geom_bond_type
C44   C49   A    
C58   C62   A    
C66   C68   A    
C52   H26   S    
C80   O11   A    
C81   O15   A    
Cr3   O4    S    
C73   C74   A    
C18   H15   S    
Cr2   O5    S    
Cr6   O10   S    
C72   C76   A    
C2    C12   S    
O34   H38   S    
C70   H11   S    
C7    C8    S    
C53   C54   A    
C68   C75   S    
C46   H3    S    
C11   C19   S    
O33   H35   S    
C48   H4    S    
C79   O10   A    
C63   C81   S    
C60   C63   A    
C5    O35   S    
Cr1   O12   S    
C19   C21   S    
C78   H13   S    
C18   C19   S    
Cr3   O22   S    
Cr4   O6    S    
C14   C77   S    
C16   C17   S    
C26   H2    S    
O29   H25   S    
C57   H9    S    
C47   O29   S    
C17   C20   S    
C76   C83   S    
C51   C56   S    
C41   C42   A    
Cr6   O11   S    
C1    O20   A    
C38   C45   S    
C65   H32   S    
O30   H28   S    
C23   O1    A    
O35   H39   S    
C44   C46   A    
C34   O25   A    
Cr3   O3    S    
Cr2   O20   S    
C1    C28   S    
C73   O34   S    
O31   H31   S    
C31   C33   S    
C3    H40   S    
C51   C57   A    
C56   O24   A    
C29   C30   S    
C25   H16   S    
Cr1   O1    S    
C23   O23   A    
C25   C32   S    
C15   C23   S    
C39   H21   S    
Cr2   O2    S    
C44   H23   S    
C72   O32   S    
C40   O28   S    
C8    C78   S    
C81   O14   A    
Cr1   O24   S    
C69   C70   A    
C67   C78   S    
C82   O17   A    
C4    C7    S    
C35   H17   S    
C41   C49   S    
C45   O3    A    
C47   C50   A    
C25   C29   S    
C38   C39   A    
C74   C75   A    
Cr2   O26   S    
C42   H5    S    
C11   H42   S    
C32   C35   S    
C83   O13   A    
C60   H7    S    
C39   C40   A    
C5    C7    S    
C68   C69   A    
C6    C8    S    
C7    H37   S    
C54   C62   S    
C58   C59   A    
C71   H33   S    
C8    H29   S    
Cr5   O8    S    
C51   C52   A    
C60   C61   A    
Cr6   O18   S    
C83   O18   A    
Cr4   O14   S    
C73   C76   A    
C4    C78   S    
C79   C84   S    
C45   O2    A    
C11   C16   S    
C33   H18   S    
C47   C48   A    
C12   O22   A    
C34   C64   S    
C43   H6    S    
C13   C21   S    
C15   C24   T    
C32   C37   S    
Cr5   O16   S    
C77   O7    A    
C61   O31   S    
C56   O4    A    
C21   H12   S    
C74   H36   S    
C16   C18   S    
C40   C41   A    
Cr2   O21   S    
Cr5   O9    S    
Cr5   O15   S    
C27   C80   S    
C64   C70   A    
C55   C57   A    
C53   H30   S    
Cr6   O19   S    
Cr1   O25   S    
C42   C43   A    
Cr4   O7    S    
C3    C4    S    
C2    C10   T    
Cr3   O23   S    
C67   H22   S    
C52   C53   A    
C50   C82   S    
C46   C50   A    
C54   C55   A    
C48   C49   A    
C30   C33   S    
C31   C32   S    
C3    C67   S    
C20   O27   S    
C31   H19   S    
C3    C5    S    
C79   O9    A    
C6    C10   S    
C58   H27   S    
C26   C30   S    
C13   C17   S    
C27   C36   T    
C29   H20   S    
C80   O6    A    
C59   C63   A    
C17   C22   S    
C30   C36   S    
C64   C65   A    
C14   C22   T    
Cr4   O13   S    
C19   C24   S    
C25   C26   S    
C38   C43   A    
C29   C31   S    
C6    C67   S    
O28   H24   S    
Cr6   O17   S    
C71   C75   A    
C11   C13   S    
C13   H41   S    
C5    C6    S    
C12   O21   A    
Cr5   O19   S    
C28   C37   T    
C55   H8    S    
C33   C35   S    
O27   H14   S    
C18   C20   S    
C61   C62   A    
C9    C84   T    
C69   H10   S    
C26   C35   S    
C71   C72   A    
Cr3   O5    S    
C20   C21   S    
C16   H1    S    
C34   O26   A    
C65   C66   A    
C1    O12   A    
O32   H34   S    
C82   O16   A    
C4    C9    S    
Cr1   O5    S    
C77   O8    A    
C66   O33   S    
Cr4   O19   S    
C59   O30   S    
