data_mof_unit_26706.cif
_audit_creation_date              2012-12-10T19:45:47-0500
_audit_creation_method            fapswitch 2.2
_symmetry_space_group_name_H-M    P1
_symmetry_Int_Tables_number       1
_space_group_crystal_system       triclinic
_cell_length_a                    10.922475
_cell_length_b                    14.622789
_cell_length_c                    14.910014
_cell_angle_alpha                 64.97555
_cell_angle_beta                  102.759533
_cell_angle_gamma                 102.496193
_cell_volume                      2084.08366848

loop_
_atom_site_label
_atom_site_type_symbol
_atom_type_description
_atom_site_fract_x
_atom_site_fract_y
_atom_site_fract_z
_atom_type_partial_charge
C1    C     C_R   0.469977 0.120359 0.312536 0.855125
C2    C     C_R   0.707001 0.764230 0.944663 -0.146442
C3    C     C_R   0.384225 0.148280 0.131386 0.136714
C4    C     C_R   0.668412 0.835512 0.849885 0.141435
C5    C     C_R   0.466337 0.295694 0.173554 0.312114
C6    C     C_R   0.486611 0.711768 0.827737 0.193915
C7    C     C_R   0.473510 0.357255 0.071938 -0.030449
C8    C     C_R   0.542012 0.634331 0.913785 -0.009966
C9    C     C_R   0.409904 0.318012 0.000022 0.058090
C10   C     C_R   0.645957 0.664051 0.976573 0.069664
C11   C     C_R   0.532740 0.459646 0.039832 0.126173
C12   C     C_R   0.524614 0.879753 0.686831 0.896901
C13   C     C_R   0.498293 0.528552 0.940805 0.105189
C14   C     C_R   0.431914 0.487996 0.870411 -0.118236
C15   C     C_R   0.632115 0.492388 0.102192 -0.138919
C16   C     C_R   0.262377 0.002637 0.497748 0.846943
C17   C     C_R   0.737242 0.997739 0.501345 0.829986
C18   C     C_R   0.389821 0.383990 0.899482 -0.106206
C19   C     C_R   0.690233 0.592757 0.069843 -0.153157
C20   C     C_R   0.724884 0.288425 0.659362 0.297534
C21   C     C_R   0.279026 0.712527 0.339005 0.298412
C22   C     C_R   0.689532 0.207558 0.628177 -0.056193
C23   C     C_R   0.870401 0.994080 0.502745 -0.136211
C24   C     C_R   0.318859 0.796715 0.364491 0.004054
C25   C     C_R   0.507794 0.277700 0.524055 0.091114
C26   C     C_R   0.479184 0.714145 0.491023 -0.017887
C27   C     C_R   0.541679 0.366146 0.545481 -0.075433
C28   C     C_R   0.445163 0.625394 0.470261 -0.062228
C29   C     C_R   0.650185 0.369058 0.617555 0.031220
C30   C     C_R   0.343111 0.625812 0.391976 0.013225
C31   C     C_R   0.472912 0.451738 0.496451 0.057201
C32   C     C_R   0.509944 0.537641 0.523366 0.081993
C33   C     C_R   0.611679 0.533381 0.601423 -0.280183
C34   C     C_R   0.128459 0.006351 0.495109 -0.125240
C35   C     C_R   0.370392 0.455388 0.419302 -0.242648
C36   C     C_R   0.680703 0.451909 0.646259 -0.110509
C37   C     C_R   0.307856 0.539970 0.368334 -0.106825
C38   C     C_R   0.327320 0.139642 0.735399 0.337148
C39   C     C_R   0.697322 0.895373 0.231626 0.377342
C40   C     C_R   0.262014 0.078350 0.684113 -0.169983
C41   C     C_R   0.756364 0.947503 0.293356 -0.197464
C42   C     C_R   0.180200 0.119708 0.594752 0.036223
C43   C     C_R   0.815554 0.894485 0.390241 0.099813
C44   C     C_R   0.163731 0.222841 0.557944 -0.212232
C45   C     C_R   0.906486 0.951426 0.444994 -0.011157
C46   C     C_R   0.812875 0.788435 0.425642 -0.172953
C47   C     C_R   0.221693 0.282156 0.613178 0.174847
C48   C     C_R   0.755501 0.736208 0.363346 0.140561
C49   C     C_R   0.306499 0.240876 0.700031 -0.181270
C50   C     C_R   0.697247 0.790197 0.266694 -0.167594
C51   C     C_R   0.963315 0.038878 0.559370 0.105234
C52   C     C_R   0.034475 0.959915 0.439294 0.126456
C53   C     C_R   0.091490 0.052532 0.549820 -0.011787
C54   C     C_R   0.441578 0.188456 0.204706 -0.166441
C55   C     C_R   0.556962 0.810166 0.791378 -0.107515
C56   C     C_R   0.364336 0.214091 0.030193 -0.103095
Cu1   Cu    Cu3+1 0.466270 0.918260 0.475690 0.971561
Cu2   Cu    Cu3+1 0.533730 0.081740 0.524310 1.016061
H1    H     H_    0.353879 0.287105 0.741185 0.158832
H2    H     H_    0.421190 0.264742 0.478213 0.189211
H3    H     H_    0.272760 0.864101 0.325046 0.170988
H4    H     H_    0.743781 0.144769 0.659693 0.190496
H5    H     H_    0.642904 0.593035 0.628931 0.141303
H6    H     H_    0.334478 0.393359 0.396241 0.217690
H7    H     H_    0.271508 0.998175 0.715174 0.207543
H8    H     H_    0.762988 0.029661 0.264508 0.147476
H9    H     H_    0.096577 0.253835 0.491146 0.159343
H10   H     H_    0.863409 0.748194 0.498891 0.157213
H11   H     H_    0.338104 0.355824 0.843654 0.159700
H12   H     H_    0.655552 0.750622 0.217634 0.185850
H13   H     H_    0.769585 0.614794 0.118257 0.188489
H14   H     H_    0.894543 0.129560 0.833621 0.363608
H15   H     H_    0.030498 0.820385 0.240779 0.363472
H16   H     H_    0.571219 0.052438 0.800666 0.348981
H17   H     H_    0.698839 0.122295 0.074597 0.371689
H18   H     H_    0.266784 0.432786 0.585294 0.223952
H19   H     H_    0.131375 0.404381 0.516944 0.238717
H20   H     H_    0.674138 0.591384 0.388852 0.226829
H21   H     H_    0.807640 0.600100 0.468158 0.246116
H22   H     H_    0.983000 0.033563 0.700635 0.248578
H23   H     H_    0.314485 0.183598 0.975225 0.197308
H24   H     H_    0.940668 0.144506 0.608025 0.263634
H25   H     H_    0.128837 0.981887 0.325522 0.234692
H26   H     H_    0.101421 0.856845 0.409953 0.253343
H27   H     H_    0.360091 0.673220 0.662196 0.323185
H28   H     H_    0.566685 0.446677 0.311847 0.361099
H29   H     H_    0.756407 0.966601 0.862781 0.265166
H30   H     H_    0.835168 0.918874 0.811029 0.230408
H31   H     H_    0.376184 0.013391 0.121379 0.327882
H32   H     H_    0.238223 0.035528 0.136258 0.249722
H33   H     H_    0.789772 0.785861 0.990833 0.185133
H34   H     H_    0.418996 0.534938 0.791799 0.150204
H35   H     H_    0.670580 0.438904 0.173907 0.184417
H36   H     H_    0.759306 0.455731 0.703569 0.222835
H37   H     H_    0.230941 0.536347 0.309819 0.235377
H38   H     H_    0.555869 0.721520 0.547761 0.133272
N1    N     N_R   0.584450 0.204570 0.560790 -0.209798
N2    N     N_R   0.415550 0.795430 0.439210 -0.207238
N3    N     N_3   0.185172 0.379691 0.588087 -0.492414
N4    N     N_3   0.765673 0.630749 0.393449 -0.534190
N5    N     N_3   0.926977 0.065400 0.631476 -0.560240
N6    N     N_3   0.065335 0.925986 0.370381 -0.585269
N7    N     N_3   0.745485 0.932343 0.812095 -0.575010
N8    N     N_3   0.336107 0.042200 0.159653 -0.529119
O1    O     O_R   0.455540 0.022090 0.338120 -0.568082
O2    O     O_2   0.829470 0.284666 0.841090 -0.264839
O3    O     O_3   0.935095 0.184404 0.777597 -0.532948
O4    O     O_2   0.192971 0.709346 0.157568 -0.190295
O5    O     O_2   0.045449 0.633479 0.280182 -0.313898
O6    O     O_3   0.092790 0.831021 0.196839 -0.522555
O7    O     O_2   0.510814 0.168465 0.877193 -0.276468
O8    O     O_2   0.338452 0.027313 0.929063 -0.210431
O9    O     O_3   0.507912 0.006804 0.844332 -0.443384
O10   O     O_2   0.723904 0.968950 0.039746 -0.283784
O11   O     O_2   0.509571 0.904676 0.082197 -0.176508
O12   O     O_R   0.544460 0.977910 0.661880 -0.564091
O13   O     O_3   0.615581 0.080213 0.088334 -0.504783
O14   O     O_2   0.252248 0.616812 0.869355 -0.187046
O15   O     O_2   0.271704 0.797015 0.759106 -0.270715
O16   O     O_3   0.279716 0.667804 0.685260 -0.491875
O17   O     O_2   0.378892 0.452139 0.179727 -0.262198
O18   O     O_2   0.325942 0.282510 0.305690 -0.327659
O19   O     O_3   0.558726 0.374000 0.323058 -0.561115
O20   O     O_R   0.512510 0.160150 0.379180 -0.505473
O21   O     O_R   0.487490 0.839850 0.620820 -0.609685
O22   O     O_R   0.291160 0.930970 0.479480 -0.581715
O23   O     O_R   0.708840 0.069030 0.520520 -0.556472
O24   O     O_R   0.348130 0.069020 0.520540 -0.589455
O25   O     O_R   0.651870 0.930980 0.479460 -0.599816
O26   O     O_2   0.955229 0.381252 0.704734 -0.230869
S1    S     S_3+6 0.863747 0.286663 0.747919 0.014282
S2    S     S_3+6 0.149630 0.719315 0.241529 0.009780
S3    S     S_3+6 0.423063 0.086358 0.850314 0.060335
S4    S     S_3+6 0.634873 0.962183 0.106791 0.057278
S5    S     S_3+6 0.318990 0.698107 0.786184 0.060483
S6    S     S_3+6 0.428144 0.352833 0.246202 -0.020504

loop_
_geom_bond_atom_site_label_1
_geom_bond_atom_site_label_2
_ccdc_geom_bond_type
C3    N8    S    
C5    S6    S    
Cu1   O1    S    
Cu2   O24   S    
C24   H3    S    
C23   C45   A    
H25   N6    S    
C27   C29   A    
H26   N6    S    
C14   C18   A    
C19   H13   S    
H17   O13   S    
O8    S3    D    
H15   O6    S    
C47   C49   A    
C38   C49   A    
H18   N3    S    
C7    C11   A    
C29   C36   A    
C52   N6    S    
C8    C13   A    
C24   N2    A    
Cu1   O25   S    
C35   C37   A    
C42   C53   S    
Cu1   O21   S    
C3    C54   A    
C4    N7    S    
C33   C36   A    
C47   N3    S    
C37   H37   S    
C38   S3    S    
C16   C34   S    
C15   C19   A    
C11   C15   A    
O6    S2    S    
C35   H6    S    
C25   H2    S    
C6    C55   A    
C44   C47   A    
C18   H11   S    
C40   C42   A    
Cu2   O23   S    
C22   N1    A    
O9    S3    S    
C13   C14   A    
Cu2   O12   S    
C41   C43   A    
Cu2   N1    S    
C42   C44   A    
O13   S4    S    
C20   C29   A    
C26   H38   S    
O2    S1    D    
C48   N4    S    
C46   C48   A    
C17   O25   A    
C5    C54   A    
C28   C32   A    
C39   C41   A    
Cu1   O22   S    
C5    C7    A    
O7    S3    D    
C6    C8    A    
C12   O21   A    
C45   C52   A    
H16   O9    S    
C27   C31   A    
O15   S5    D    
C30   C37   A    
C51   C53   A    
H27   O16   S    
C2    C4    A    
C1    C54   S    
C21   S2    S    
C46   H10   S    
C6    S5    S    
C22   H4    S    
C16   O24   A    
C3    C56   A    
H21   N4    S    
C23   C51   A    
C31   C32   A    
H14   O3    S    
C10   C19   A    
C33   H5    S    
H32   N8    S    
O5    S2    D    
O10   S4    D    
C9    C56   A    
C17   C23   S    
C43   C45   S    
C14   H34   S    
C26   N2    A    
H29   N7    S    
O3    S1    S    
C20   C22   A    
C40   H7    S    
C4    C55   A    
H20   N4    S    
C31   C35   A    
C51   N5    S    
O18   S6    D    
C20   S1    S    
C2    C10   A    
H30   N7    S    
C25   N1    A    
C7    C9    A    
C26   C28   A    
C17   O23   A    
Cu2   O20   S    
C15   H35   S    
C41   H8    S    
O11   S4    D    
C25   C27   A    
C21   C30   A    
H22   N5    S    
C34   C52   A    
C49   H1    S    
O19   S6    S    
O16   S5    S    
C32   C33   A    
C28   C30   A    
O26   S1    D    
C50   H12   S    
C1    O20   A    
H31   N8    S    
C38   C40   A    
C11   C13   A    
Cu1   Cu2   S    
Cu1   N2    S    
C48   C50   A    
H24   N5    S    
C56   H23   S    
H19   N3    S    
O17   S6    D    
C2    H33   S    
C43   C46   A    
O4    S2    D    
C12   C55   S    
C36   H36   S    
C9    C18   A    
C39   C50   A    
C34   C53   A    
C8    C10   A    
C21   C24   A    
H28   O19   S    
C44   H9    S    
C16   O22   A    
O14   S5    D    
C1    O1    A    
C12   O12   A    
C39   S4    S    
