data_mof_unit_21138.cif
_audit_creation_date              2012-10-26T20:05:01-0400
_audit_creation_method            fapswitch 2.2
_symmetry_space_group_name_H-M    P1
_symmetry_Int_Tables_number       1
_space_group_crystal_system       triclinic
_cell_length_a                    15.856507
_cell_length_b                    15.044443
_cell_length_c                    13.761519
_cell_angle_alpha                 88.507723
_cell_angle_beta                  91.818076
_cell_angle_gamma                 88.868591
_cell_volume                      3279.38150852

loop_
_atom_site_label
_atom_site_type_symbol
_atom_type_description
_atom_site_fract_x
_atom_site_fract_y
_atom_site_fract_z
_atom_type_partial_charge
C1    C     C_R   0.500759 0.329131 0.501263 0.549258
C2    C     C_R   0.500915 0.046820 0.502054 0.012088
C3    C     C_R   0.435331 0.906285 0.545071 0.012857
C4    C     C_R   0.564860 0.093653 0.454454 0.012191
C5    C     C_R   0.615797 0.955847 0.385215 0.002026
C6    C     C_R   0.384561 0.044020 0.614540 0.001376
C7    C     C_R   0.620158 0.047555 0.395117 -0.117545
C8    C     C_R   0.380202 0.952329 0.604596 -0.117366
C9    C     C_R   0.555524 0.446068 0.799750 0.134834
C10   C     C_R   0.446850 0.556447 0.200241 0.134230
C11   C     C_R   0.437626 0.545676 0.788820 0.024970
C12   C     C_R   0.499455 0.670850 0.498730 0.549645
C13   C     C_R   0.546159 0.436433 0.211220 0.026145
C14   C     C_R   0.428911 0.540455 0.891976 -0.026018
C15   C     C_R   0.542559 0.427859 0.107929 -0.024527
C16   C     C_R   0.339857 0.500335 0.498685 0.536207
C17   C     C_R   0.660158 0.500167 0.501364 0.535861
C18   C     C_R   0.485349 0.484280 0.948191 0.000932
C19   C     C_R   0.485965 0.483986 0.051757 0.000996
C20   C     C_R   0.541754 0.428604 0.900761 0.009060
C21   C     C_R   0.430498 0.540758 0.099201 0.010037
C22   C     C_R   0.362306 0.584379 0.940156 0.007410
C23   C     C_R   0.497809 0.767436 0.495329 0.020945
C24   C     C_R   0.588823 0.360949 0.059606 0.007911
C25   C     C_R   0.360389 0.578833 0.043985 0.004474
C26   C     C_R   0.581904 0.357227 0.956043 0.002469
C27   C     C_3   0.976865 0.470748 0.589543 -0.100435
C28   C     C_3   0.023243 0.534602 0.413252 -0.099561
C29   C     C_3   0.030276 0.419934 0.515796 0.028725
C30   C     C_3   0.969813 0.585430 0.486990 0.028153
C31   C     C_1   0.250274 0.501386 0.496178 -0.048915
C32   C     C_1   0.749750 0.500968 0.504336 -0.052087
C33   C     C_3   0.030597 0.554122 0.571054 0.028862
C34   C     C_R   0.502488 0.232519 0.504531 0.023324
C35   C     C_3   0.969614 0.451258 0.431774 0.029604
C36   C     C_3   0.083285 0.502859 0.498371 0.051296
C37   C     C_3   0.916824 0.502452 0.504358 0.051262
C38   C     C_1   0.174805 0.502276 0.496193 -0.065750
C39   C     C_1   0.825237 0.501744 0.505405 -0.066570
C40   C     C_R   0.429730 0.813760 0.535147 -0.028060
C41   C     C_R   0.570467 0.186192 0.464396 -0.028660
C42   C     C_3   0.065564 0.325770 0.531801 -0.409348
C43   C     C_3   0.934397 0.679530 0.470970 -0.409841
C44   C     C_3   0.292710 0.635870 0.882123 -0.256125
C45   C     C_R   0.566326 0.812691 0.455889 -0.030563
C46   C     C_3   0.317311 0.732938 0.865635 -0.297585
C47   C     C_3   0.246066 0.786692 0.813276 -0.465333
C48   C     C_3   0.645541 0.293839 0.117106 -0.256292
C49   C     C_3   0.732271 0.333356 0.139475 -0.299010
C50   C     C_3   0.793346 0.263994 0.186489 -0.463344
C51   C     C_3   0.278456 0.599858 0.093701 -0.412505
C52   C     C_3   0.604230 0.271037 0.906914 -0.412813
C53   C     C_3   0.933941 0.392650 0.352770 -0.412368
C54   C     C_3   0.066523 0.612819 0.649996 -0.410207
C55   C     C_3   0.352474 0.764672 0.568305 -0.401516
C56   C     C_R   0.433958 0.187208 0.543899 -0.026757
C57   C     C_3   0.647991 0.234947 0.431434 -0.401344
C58   C     C_3   0.648183 0.761007 0.441595 -0.389504
C59   C     C_3   0.352069 0.238825 0.558250 -0.388135
C60   C     C_3   0.661438 0.917064 0.300810 -0.412372
C61   C     C_3   0.339052 0.082727 0.699084 -0.412082
C62   C     C_3   0.639959 0.420418 0.760077 -0.334003
C63   C     C_3   0.420254 0.644959 0.239814 -0.334423
C64   C     C_R   0.561135 0.906469 0.444915 0.042120
C65   C     C_R   0.439132 0.093430 0.554746 0.042218
C66   C     C_R   0.499284 0.953111 0.497477 0.012316
Cu1   Cu    Cu3+1 0.500010 0.499990 0.597420 0.909307
Cu2   Cu    Cu3+1 0.499990 0.500010 0.402580 0.910303
H1    H     H_    0.957404 0.444736 0.661483 0.097414
H2    H     H_    0.986917 0.726163 0.460658 0.124533
H3    H     H_    0.891805 0.682463 0.405346 0.127481
H4    H     H_    0.898362 0.699162 0.535106 0.131591
H5    H     H_    0.228819 0.756663 0.742684 0.146140
H6    H     H_    0.189537 0.788805 0.858876 0.149508
H7    H     H_    0.266685 0.855840 0.799467 0.135915
H8    H     H_    0.331517 0.763524 0.936849 0.165573
H9    H     H_    0.374962 0.736027 0.821993 0.156339
H10   H     H_    0.277728 0.604143 0.812001 0.123344
H11   H     H_    0.231720 0.634588 0.918972 0.143070
H12   H     H_    0.042686 0.560587 0.341290 0.098237
H13   H     H_    0.799974 0.205855 0.138990 0.147507
H14   H     H_    0.856419 0.293515 0.197053 0.141050
H15   H     H_    0.770808 0.241320 0.258294 0.145303
H16   H     H_    0.759436 0.358328 0.070670 0.164703
H17   H     H_    0.725969 0.390188 0.188867 0.157675
H18   H     H_    0.615194 0.271075 0.184462 0.122417
H19   H     H_    0.655263 0.231601 0.077530 0.144912
H20   H     H_    0.262604 0.671991 0.086348 0.121893
H21   H     H_    0.226616 0.560970 0.060799 0.122453
H22   H     H_    0.280184 0.579402 0.171681 0.134639
H23   H     H_    0.664228 0.083272 0.350852 0.111833
H24   H     H_    0.673523 0.258517 0.910667 0.121007
H25   H     H_    0.572076 0.214889 0.943129 0.125737
H26   H     H_    0.581380 0.270405 0.829956 0.136741
H27   H     H_    0.986300 0.363774 0.311376 0.124428
H28   H     H_    0.897650 0.338131 0.386248 0.131047
H29   H     H_    0.891515 0.433002 0.302521 0.130864
H30   H     H_    0.014266 0.641778 0.691487 0.125550
H31   H     H_    0.109049 0.572573 0.700240 0.126915
H32   H     H_    0.102771 0.667299 0.616380 0.127513
H33   H     H_    0.345343 0.699407 0.533696 0.136202
H34   H     H_    0.336361 0.916543 0.649023 0.112989
H35   H     H_    0.356854 0.753812 0.648174 0.131934
H36   H     H_    0.294008 0.803357 0.547537 0.115035
H37   H     H_    0.653695 0.301872 0.462492 0.139457
H38   H     H_    0.706193 0.197489 0.455999 0.115461
H39   H     H_    0.645804 0.242202 0.351164 0.120120
H40   H     H_    0.660586 0.712632 0.502984 0.134040
H41   H     H_    0.644462 0.723822 0.373030 0.141240
H42   H     H_    0.703768 0.804399 0.442767 0.127525
H43   H     H_    0.339630 0.287237 0.496902 0.133989
H44   H     H_    0.296518 0.195382 0.557061 0.126599
H45   H     H_    0.396143 0.587616 0.743232 0.131705
H46   H     H_    0.355751 0.275952 0.626854 0.146016
H47   H     H_    0.633291 0.854115 0.276970 0.137539
H48   H     H_    0.655609 0.963279 0.236503 0.121520
H49   H     H_    0.729568 0.907235 0.319923 0.121102
H50   H     H_    0.367245 0.145648 0.722940 0.141745
H51   H     H_    0.270902 0.092586 0.680102 0.120955
H52   H     H_    0.344941 0.036441 0.763333 0.121646
H53   H     H_    0.673145 0.481778 0.739263 0.152079
H54   H     H_    0.632453 0.374181 0.699130 0.159843
H55   H     H_    0.684403 0.389392 0.815026 0.084541
H56   H     H_    0.586569 0.393571 0.257056 0.132834
H57   H     H_    0.377747 0.636171 0.301555 0.160471
H58   H     H_    0.477541 0.682150 0.259875 0.150855
H59   H     H_    0.388400 0.690071 0.184888 0.086667
H60   H     H_    0.012976 0.279220 0.542106 0.124368
H61   H     H_    0.101568 0.306080 0.467662 0.132586
H62   H     H_    0.108152 0.322763 0.597427 0.127862
N1    N     N_R   0.499960 0.499930 0.743810 -0.229139
N2    N     N_R   0.500040 0.500070 0.256190 -0.229834
O1    O     O_R   0.500020 0.370250 0.582280 -0.503736
O2    O     O_R   0.499980 0.629750 0.417720 -0.518707
O3    O     O_R   0.500010 0.370270 0.417740 -0.500918
O4    O     O_R   0.499990 0.629730 0.582260 -0.495847
O5    O     O_R   0.379080 0.499980 0.582260 -0.505876
O6    O     O_R   0.620920 0.500020 0.417740 -0.499993
O7    O     O_R   0.379070 0.500000 0.417710 -0.497549
O8    O     O_R   0.620930 0.500000 0.582290 -0.513109

loop_
_geom_bond_atom_site_label_1
_geom_bond_atom_site_label_2
_ccdc_geom_bond_type
C57   H37   S    
C34   C56   A    
C43   H4    S    
C23   C45   A    
C29   C42   S    
C35   C53   S    
C58   H41   S    
C14   C18   A    
Cu2   O6    S    
C16   O5    A    
C2    C65   A    
C46   H8    S    
C11   H45   S    
C27   C33   S    
C16   C31   S    
C15   C19   A    
C29   C36   S    
C50   H14   S    
C60   H47   S    
C49   H16   S    
Cu1   O1    S    
C24   C26   A    
C55   H33   S    
C51   H22   S    
C11   C14   A    
C61   H51   S    
C4    C41   A    
C23   C40   A    
C55   H35   S    
C33   C36   S    
C27   C29   S    
C18   C19   A    
C32   C39   T    
Cu2   N2    S    
C6    C65   A    
C22   C44   S    
C10   C63   S    
C28   C35   S    
C22   C25   A    
C50   H15   S    
C59   H43   S    
C52   H26   S    
C17   O6    A    
C42   H61   S    
C18   C20   A    
C27   H1    S    
C42   H60   S    
C57   H38   S    
C44   H11   S    
C12   O2    A    
C61   H52   S    
C54   H32   S    
C34   C41   A    
C4    C7    A    
C1    O1    A    
C62   H55   S    
C44   C46   S    
C1    C34   S    
C9    N1    A    
C10   C21   A    
C45   C58   S    
Cu1   Cu2   S    
C24   C48   S    
C49   H17   S    
C52   H25   S    
C47   H5    S    
C3    C8    A    
C5    C7    A    
C13   H56   S    
C6    C8    A    
C53   H29   S    
C55   H36   S    
C9    C62   S    
C5    C64   A    
C64   C66   A    
C2    C4    A    
C25   C51   S    
C19   C21   A    
C26   C52   S    
C53   H27   S    
C9    C20   A    
C12   C23   S    
C40   C55   S    
C7    H23   S    
C59   H44   S    
C48   H19   S    
C60   H49   S    
C42   H62   S    
Cu1   O8    S    
C63   H57   S    
C48   C49   S    
C57   H39   S    
C3    C40   A    
C43   H2    S    
C13   C15   A    
C48   H18   S    
C54   H31   S    
C52   H24   S    
C16   O7    A    
C28   H12   S    
C62   H54   S    
C6    C61   S    
C33   C54   S    
C21   C25   A    
C46   C47   S    
C15   C24   A    
C43   H3    S    
C30   C33   S    
C35   C37   S    
C61   H50   S    
C58   H42   S    
Cu2   O3    S    
Cu1   N1    S    
C47   H6    S    
C2    C66   A    
C11   N1    A    
C51   H20   S    
C46   H9    S    
C56   C59   S    
C29   C35   S    
C45   C64   A    
C31   C38   T    
C14   C22   A    
C44   H10   S    
Cu1   O4    S    
C47   H7    S    
C28   C30   S    
C37   C39   S    
C30   C37   S    
C51   H21   S    
C20   C26   A    
C27   C37   S    
C59   H46   S    
C36   C38   S    
C13   N2    A    
Cu2   O2    S    
C17   O8    A    
C58   H40   S    
C5    C60   S    
C30   C43   S    
C10   N2    A    
C63   H58   S    
C60   H48   S    
C41   C57   S    
C3    C66   A    
C28   C36   S    
C49   C50   S    
C12   O4    A    
C17   C32   S    
C54   H30   S    
Cu2   O7    S    
C1    O3    A    
Cu1   O5    S    
C8    H34   S    
C62   H53   S    
C63   H59   S    
C56   C65   A    
C50   H13   S    
C53   H28   S    
