data_mof_unit_6471.cif
_audit_creation_date              2013-03-05T16:36:15-0500
_audit_creation_method            fapswitch 2.2
_symmetry_space_group_name_H-M    P1
_symmetry_Int_Tables_number       1
_space_group_crystal_system       triclinic
_cell_length_a                    27.65716
_cell_length_b                    9.091286
_cell_length_c                    7.787282
_cell_angle_alpha                 90.005651
_cell_angle_beta                  90.012064
_cell_angle_gamma                 92.431959
_cell_volume                      1956.2639615

loop_
_atom_site_label
_atom_site_type_symbol
_atom_site_description
_atom_site_fract_x
_atom_site_fract_y
_atom_site_fract_z
_atom_type_partial_charge
O1    O     O_R   0.500000 0.288390 0.642760 -0.574481
O2    O     O_R   0.500000 0.711610 0.357240 -0.574576
O3    O     O_R   0.500000 0.711610 0.642760 -0.574469
O4    O     O_R   0.500000 0.288390 0.357240 -0.574554
C1    C     C_R   0.499866 0.220008 0.499994 0.851844
C2    C     C_R   0.500134 0.779992 0.500005 0.851832
O5    O     O_R   0.430260 0.500000 0.642770 -0.583748
O6    O     O_R   0.569740 0.500000 0.357230 -0.585258
O7    O     O_R   0.569740 0.500000 0.642770 -0.583763
O8    O     O_R   0.430260 0.500000 0.357230 -0.585299
C3    C     C_R   0.406996 0.495421 0.499777 0.792670
C4    C     C_R   0.593003 0.504588 0.499816 0.792665
Cu1   Cu    Cu3+1 0.500000 0.500000 0.669080 1.004704
Cu2   Cu    Cu3+1 0.500000 0.500000 0.330920 1.003715
C5    C     C_R   0.171579 0.339599 0.504102 0.529384
C6    C     C_R   0.828423 0.660467 0.504542 0.529375
C7    C     C_R   0.182147 0.594924 0.435658 0.561697
C8    C     C_R   0.817831 0.405149 0.435991 0.561594
O9    O     O_2   0.191735 0.213037 0.550376 -0.478339
O10   O     O_2   0.808284 0.787017 0.550960 -0.478090
O11   O     O_2   0.212623 0.713543 0.415253 -0.480083
O12   O     O_2   0.787346 0.286550 0.415524 -0.479882
N1    N     N_R   0.200633 0.462987 0.478693 -0.481120
N2    N     N_R   0.799360 0.537086 0.479122 -0.481171
C9    C     C_R   0.276222 0.470167 0.645684 -0.101860
C10   C     C_R   0.723773 0.529335 0.645995 -0.101876
C11   C     C_R   0.278904 0.449228 0.335637 -0.121520
C12   C     C_R   0.721098 0.551446 0.336043 -0.121532
C13   C     C_R   0.326774 0.482833 0.650652 -0.208650
C14   C     C_R   0.673220 0.516657 0.650839 -0.208570
C15   C     C_R   0.329217 0.462428 0.340107 -0.199364
C16   C     C_R   0.670783 0.538215 0.340385 -0.199351
C17   C     C_R   0.252213 0.454631 0.487884 0.353757
C18   C     C_R   0.747783 0.545470 0.488300 0.353814
C19   C     C_R   0.101351 0.479889 0.432865 -0.175953
C20   C     C_R   0.898626 0.520182 0.433071 -0.175902
C21   C     C_R   0.121096 0.344376 0.479420 -0.110555
C22   C     C_R   0.878896 0.655699 0.479700 -0.110450
C23   C     C_R   0.131993 0.607234 0.413049 -0.115098
C24   C     C_R   0.867980 0.392827 0.413314 -0.114859
C25   C     C_R   0.089645 0.219305 0.502060 0.476454
C26   C     C_R   0.910353 0.780795 0.502154 0.476107
C27   C     C_R   0.111829 0.742396 0.369375 0.490387
C28   C     C_R   0.888133 0.257659 0.369578 0.490621
C29   C     C_R   0.353682 0.481182 0.497414 -0.037245
C30   C     C_R   0.646316 0.518868 0.497573 -0.037231
H1    H     H_    0.348887 0.459401 0.220000 0.159290
H2    H     H_    0.651114 0.541695 0.220269 0.159276
H3    H     H_    0.344694 0.496217 0.773674 0.157520
H4    H     H_    0.655299 0.502797 0.773776 0.157552
H5    H     H_    0.260463 0.439086 0.213213 0.124238
H6    H     H_    0.739541 0.562044 0.213689 0.124231
H7    H     H_    0.255694 0.476550 0.763653 0.128177
H8    H     H_    0.744298 0.522493 0.763958 0.128193
C31   C     C_R   0.969612 0.371478 0.395116 0.011511
C32   C     C_R   0.030354 0.628604 0.394982 0.011635
C33   C     C_R   0.979760 0.639756 0.417147 0.021571
C34   C     C_R   0.020207 0.360336 0.417276 0.021351
C35   C     C_R   0.949342 0.510714 0.412897 0.067962
C36   C     C_R   0.050628 0.489365 0.412818 0.067874
C37   C     C_R   0.938463 0.247631 0.364637 -0.328037
C38   C     C_R   0.061503 0.752444 0.364507 -0.327172
C39   C     C_R   0.959233 0.774077 0.458530 -0.341443
C40   C     C_R   0.040731 0.226051 0.458864 -0.341003
C41   C     C_1   0.499954 0.065370 0.499991 -0.169285
C42   C     C_1   0.500046 0.934629 0.500006 -0.169283
N3    N     N_1   0.500000 0.500000 0.076820 -0.050623
N4    N     N_1   0.500000 0.500000 0.923180 -0.050238
O13   O     O_3   0.106158 0.088162 0.564471 -0.499879
C43   C     C_3   0.090635 0.067871 0.736735 0.110274
H9    H     H_    0.057326 0.126758 0.771011 0.103175
H10   H     H_    0.120013 0.108159 0.824073 0.158858
C44   C     C_3   0.079911 0.904832 0.769787 -0.795096
H11   H     H_    0.112657 0.841391 0.745263 0.270264
H12   H     H_    0.068077 0.887373 0.904485 0.172483
H13   H     H_    0.050009 0.863939 0.685478 0.243142
O14   O     O_3   0.893872 0.911965 0.564629 -0.499854
C45   C     C_3   0.909589 0.932432 0.736670 0.110076
H14   H     H_    0.943337 0.875266 0.769745 0.103327
H15   H     H_    0.880582 0.890303 0.824500 0.157972
C46   C     C_3   0.919487 0.095781 0.770349 -0.793298
H16   H     H_    0.886334 0.157628 0.746764 0.270261
H17   H     H_    0.931465 0.113351 0.904883 0.171959
H18   H     H_    0.949069 0.138448 0.685742 0.243492
O15   O     O_3   0.141144 0.868766 0.351230 -0.475637
C47   C     C_3   0.140576 0.916194 0.178709 0.104623
H19   H     H_    0.107209 0.976638 0.153529 0.121017
H20   H     H_    0.142920 0.822394 0.086957 0.118757
C48   C     C_3   0.184026 0.020920 0.146937 -0.668331
H21   H     H_    0.217915 0.967553 0.183453 0.276346
H22   H     H_    0.186097 0.050800 0.008922 0.184145
H23   H     H_    0.180643 0.122870 0.223418 0.252970
O16   O     O_3   0.858806 0.131292 0.351436 -0.475598
C49   C     C_3   0.859471 0.083567 0.179030 0.104816
H24   H     H_    0.892889 0.023282 0.154189 0.121110
H25   H     H_    0.857088 0.177220 0.087112 0.118750
C50   C     C_3   0.816109 0.978508 0.147133 -0.668493
H26   H     H_    0.782155 0.031763 0.183070 0.276052
H27   H     H_    0.814178 0.948252 0.009192 0.184480
H28   H     H_    0.819501 0.876782 0.223999 0.253008
H29   H     H_    0.952504 0.141034 0.337617 0.158493
H30   H     H_    0.047474 0.859047 0.337446 0.158508
H31   H     H_    0.981224 0.874035 0.474264 0.149166
H32   H     H_    0.018717 0.126186 0.475039 0.149587

loop_
_geom_bond_atom_site_label_1
_geom_bond_atom_site_label_2
_geom_bond_distance
_ccdc_geom_bond_type
O5    Cu1   1.939619 S    
O16   C49   1.411273 S    
C31   C35   1.412811 A    
C44   H12   1.108305 S    
C44   H11   1.110710 S    
C37   H29   1.079890 S    
C20   C35   1.417715 A    
C50   H28   1.108984 S    
C50   H26   1.110534 S    
C13   H3    1.082984 S    
O14   C45   1.418200 S    
C11   C17   1.398717 A    
O5    C3    1.285714 A    
C7    N1    1.365475 A    
C21   C25   1.413072 A    
C8    N2    1.365479 A    
C19   C21   1.415816 A    
C9    H7    1.082883 S    
C22   C26   1.413086 A    
O13   C43   1.418259 S    
C45   H15   1.110095 S    
C33   C35   1.414693 A    
C34   C36   1.414701 A    
C32   C33   1.417811 A    
C7    C23   1.407382 A    
O7    Cu1   1.939702 S    
C5    C21   1.411839 A    
C20   C24   1.413934 A    
C8    C24   1.407379 A    
C28   O16   1.385094 S    
C46   H17   1.108220 S    
C5    O9    1.348685 S    
C10   C18   1.400940 A    
N1    C17   1.433552 S    
Cu2   N3    1.978748 S    
C43   H9    1.117325 S    
C48   H22   1.109485 S    
O3    Cu1   1.934715 S    
C6    O10   1.348684 S    
O3    C2    1.273680 A    
C5    N1    1.366308 A    
C14   H4    1.083038 S    
C12   C18   1.398756 A    
C6    N2    1.366317 A    
C15   H1    1.083053 S    
Cu1   Cu2   2.633348 S    
C9    C13   1.398529 A    
C16   H2    1.083099 S    
O2    C2    1.273636 A    
C10   H8    1.082926 S    
C50   H27   1.109532 S    
C11   H5    1.083177 S    
C33   C39   1.405781 A    
C34   C40   1.405813 A    
C47   H20   1.116467 S    
C11   C15   1.392030 A    
N3    N4    1.196439 T    
C27   O15   1.384992 S    
C12   C16   1.392077 A    
C1    C41   1.405961 S    
O8    Cu2   1.939704 S    
C47   H19   1.111317 S    
C23   C27   1.412356 A    
C49   C50   1.521443 S    
O15   C47   1.411297 S    
C46   H16   1.110992 S    
C32   C36   1.412913 A    
C13   C29   1.406894 A    
C19   C36   1.417742 A    
C4    C30   1.474800 S    
C19   C23   1.413913 A    
C2    C42   1.405961 S    
O6    C4    1.282970 A    
C43   C44   1.521191 S    
C48   H23   1.108966 S    
C49   H25   1.116463 S    
C39   H31   1.078793 S    
C10   C14   1.398535 A    
C44   H13   1.107627 S    
O1    C1    1.273642 A    
C3    C29   1.474811 S    
O1    Cu1   1.934675 S    
C46   H18   1.107814 S    
C25   O13   1.382928 S    
C40   H32   1.078881 S    
O6    Cu2   1.939616 S    
C45   H14   1.117472 S    
C16   C30   1.406225 A    
C14   C30   1.406931 A    
O4    C1    1.273675 A    
C47   C48   1.521458 S    
C28   C37   1.399370 A    
C8    O12   1.349675 S    
C12   H6    1.083226 S    
C45   C46   1.521353 S    
C31   C37   1.408468 A    
C20   C22   1.415815 A    
C32   C38   1.408505 A    
O4    Cu2   1.934716 S    
C49   H24   1.111328 S    
O2    Cu2   1.934674 S    
O7    C4    1.285688 A    
N2    C18   1.433529 S    
O8    C3    1.282956 A    
C24   C28   1.412388 A    
C26   O14   1.382976 S    
C41   C42   1.188715 T    
C15   C29   1.406183 A    
C31   C34   1.417748 A    
C9    C17   1.400913 A    
C43   H10   1.109686 S    
C25   C40   1.397828 A    
C48   H21   1.110519 S    
C26   C39   1.397834 A    
C27   C38   1.399253 A    
C6    C22   1.411815 A    
C38   H30   1.079874 S    
Cu1   N4    1.978748 S    
C7    O11   1.349669 S    
