data_mof_unit_9387.cif
_audit_creation_date              2012-12-10T16:54:34-0500
_audit_creation_method            fapswitch 2.2
_symmetry_space_group_name_H-M    P1
_symmetry_Int_Tables_number       1
_space_group_crystal_system       triclinic
_cell_length_a                    15.053455
_cell_length_b                    10.913846
_cell_length_c                    9.808319
_cell_angle_alpha                 87.696582
_cell_angle_beta                  90.626865
_cell_angle_gamma                 92.561987
_cell_volume                      1608.44049676

loop_
_atom_site_label
_atom_site_type_symbol
_atom_type_description
_atom_site_fract_x
_atom_site_fract_y
_atom_site_fract_z
_atom_type_partial_charge
C1    C     C_R   0.503306 0.266365 0.502518 0.775446
C2    C     C_R   0.907868 0.557887 0.389243 0.088044
C3    C     C_R   0.948440 0.369463 0.708037 -0.241767
C4    C     C_R   0.041228 0.364486 0.710584 0.155495
C5    C     C_R   0.091430 0.430130 0.606785 0.074485
C6    C     C_R   0.046227 0.493944 0.499315 0.021200
C7    C     C_R   0.094424 0.557977 0.394140 0.088129
C8    C     C_R   0.050172 0.619030 0.287378 -0.253291
C9    C     C_R   0.957277 0.619273 0.282366 0.153729
C10   C     C_R   0.184995 0.435511 0.606279 -0.251724
C11   C     C_R   0.232016 0.498221 0.500446 -0.056511
C12   C     C_R   0.328962 0.499689 0.499806 0.785937
C13   C     C_R   0.186826 0.560712 0.396582 -0.236743
C14   C     C_2   0.472887 0.930171 0.596497 -0.152637
C15   C     C_2   0.483865 0.864568 0.486939 -0.330424
C16   C     C_2   0.462688 0.061938 0.579326 -0.199313
C17   C     C_2   0.521011 0.137403 0.510425 0.043203
C18   C     C_2   0.452854 0.419872 0.925023 0.215701
C19   C     C_2   0.443956 0.431600 0.079520 0.206290
C20   C     C_R   0.496133 0.733921 0.497164 0.855401
C21   C     C_R   0.670907 0.500172 0.500412 0.808386
C22   C     C_R   0.814719 0.557819 0.392301 -0.251258
C23   C     C_R   0.767532 0.499459 0.500356 -0.070536
C24   C     C_R   0.812213 0.438290 0.606009 -0.229770
C25   C     C_R   0.904531 0.434512 0.604344 0.081780
C26   C     C_R   0.952932 0.495269 0.497374 0.019535
Cu1   Cu    Cu3+1 0.500020 0.500020 0.638630 0.924482
Cu2   Cu    Cu3+1 0.499980 0.499980 0.361370 0.917386
H1    H     H_    0.777578 0.604372 0.312489 0.161233
H2    H     H_    0.404146 0.098492 0.623811 0.125919
H3    H     H_    0.526812 0.574947 0.891805 0.168427
H4    H     H_    0.774815 0.391551 0.688147 0.145519
H5    H     H_    0.909844 0.320578 0.787436 0.148178
H6    H     H_    0.223836 0.614204 0.319241 0.142520
H7    H     H_    0.088512 0.666180 0.206556 0.141265
H8    H     H_    0.467144 0.887220 0.698018 0.169573
N1    N     N_2   0.499020 0.498660 0.846910 -0.311376
N2    N     N_2   0.499000 0.498630 0.153040 -0.312059
O1    O     O_R   0.500020 0.321960 0.617040 -0.582157
O2    O     O_R   0.499980 0.321920 0.382900 -0.604596
O3    O     O_R   0.370270 0.499990 0.617090 -0.596483
O4    O     O_R   0.370240 0.499950 0.382940 -0.580692
O5    O     O_R   0.500020 0.678080 0.617100 -0.574369
O6    O     O_R   0.499980 0.678040 0.382960 -0.578215
O7    O     O_R   0.629760 0.500050 0.617060 -0.571725
O8    O     O_R   0.629730 0.500010 0.382910 -0.582054
H9    H     H_    0.480414 0.907800 0.385313 0.149214
C27   C     C_3   0.611029 0.101356 0.459532 -0.372766
C28   C     C_3   0.674529 0.072444 0.577862 -0.817512
H10   H     H_    0.681762 0.151837 0.645221 0.242708
H11   H     H_    0.650043 0.990153 0.638711 0.262126
H12   H     H_    0.740968 0.053998 0.537206 0.234159
H13   H     H_    0.605358 0.023589 0.390651 0.199750
H14   H     H_    0.642269 0.179024 0.397607 0.194327
C29   C     C_3   0.404087 0.309385 0.863486 -0.301588
C30   C     C_3   0.454949 0.192542 0.892381 -0.861217
H15   H     H_    0.470302 0.179765 0.002821 0.233406
H16   H     H_    0.413984 0.111293 0.861070 0.228486
H17   H     H_    0.518764 0.196874 0.836549 0.279842
H18   H     H_    0.335557 0.295025 0.901217 0.150357
H19   H     H_    0.387557 0.322459 0.755814 0.238414
C31   C     C_3   0.364571 0.362274 0.146368 -0.292131
C32   C     C_3   0.280116 0.432476 0.120885 -0.862250
H20   H     H_    0.292017 0.530145 0.145076 0.264556
H21   H     H_    0.259542 0.430277 0.012273 0.236859
H22   H     H_    0.225451 0.391139 0.185017 0.247731
H23   H     H_    0.354650 0.267543 0.111930 0.156811
H24   H     H_    0.373625 0.340282 0.254431 0.248089
H25   H     H_    0.553711 0.538959 0.104666 0.167274
C33   C     C_3   0.081024 0.285311 0.824475 -0.410158
C34   C     C_3   0.074248 0.345064 0.961827 -0.841644
H26   H     H_    0.104693 0.439676 0.956202 0.258905
H27   H     H_    0.003644 0.348987 0.992135 0.248791
H28   H     H_    0.109193 0.289682 0.041330 0.244673
H29   H     H_    0.043915 0.194861 0.830257 0.199120
H30   H     H_    0.150761 0.263105 0.807331 0.186053
H31   H     H_    0.223135 0.392578 0.687032 0.136303
C35   C     C_3   0.914198 0.686631 0.162326 -0.410428
C36   C     C_3   0.878063 0.597357 0.056995 -0.827055
H32   H     H_    0.933471 0.547922 0.013831 0.256982
H33   H     H_    0.829050 0.529329 0.103074 0.249971
H34   H     H_    0.844879 0.649079 0.972544 0.242498
H35   H     H_    0.860889 0.744686 0.197265 0.190574
H36   H     H_    0.963338 0.751238 0.110359 0.199207

loop_
_geom_bond_atom_site_label_1
_geom_bond_atom_site_label_2
_ccdc_geom_bond_type
C7    C13   A    
C29   C30   S    
C32   H21   S    
C22   H1    S    
C17   C27   S    
C15   H9    S    
C4    C33   S    
C7    C8    A    
C27   H14   S    
Cu2   O8    S    
C31   C32   S    
C31   H23   S    
C18   N1    D    
C14   H8    S    
C5    C6    A    
Cu2   O2    S    
C19   C31   S    
C16   H2    S    
C30   H15   S    
C18   C19   S    
C12   O4    A    
C1    O2    A    
C35   H35   S    
Cu1   O1    S    
C8    C9    A    
C28   H11   S    
C2    C22   A    
C23   C24   A    
C33   C34   S    
Cu1   O7    S    
N2    H25   S    
C29   H18   S    
C15   C20   S    
C20   O6    A    
C10   H31   S    
C21   O7    A    
C27   H13   S    
C3    C25   A    
C24   C25   A    
C34   H27   S    
C35   C36   S    
C16   C17   D    
C25   C26   A    
Cu2   O6    S    
C32   H20   S    
H3    N1    S    
C8    H7    S    
C24   H4    S    
C12   O3    A    
C19   N2    D    
Cu1   O5    S    
C36   H34   S    
Cu1   O3    S    
Cu2   N2    S    
C28   H12   S    
C2    C26   A    
C18   C29   S    
C27   C28   S    
C21   C23   S    
C33   H30   S    
C14   C16   S    
C3    C4    A    
C33   H29   S    
C20   O5    A    
C36   H33   S    
C21   O8    A    
C14   C15   D    
C4    C5    A    
C34   H28   S    
C11   C12   S    
C6    C7    A    
C1    C17   S    
C30   H17   S    
C31   H24   S    
C13   H6    S    
C11   C13   A    
C6    C26   A    
Cu1   N1    S    
C29   H19   S    
Cu2   O4    S    
C30   H16   S    
C9    C35   S    
C32   H22   S    
C10   C11   A    
C1    O1    A    
C36   H32   S    
C35   H36   S    
C5    C10   A    
C34   H26   S    
C28   H10   S    
Cu1   Cu2   S    
C3    H5    S    
C22   C23   A    
C2    C9    A    
