data_mof_unit_59868.cif
_audit_creation_date              2013-03-05T15:55:18-0500
_audit_creation_method            fapswitch 2.2
_symmetry_space_group_name_H-M    P1
_symmetry_Int_Tables_number       1
_space_group_crystal_system       triclinic
_cell_length_a                    14.738032
_cell_length_b                    14.730598
_cell_length_c                    33.192145
_cell_angle_alpha                 96.032073
_cell_angle_beta                  96.150592
_cell_angle_gamma                 61.291021
_cell_volume                      6271.91592824

loop_
_atom_site_label
_atom_site_type_symbol
_atom_site_description
_atom_site_fract_x
_atom_site_fract_y
_atom_site_fract_z
_atom_type_partial_charge
O1    O     O_R   0.679450 0.499830 0.463150 -0.521955
O2    O     O_R   0.480650 0.664000 0.464630 -0.492733
C1    C     C_R   0.390320 0.701267 0.446133 0.861036
O3    O     O_R   0.323930 0.675950 0.455370 -0.547226
O4    O     O_R   0.354700 0.475360 0.451930 -0.544650
C2    C     C_R   0.405881 0.385858 0.434078 0.781339
O5    O     O_R   0.494470 0.320860 0.448390 -0.520556
O6    O     O_R   0.662580 0.357570 0.460050 -0.497268
C3    C     C_R   0.703651 0.408277 0.448041 0.825743
O7    O     O_R   0.680900 0.502040 0.551870 -0.554643
O8    O     O_R   0.481990 0.666040 0.546870 -0.535236
C4    C     C_R   0.393429 0.701858 0.561218 0.887514
O9    O     O_R   0.325370 0.678160 0.544080 -0.519626
O10   O     O_R   0.356040 0.477400 0.534170 -0.542231
C5    C     C_R   0.406254 0.388091 0.548585 0.772494
O11   O     O_R   0.495910 0.323070 0.537100 -0.541819
O12   O     O_R   0.663920 0.359620 0.542290 -0.530900
C6    C     C_R   0.702812 0.412568 0.562359 0.755354
Cr1   Cr    Cr6+3 0.576280 0.580550 0.506370 1.028509
Cr2   Cr    Cr6+3 0.346780 0.572400 0.496520 0.977110
Cr3   Cr    Cr6+3 0.576960 0.347070 0.497150 1.030091
O13   O     O_3   0.500010 0.500010 0.500010 -0.356447
H1    H     H_    0.485693 0.202353 0.389465 0.177125
C7    C     C_R   0.373497 0.365147 0.392132 -0.099446
C8    C     C_R   0.299989 0.447769 0.369584 -0.170495
C9    C     C_R   0.291418 0.435796 0.327443 -0.159813
C10   C     C_R   0.355289 0.340988 0.307410 0.104705
C11   C     C_R   0.422406 0.254426 0.329714 0.153328
C12   C     C_R   0.430378 0.267220 0.372166 -0.086198
C13   C     C_R   0.418425 0.279337 0.159583 0.008010
C14   C     C_R   0.398867 0.263360 0.117451 0.354817
C15   C     C_R   0.212615 0.368584 0.125263 0.345677
C16   C     C_R   0.232100 0.387756 0.166748 0.022846
C17   C     C_R   0.333978 0.336384 0.184229 0.011154
C18   C     C_1   0.348542 0.335097 0.227726 0.039731
C19   C     C_1   0.353542 0.336088 0.264052 -0.043356
C20   C     C_R   0.295340 0.301426 0.100740 -0.352508
H2    H     H_    0.254456 0.523601 0.384191 0.141432
H3    H     H_    0.238336 0.502097 0.310345 0.133943
N1    N     N_R   0.776016 0.422865 0.222452 -0.256512
N2    N     N_R   0.772105 0.430509 0.262637 -0.272678
C21   C     C_R   0.763945 0.368602 0.410961 -0.210909
C22   C     C_R   0.812337 0.422056 0.397223 0.131480
C23   C     C_R   0.823854 0.418530 0.354953 0.150869
C24   C     C_R   0.797985 0.351781 0.328022 -0.084594
C25   C     C_R   0.770760 0.284440 0.343737 -0.239781
C26   C     C_R   0.755839 0.290114 0.384807 0.353457
N3    N     N_R   0.837249 0.251385 0.262524 -0.276711
N4    N     N_R   0.840920 0.243752 0.222421 -0.279607
C27   C     C_R   0.810632 0.329186 0.201531 0.550556
C28   C     C_R   0.804103 0.344683 0.283521 0.546459
C29   C     C_R   0.805295 0.403612 0.136315 -0.072979
C30   C     C_R   0.836110 0.389903 0.096610 0.126018
C31   C     C_R   0.892118 0.204865 0.097189 0.356907
C32   C     C_R   0.861405 0.220691 0.136850 -0.172862
C33   C     C_R   0.824267 0.318320 0.157538 -0.099450
C34   C     C_R   0.891379 0.287724 0.078490 -0.169225
H4    H     H_    0.758912 0.227625 0.323622 0.193622
H5    H     H_    0.769988 0.480774 0.151151 0.183356
H6    H     H_    0.868106 0.155578 0.151762 0.196854
N5    N     N_R   0.322958 0.758331 0.217961 -0.282633
N6    N     N_R   0.324385 0.756670 0.258011 -0.287309
C35   C     C_R   0.369810 0.759809 0.409037 -0.199172
C36   C     C_R   0.280905 0.781626 0.382253 0.083950
C37   C     C_R   0.281794 0.800991 0.342096 -0.158829
C38   C     C_R   0.366111 0.804379 0.327979 -0.064395
C39   C     C_R   0.446392 0.802278 0.356144 0.022643
C40   C     C_R   0.447261 0.780855 0.396892 0.371639
N7    N     N_R   0.410138 0.856240 0.267161 -0.281991
N8    N     N_R   0.409111 0.857647 0.227103 -0.219056
C41   C     C_R   0.365960 0.808299 0.201740 0.614084
C42   C     C_R   0.367774 0.805773 0.283474 0.547234
C43   C     C_R   0.261969 0.833069 0.136502 -0.164909
C44   C     C_R   0.236385 0.869265 0.097767 -0.149569
C45   C     C_R   0.401364 0.869461 0.098421 0.287868
C46   C     C_R   0.427514 0.832482 0.137808 0.296403
C47   C     C_R   0.354249 0.820442 0.157713 -0.150439
C48   C     C_R   0.301976 0.894556 0.079386 -0.229030
H7    H     H_    0.161814 0.883589 0.083260 0.225609
H8    H     H_    0.216608 0.810704 0.321059 0.158495
H9    H     H_    0.205690 0.822213 0.150986 0.187251
N9    N     N_R   0.334119 0.423125 0.774453 -0.278112
N10   N     N_R   0.336594 0.426073 0.734687 -0.287248
C49   C     C_R   0.367536 0.369078 0.584483 -0.122800
C50   C     C_R   0.291528 0.455543 0.605334 -0.182557
C51   C     C_R   0.270906 0.450473 0.644710 0.112628
C52   C     C_R   0.329922 0.357384 0.664473 -0.011719
C53   C     C_R   0.400878 0.266384 0.642757 0.120294
C54   C     C_R   0.414380 0.271187 0.601484 0.140136
N11   N     N_R   0.302883 0.285389 0.722751 -0.277817
N12   N     N_R   0.301255 0.281826 0.762482 -0.275008
C55   C     C_R   0.317270 0.350272 0.788870 0.510289
C56   C     C_R   0.321308 0.357132 0.708195 0.527454
C57   C     C_R   0.236319 0.416086 0.853844 -0.165827
C58   C     C_R   0.221363 0.398143 0.892655 0.135852
C59   C     C_R   0.382560 0.235072 0.889674 -0.169128
C60   C     C_R   0.396749 0.253105 0.851065 0.140969
C61   C     C_R   0.319852 0.341830 0.832320 0.006180
C62   C     C_R   0.292518 0.302932 0.909864 -0.085690
H10   H     H_    0.251509 0.529815 0.591762 0.168357
H11   H     H_    0.178892 0.485022 0.839123 0.132153
H12   H     H_    0.440114 0.163739 0.902826 0.160640
H13   H     H_    0.914259 0.137173 0.880135 0.183563
H14   H     H_    0.789541 0.202871 0.669465 0.161202
H15   H     H_    0.735636 0.240478 0.598400 0.151559
C63   C     C_R   0.759032 0.376158 0.601923 -0.049613
C64   C     C_R   0.795382 0.436035 0.627320 -0.155946
C65   C     C_R   0.825438 0.414421 0.668091 -0.135288
C66   C     C_R   0.820863 0.331991 0.683583 0.110204
C67   C     C_R   0.792868 0.267109 0.657762 -0.047993
C68   C     C_R   0.762506 0.288699 0.617143 -0.129438
C69   C     C_R   0.869345 0.215094 0.824130 0.406889
C70   C     C_R   0.898044 0.206878 0.866018 -0.233148
C71   C     C_R   0.887240 0.376963 0.871181 -0.143651
C72   C     C_R   0.860957 0.385358 0.829753 -0.196391
C73   C     C_R   0.855572 0.303945 0.805825 -0.003589
C74   C     C_1   0.844273 0.311318 0.762541 0.073613
C75   C     C_1   0.835248 0.319621 0.726467 0.008631
C76   C     C_R   0.910434 0.285895 0.889449 -0.102581
H16   H     H_    0.794405 0.503265 0.616415 0.144703
H17   H     H_    0.849248 0.454075 0.815992 0.136537
H18   H     H_    0.895535 0.439541 0.888365 0.148252
H19   H     H_    0.847479 0.464858 0.687918 0.119294
H20   H     H_    0.489994 0.746597 0.696830 0.144272
C77   C     C_R   0.374081 0.761422 0.601175 -0.226521
C78   C     C_R   0.272651 0.840586 0.609674 0.247607
C79   C     C_R   0.250145 0.882260 0.650031 0.321651
C80   C     C_R   0.329557 0.845081 0.681157 -0.099643
C81   C     C_R   0.430052 0.773113 0.672263 -0.184159
C82   C     C_R   0.453696 0.730168 0.632966 0.094154
C83   C     C_R   0.382106 0.897431 0.828388 0.150609
C84   C     C_R   0.378025 0.902716 0.871217 0.125178
C85   C     C_R   0.211105 0.904183 0.861312 -0.181480
C86   C     C_R   0.218048 0.891158 0.819405 0.087656
C87   C     C_R   0.300706 0.893275 0.802847 0.059071
C88   C     C_1   0.304572 0.885288 0.759394 0.003162
C89   C     C_1   0.311636 0.872444 0.723337 0.100483
C90   C     C_R   0.286451 0.916769 0.887433 -0.124752
H21   H     H_    0.142885 0.910077 0.873380 0.171355
O14   O     O_R   0.170070 0.978950 0.027680 -0.530803
O15   O     O_R   0.001760 0.175230 0.026640 -0.504719
C91   C     C_R   0.959278 0.265846 0.044508 0.840974
O16   O     O_R   0.984760 0.333570 0.037150 -0.517331
O17   O     O_R   0.183410 0.309240 0.041890 -0.506753
C92   C     C_R   0.273251 0.260733 0.059891 0.905073
O18   O     O_R   0.340240 0.172500 0.045430 -0.488255
O19   O     O_R   0.309670 0.000990 0.032050 -0.501112
C93   C     C_R   0.260277 0.957960 0.043450 0.846722
O20   O     O_R   0.168330 0.982130 0.939200 -0.548080
O21   O     O_R   0.000140 0.178170 0.944610 -0.533696
C94   C     C_R   0.962595 0.267713 0.930638 0.783604
O22   O     O_R   0.983010 0.336750 0.948660 -0.556024
O23   O     O_R   0.181800 0.312190 0.959860 -0.540805
C95   C     C_R   0.271135 0.264419 0.945333 0.788984
O24   O     O_R   0.338500 0.175680 0.956950 -0.539503
O25   O     O_R   0.308050 0.003930 0.950020 -0.532010
C96   C     C_R   0.256575 0.963982 0.928967 0.780564
Cr4   Cr    Cr6+3 0.087320 0.083240 0.984860 1.028928
Cr5   Cr    Cr6+3 0.087720 0.316210 0.996740 1.006623
Cr6   Cr    Cr6+3 0.317350 0.090340 0.995890 1.071496
O26   O     O_3   0.164130 0.163270 0.992500 -0.362029
N13   N     N_R   0.483700 0.210879 0.091414 0.137620
O27   O     O_R   0.483261 0.253057 0.058805 -0.357922
O28   O     O_R   0.560161 0.120139 0.099506 -0.297190
N14   N     N_R   0.734241 0.214448 0.399411 0.114369
O29   O     O_R   0.786343 0.165927 0.431524 -0.345895
O30   O     O_R   0.679124 0.179215 0.376605 -0.388938
C97   C     C_3   0.808427 0.485315 0.074575 -0.563376
H22   H     H_    0.743518 0.555115 0.088470 0.217648
H23   H     H_    0.875577 0.500213 0.075801 0.280952
H24   H     H_    0.782723 0.475613 0.042465 0.184563
C98   C     C_3   0.864662 0.483180 0.338379 -0.687792
H25   H     H_    0.891960 0.524988 0.361934 0.205074
H26   H     H_    0.931011 0.432638 0.319585 0.206927
H27   H     H_    0.802116 0.543381 0.319654 0.236265
N15   N     N_R   0.922290 0.104860 0.076492 0.114427
O31   O     O_R   0.879635 0.098569 0.040620 -0.336310
O32   O     O_R   0.971946 0.021565 0.096627 -0.376704
C99   C     C_3   0.184509 0.783509 0.394828 -0.631734
H28   H     H_    0.117913 0.820474 0.372283 0.199472
H29   H     H_    0.197967 0.703554 0.397393 0.203013
H30   H     H_    0.161363 0.829497 0.424154 0.243310
N16   N     N_R   0.526825 0.780327 0.425978 0.091002
O33   O     O_R   0.622061 0.707203 0.423410 -0.383894
O34   O     O_R   0.502004 0.845248 0.457712 -0.361454
C100  C     C_3   0.529017 0.236239 0.177645 -0.575749
H31   H     H_    0.534390 0.265929 0.209440 0.182952
H32   H     H_    0.565772 0.150434 0.177255 0.254121
H33   H     H_    0.573967 0.258829 0.159889 0.225073
C101  C     C_3   0.530888 0.820935 0.342750 -0.614194
H34   H     H_    0.588361 0.818896 0.367449 0.244995
H35   H     H_    0.573816 0.761063 0.318827 0.221279
H36   H     H_    0.495942 0.899365 0.331015 0.213645
N17   N     N_R   0.476808 0.877842 0.077445 0.145136
O35   O     O_R   0.497068 0.954410 0.087090 -0.281141
O36   O     O_R   0.512949 0.818768 0.044844 -0.366052
N18   N     N_R   0.529045 0.803789 0.156951 0.129144
O37   O     O_R   0.581743 0.715139 0.173463 -0.361163
O38   O     O_R   0.566617 0.868265 0.160198 -0.298752
C102  C     C_3   0.475049 0.172760 0.575683 -0.673206
H37   H     H_    0.456320 0.111501 0.582323 0.216258
H38   H     H_    0.453535 0.184071 0.542830 0.216430
H39   H     H_    0.559505 0.145371 0.581647 0.216058
C103  C     C_3   0.127562 0.479514 0.913662 -0.694021
H40   H     H_    0.089577 0.553087 0.897924 0.197494
H41   H     H_    0.069418 0.452134 0.913876 0.220141
H42   H     H_    0.150798 0.497316 0.945190 0.221680
C104  C     C_3   0.188047 0.546426 0.665491 -0.700181
H43   H     H_    0.141209 0.607536 0.643873 0.218051
H44   H     H_    0.134336 0.526854 0.678998 0.210117
H45   H     H_    0.223913 0.579457 0.689583 0.230489
C105  C     C_3   0.465259 0.166828 0.664418 -0.709362
H46   H     H_    0.531208 0.107744 0.647325 0.213286
H47   H     H_    0.500285 0.182946 0.693768 0.218055
H48   H     H_    0.415519 0.132564 0.670048 0.233283
C106  C     C_3   0.488567 0.150434 0.308693 -0.675740
H49   H     H_    0.536479 0.090898 0.330772 0.224832
H50   H     H_    0.438256 0.123670 0.289640 0.211611
H51   H     H_    0.541390 0.157017 0.289086 0.223356
C107  C     C_3   0.492640 0.174015 0.830529 -0.701082
H52   H     H_    0.500780 0.198621 0.801269 0.224727
H53   H     H_    0.562560 0.161314 0.850569 0.224745
H54   H     H_    0.490441 0.099500 0.824830 0.206563
N19   N     N_R   0.857271 0.132388 0.801019 0.086317
O39   O     O_R   0.888928 0.044120 0.816871 -0.390085
O40   O     O_R   0.805228 0.147605 0.765934 -0.370370
C108  C     C_3   0.471826 0.888824 0.898871 -0.676064
H55   H     H_    0.543460 0.824583 0.886414 0.203368
H56   H     H_    0.477530 0.961746 0.902215 0.211630
H57   H     H_    0.469784 0.864793 0.929170 0.225579
C109  C     C_3   0.471230 0.897034 0.809174 -0.773573
H58   H     H_    0.525227 0.911861 0.831206 0.217112
H59   H     H_    0.515899 0.821085 0.792466 0.209758
H60   H     H_    0.440283 0.959304 0.787495 0.218227
C110  C     C_3   0.562574 0.645254 0.627022 -0.673845
H61   H     H_    0.611858 0.627941 0.655878 0.185929
H62   H     H_    0.560532 0.572967 0.615161 0.193429
H63   H     H_    0.599898 0.668865 0.605940 0.233349
N20   N     N_R   0.191839 0.875891 0.577700 0.147765
O41   O     O_R   0.103389 0.879412 0.581867 -0.317404
O42   O     O_R   0.207289 0.902400 0.543921 -0.353804
C111  C     C_3   0.134420 0.879358 0.792634 -0.602982
H64   H     H_    0.077635 0.874867 0.810680 0.228522
H65   H     H_    0.092115 0.946688 0.773426 0.261486
H66   H     H_    0.169674 0.806901 0.772852 0.202849
N21   N     N_R   0.147942 0.962635 0.659031 0.136227
O43   O     O_R   0.100834 0.043398 0.637374 -0.319907
O44   O     O_R   0.102300 0.956682 0.689341 -0.368298
C112  C     C_3   0.141991 0.460812 0.192119 -0.592371
H67   H     H_    0.095880 0.422396 0.197559 0.229550
H68   H     H_    0.167061 0.486176 0.221888 0.179471
H69   H     H_    0.091437 0.532616 0.176087 0.242702
N22   N     N_R   0.107277 0.413087 0.108976 0.100974
O45   O     O_R   0.044721 0.384473 0.121423 -0.402664
O46   O     O_R   0.070279 0.493089 0.087071 -0.361065
C113  C     C_3   0.857767 0.475973 0.427615 -0.641810
H70   H     H_    0.940329 0.447501 0.422017 0.187185
H71   H     H_    0.814078 0.561078 0.425068 0.257110
H72   H     H_    0.858710 0.458128 0.459336 0.206082

loop_
_geom_bond_atom_site_label_1
_geom_bond_atom_site_label_2
_geom_bond_distance
_ccdc_geom_bond_type
C22   C113  1.514750 S    
C11   C106  1.506772 S    
N17   O36   1.300842 A    
C52   C53   1.421882 A    
C62   C95   1.482835 S    
C40   N16   1.434347 S    
N1    N2    1.331833 A    
C101  H34   1.105612 S    
C72   H17   1.084207 S    
C59   H12   1.083954 S    
C110  H62   1.109003 S    
C43   C44   1.388002 A    
O19   C93   1.275773 A    
C106  H51   1.110576 S    
C41   C47   1.472584 S    
C45   C46   1.412251 A    
C80   C81   1.387121 A    
O14   C93   1.275565 A    
C6    C63   1.478712 S    
C71   C72   1.389893 A    
C103  H41   1.109508 S    
C39   C101  1.515595 S    
C55   C61   1.455417 S    
C87   C88   1.439748 S    
O4    Cr2   1.918219 S    
C50   C51   1.390511 A    
C98   H25   1.105383 S    
C4    O9    1.274355 A    
O8    Cr1   1.920241 S    
C3    C21   1.493412 S    
N14   O29   1.301566 A    
C34   C91   1.494381 S    
C78   C79   1.417037 A    
C13   C100  1.515109 S    
C11   C12   1.401708 A    
H13   C70   1.082765 S    
C106  H50   1.110459 S    
C81   C82   1.391096 A    
C83   C87   1.415408 A    
C46   N18   1.437552 S    
C102  H39   1.110322 S    
N22   O45   1.299960 A    
C26   N14   1.437388 S    
C58   C62   1.421287 A    
C9    H3    1.084080 S    
O18   Cr6   2.034093 S    
C63   C64   1.405883 A    
C24   C28   1.479127 S    
C84   C90   1.420526 A    
C72   C73   1.397519 A    
N10   C56   1.358287 A    
C59   C62   1.408807 A    
C60   C61   1.405864 A    
C82   C110  1.505351 S    
C13   C14   1.415559 A    
N9    C55   1.353424 A    
C65   C66   1.400229 A    
O6    C3    1.277437 A    
O12   C6    1.272445 A    
C17   C18   1.437469 S    
C31   N15   1.436402 S    
C21   C22   1.421712 A    
N18   O38   1.300493 A    
C43   C47   1.399737 A    
C67   C68   1.394001 A    
C69   C70   1.409544 A    
Cr4   O26   1.973157 S    
O14   Cr4   2.038377 S    
C25   C26   1.391497 A    
C77   C82   1.421270 A    
C97   H24   1.110577 S    
C38   C42   1.482484 S    
N20   O41   1.301262 A    
C57   H11   1.084542 S    
C102  H37   1.110489 S    
C113  H71   1.108373 S    
C15   N22   1.431466 S    
H20   C81   1.085828 S    
C111  H65   1.110191 S    
C110  H61   1.110958 S    
C103  H42   1.110403 S    
C7    C8    1.402155 A    
N15   O31   1.301489 A    
N8    C41   1.357337 A    
N18   O37   1.301415 A    
C27   C33   1.476871 S    
O20   Cr4   2.036079 S    
N21   O43   1.301287 A    
C44   C48   1.402007 A    
C71   C76   1.403600 A    
C101  H36   1.109813 S    
C98   H27   1.109111 S    
C48   C93   1.482701 S    
C99   H30   1.110542 S    
N5    C41   1.355693 A    
C97   H23   1.107871 S    
C77   C78   1.421466 A    
H15   C68   1.083045 S    
C14   N13   1.438835 S    
C85   C90   1.406027 A    
N14   O30   1.301127 A    
C37   H8    1.084535 S    
C70   C76   1.405886 A    
Cr3   O13   1.973375 S    
C25   H4    1.083823 S    
C103  H40   1.110977 S    
C69   N19   1.444643 S    
C57   C58   1.402250 A    
C78   N20   1.437134 S    
C43   H9    1.083380 S    
C107  H52   1.108937 S    
C98   H26   1.110550 S    
C66   C75   1.434205 S    
C92   O18   1.277510 A    
N13   O28   1.300836 A    
C63   C68   1.409081 A    
N3    C28   1.356390 A    
C113  H70   1.110332 S    
C76   C94   1.478433 S    
N21   O44   1.300997 A    
O1    Cr1   2.038569 S    
C111  H66   1.110546 S    
C112  H68   1.108711 S    
C13   C17   1.411824 A    
C39   C40   1.418159 A    
C99   H29   1.107598 S    
O10   Cr2   1.919946 S    
O25   Cr6   1.916415 S    
Cr1   O13   1.973166 S    
O1    C3    1.277321 A    
C106  H49   1.110882 S    
C109  H59   1.110348 S    
C84   C108  1.513716 S    
C51   C104  1.510696 S    
N12   C55   1.355789 A    
N22   O46   1.300962 A    
C36   C99   1.510004 S    
C30   C34   1.423941 A    
C51   C52   1.410003 A    
C104  H43   1.111019 S    
C113  H72   1.108782 S    
C4    C77   1.485330 S    
N19   O39   1.301363 A    
C8    C9    1.391131 A    
O5    Cr3   2.035795 S    
N9    N10   1.330141 A    
C86   C111  1.509156 S    
C1    O3    1.276456 A    
C14   C20   1.418502 A    
N19   O40   1.301146 A    
C18   C19   1.199063 T    
O3    Cr2   2.037521 S    
O23   Cr5   1.922006 S    
N7    C42   1.355961 A    
C80   C89   1.432040 S    
C23   C98   1.517443 S    
N16   O33   1.300553 A    
C29   H5    1.083631 S    
C8    H2    1.081180 S    
C30   C97   1.509286 S    
C108  H55   1.110199 S    
C105  H48   1.109829 S    
O7    Cr1   2.037322 S    
C64   C65   1.398433 A    
C2    C7    1.472232 S    
C59   C60   1.392448 A    
C32   C33   1.398594 A    
Cr5   O26   1.973181 S    
C16   C17   1.406321 A    
C112  H67   1.109916 S    
C60   C107  1.508951 S    
N6    C42   1.358858 A    
N20   O42   1.301366 A    
C79   N21   1.438281 S    
C15   C20   1.418554 A    
C49   C50   1.402247 A    
O17   Cr5   1.919808 S    
C16   C112  1.518909 S    
C95   O24   1.272873 A    
C2    O5    1.268377 A    
C99   H28   1.111114 S    
C100  H31   1.108890 S    
C107  H54   1.109459 S    
N17   O35   1.300374 A    
N7    N8    1.330298 A    
N3    N4    1.328733 A    
C108  H56   1.110381 S    
C105  H47   1.110537 S    
C85   H21   1.083522 S    
C44   H7    1.081399 S    
C22   C23   1.423810 A    
C9    C10   1.398075 A    
C85   C86   1.391994 A    
C110  H63   1.109362 S    
C49   C54   1.416172 A    
C65   H19   1.083470 S    
C100  H32   1.109721 S    
C79   C80   1.407526 A    
H1    C12   1.083493 S    
C64   H16   1.082815 S    
C69   C73   1.417340 A    
C29   C30   1.402859 A    
N11   C56   1.354686 A    
N13   O27   1.301343 A    
C83   C109  1.517698 S    
O2    Cr1   1.921455 S    
C54   C102  1.514175 S    
C31   C32   1.397868 A    
C97   H22   1.111281 S    
C112  H69   1.110532 S    
C101  H35   1.110426 S    
O21   Cr4   1.920897 S    
O9    Cr2   2.033778 S    
C111  H64   1.110183 S    
O24   Cr6   2.037724 S    
O21   C94   1.278054 A    
C23   C24   1.419015 A    
Cr2   O13   1.976567 S    
C88   C89   1.199636 T    
C83   C84   1.421679 A    
O6    Cr3   1.921765 S    
O8    C4    1.275757 A    
O11   Cr3   2.038100 S    
O16   Cr5   2.039191 S    
C5    C49   1.480927 S    
C1    C35   1.498053 S    
C10   C19   1.431444 S    
C35   C40   1.423538 A    
C86   C87   1.403788 A    
C74   C75   1.203104 T    
C107  H53   1.110585 S    
O17   C92   1.277505 A    
C15   C16   1.403486 A    
C100  H33   1.110692 S    
N16   O34   1.301024 A    
O2    C1    1.282251 A    
C58   C103  1.507653 S    
C50   H10   1.083742 S    
O15   C91   1.278969 A    
Cr6   O26   1.976454 S    
H14   C67   1.083794 S    
C46   C47   1.412588 A    
C90   C96   1.487428 S    
N11   N12   1.328520 A    
O4    C2    1.278468 A    
C29   C33   1.399744 A    
O7    C6    1.275152 A    
C104  H45   1.109225 S    
N1    C27   1.358261 A    
C52   C56   1.470829 S    
C36   C37   1.394776 A    
N15   O32   1.300998 A    
C73   C74   1.437955 S    
C38   C39   1.417288 A    
C109  H60   1.110712 S    
C21   C26   1.415687 A    
C37   C38   1.398407 A    
N5    N6    1.329877 A    
C45   C48   1.418436 A    
O12   Cr3   1.918213 S    
O22   Cr5   2.035941 S    
C35   C36   1.419973 A    
C71   H18   1.082965 S    
C45   N17   1.432517 S    
C24   C25   1.397538 A    
O15   Cr4   1.920312 S    
C7    C12   1.406830 A    
C108  H57   1.108688 S    
O25   C96   1.280231 A    
C53   C54   1.419001 A    
C104  H44   1.110501 S    
N4    C27   1.356915 A    
C53   C105  1.518714 S    
C66   C67   1.396115 A    
C109  H58   1.106562 S    
C91   O16   1.275432 A    
C57   C61   1.397509 A    
O10   C5    1.276090 A    
O19   Cr6   1.920922 S    
C20   C92   1.491912 S    
O23   C95   1.278985 A    
C32   H6    1.083058 S    
O20   C96   1.272733 A    
C94   O22   1.268895 A    
N2    C28   1.357434 A    
C102  H38   1.109386 S    
C5    O11   1.274368 A    
C105  H46   1.107134 S    
C10   C11   1.407894 A    
C31   C34   1.421306 A    
