data_mof_unit_5267.cif
_audit_creation_date              2012-12-10T18:04:02-0500
_audit_creation_method            fapswitch 2.2
_symmetry_space_group_name_H-M    P1
_symmetry_Int_Tables_number       1
_space_group_crystal_system       triclinic
_cell_length_a                    10.826203
_cell_length_b                    9.607156
_cell_length_c                    10.910201
_cell_angle_alpha                 90.687626
_cell_angle_beta                  93.801085
_cell_angle_gamma                 90.189884
_cell_volume                      1132.17195267

loop_
_atom_site_label
_atom_site_type_symbol
_atom_type_description
_atom_site_fract_x
_atom_site_fract_y
_atom_site_fract_z
_atom_type_partial_charge
C1    C     C_R   0.262458 0.499344 0.502378 0.774419
C2    C     C_R   0.737500 0.499320 0.498246 0.755120
C3    C     C_R   0.412594 0.073802 0.431247 -0.167056
C4    C     C_R   0.584053 0.077001 0.571892 -0.076310
C5    C     C_R   0.410525 0.923666 0.430418 0.466814
C6    C     C_R   0.590080 0.928323 0.567575 0.495260
C7    C     C_R   0.497568 0.499317 0.262140 0.828715
C8    C     C_R   0.508405 0.500677 0.737478 0.817250
C9    C     C_R   0.489701 0.622885 0.062623 0.018587
C10   C     C_R   0.497830 0.623524 0.936648 -0.139332
C11   C     C_R   0.494193 0.498042 0.127840 -0.330156
C12   C     C_R   0.515720 0.501028 0.871205 -0.330243
C13   C     C_R   0.501038 0.372318 0.059583 0.413158
C14   C     C_R   0.530281 0.376426 0.936750 0.407675
C15   C     C_3   0.571449 0.756428 0.940007 -0.080350
C16   C     C_3   0.559484 0.758210 0.081528 -0.086468
C17   C     C_R   0.065106 0.373048 0.525335 -0.186525
C18   C     C_R   0.936735 0.373186 0.523925 -0.185354
C19   C     C_R   0.871239 0.495932 0.495732 -0.014129
C20   C     C_R   0.128433 0.497108 0.504024 -0.011557
C21   C     C_R   0.934845 0.616151 0.467382 -0.189424
C22   C     C_R   0.062329 0.619094 0.480489 -0.214352
Cu1   Cu    Cu3+1 0.500000 0.640660 0.500000 1.026930
Cu2   Cu    Cu3+1 0.500000 0.359340 0.500000 0.967217
H1    H     H_    0.114428 0.277137 0.545125 0.145707
H2    H     H_    0.889202 0.277866 0.544966 0.137651
H3    H     H_    0.886176 0.708793 0.438228 0.180523
H4    H     H_    0.109167 0.716566 0.471155 0.171216
H5    H     H_    0.345436 0.133679 0.377953 0.120672
H6    H     H_    0.646552 0.137129 0.632803 0.151305
N1    N     N_R   0.500000 0.852070 0.500000 -0.228400
N2    N     N_R   0.500000 0.147940 0.500000 -0.192753
O1    O     O_R   0.319640 0.618740 0.499990 -0.551698
O2    O     O_R   0.680360 0.618740 0.500010 -0.538689
O3    O     O_R   0.319620 0.381170 0.499990 -0.599255
O4    O     O_R   0.680380 0.381170 0.500010 -0.602091
O5    O     O_R   0.499990 0.618810 0.319660 -0.537186
O6    O     O_R   0.500010 0.618810 0.680340 -0.585450
O7    O     O_R   0.499960 0.381240 0.319650 -0.548861
O8    O     O_R   0.500040 0.381240 0.680350 -0.538081
O9    O     O_3   0.483940 0.243827 0.110827 -0.547107
C23   C     C_3   0.355001 0.219973 0.114981 0.096169
H7    H     H_    0.307052 0.306782 0.160804 0.113960
H8    H     H_    0.343977 0.127562 0.171422 0.173387
C24   C     C_3   0.290600 0.188235 0.988443 -0.758459
H9    H     H_    0.341781 0.107042 0.939969 0.303521
H10   H     H_    0.195163 0.149863 0.999654 0.200461
H11   H     H_    0.284172 0.283579 0.931941 0.214469
O10   O     O_3   0.583932 0.260697 0.886304 -0.489858
C25   C     C_3   0.712803 0.286398 0.880771 0.051998
H12   H     H_    0.750754 0.366299 0.948779 0.095531
H13   H     H_    0.731445 0.322471 0.787337 0.127174
C26   C     C_3   0.784651 0.153177 0.906802 -0.634584
H14   H     H_    0.757598 0.072890 0.836510 0.281093
H15   H     H_    0.885466 0.173640 0.904302 0.161603
H16   H     H_    0.765495 0.113870 0.999010 0.282751
C27   C     C_2   0.701357 0.737608 0.899276 0.396171
H17   H     H_    0.721024 0.659062 0.831151 0.069484
O11   O     O_2   0.785005 0.813690 0.940248 -0.565135
C28   C     C_2   0.478072 0.873170 0.126393 0.540503
H18   H     H_    0.517722 0.957927 0.182768 0.119427
O12   O     O_2   0.367798 0.875441 0.094918 -0.590439
C29   C     C_2   0.501314 0.866042 0.866324 0.481071
H19   H     H_    0.416185 0.840208 0.812397 0.069954
O13   O     O_2   0.539095 0.985440 0.867089 -0.510983
C30   C     C_2   0.679360 0.740025 0.160916 0.400248
H20   H     H_    0.736376 0.648904 0.147791 0.061040
O14   O     O_2   0.713515 0.825854 0.239594 -0.583097
O15   O     O_3   0.329594 0.846029 0.351198 -0.534125
C31   C     C_3   0.211986 0.908285 0.327594 0.062572
H21   H     H_    0.217080 0.006303 0.276610 0.124727
H22   H     H_    0.167814 0.929603 0.415041 0.103680
C32   C     C_3   0.129544 0.812103 0.244523 -0.695663
H23   H     H_    0.150516 0.701069 0.263107 0.248371
H24   H     H_    0.030581 0.832427 0.258978 0.203638
H25   H     H_    0.144414 0.830982 0.146437 0.266949
O16   O     O_3   0.683609 0.859815 0.636009 -0.559122
C33   C     C_3   0.801354 0.913142 0.608918 0.052135
H26   H     H_    0.814117 0.024522 0.634035 0.100663
H27   H     H_    0.814104 0.902893 0.509086 0.158382
C34   C     C_3   0.904488 0.837079 0.682105 -0.750408
H28   H     H_    0.882943 0.724575 0.688455 0.259164
H29   H     H_    0.992986 0.850700 0.637708 0.186809
H30   H     H_    0.917756 0.882238 0.775951 0.267376

loop_
_geom_bond_atom_site_label_1
_geom_bond_atom_site_label_2
_ccdc_geom_bond_type
C30   O14   D    
C29   O13   D    
C32   H24   S    
O9    C23   S    
C18   H2    S    
C17   C20   A    
C13   O9    S    
C34   H28   S    
C1    O1    A    
O16   C33   S    
C7    C11   S    
Cu2   O4    S    
C8    O6    A    
C19   C21   A    
C9    C16   S    
C10   C15   S    
C16   C28   S    
C33   H27   S    
C27   O11   D    
C14   O10   S    
C15   C16   S    
Cu2   O7    S    
C28   O12   D    
C18   C19   A    
C32   H23   S    
C3    H5    S    
C5    O15   S    
Cu1   O1    S    
C25   H13   S    
Cu1   Cu2   S    
C31   H21   S    
C9    C10   A    
C2    O2    A    
C24   H10   S    
C30   H20   S    
C21   H3    S    
C22   H4    S    
C13   C14   A    
C15   C27   S    
O15   C31   S    
C23   H8    S    
C34   H29   S    
C25   H12   S    
C26   H15   S    
C25   C26   S    
Cu2   O3    S    
C4    C6    A    
C33   H26   S    
C6    O16   S    
C24   H11   S    
Cu1   O5    S    
C28   H18   S    
C23   C24   S    
Cu1   N1    S    
Cu2   N2    S    
C8    C12   S    
Cu1   O2    S    
C31   C32   S    
C17   C18   A    
C7    O5    A    
C9    C11   A    
C4    N2    A    
C10   C12   A    
C12   C14   A    
C32   H25   S    
C16   C30   S    
C23   H7    S    
C34   H30   S    
C1    O3    A    
C26   H16   S    
C2    O4    A    
C1    C20   S    
C7    O7    A    
C2    C19   S    
C20   C22   A    
C3    C5    A    
C26   H14   S    
Cu1   O6    S    
C17   H1    S    
C11   C13   A    
C33   C34   S    
C27   H17   S    
Cu2   O8    S    
C6    N1    A    
C3    N2    A    
C29   H19   S    
C24   H9    S    
O10   C25   S    
C15   C29   S    
C31   H22   S    
C8    O8    A    
C21   C22   A    
C4    H6    S    
C5    N1    A    
