data_mof_unit_50510.cif
_audit_creation_date              2012-12-11T16:24:26-0500
_audit_creation_method            fapswitch 2.2
_symmetry_space_group_name_H-M    P1
_symmetry_Int_Tables_number       1
_space_group_crystal_system       triclinic
_cell_length_a                    14.734165
_cell_length_b                    14.769415
_cell_length_c                    33.314661
_cell_angle_alpha                 96.461319
_cell_angle_beta                  96.315486
_cell_angle_gamma                 61.175496
_cell_volume                      6298.22873339

loop_
_atom_site_label
_atom_site_type_symbol
_atom_type_description
_atom_site_fract_x
_atom_site_fract_y
_atom_site_fract_z
_atom_type_partial_charge
C1    C     C_R   0.391270 0.699012 0.446031 0.557898
C2    C     C_1   0.318582 0.341624 0.228868 -0.028307
C3    C     C_2   0.504587 0.198469 0.186031 0.248274
C4    C     C_2   0.551260 0.761211 0.338215 0.244796
C5    C     C_2   0.451054 0.176933 0.573956 0.253699
C6    C     C_2   0.115590 0.458435 0.824385 0.248254
C7    C     C_2   0.507008 0.220128 0.840726 0.243415
C8    C     C_2   0.946220 0.105378 0.794899 0.246198
C9    C     C_2   0.803620 0.480557 0.900906 0.253302
C10   C     C_2   0.486157 0.842340 0.908548 0.250808
C11   C     C_2   0.511559 0.815259 0.603179 0.239667
C12   C     C_2   0.208683 0.769075 0.683936 0.243816
C13   C     C_1   0.323316 0.345791 0.265160 -0.009751
C14   C     C_2   0.833910 0.493479 0.416601 0.249573
C15   C     C_R   0.406058 0.386215 0.433939 0.556611
C16   C     C_R   0.291729 0.295608 0.101599 -0.008726
C17   C     C_R   0.756642 0.369915 0.409463 0.007607
C18   C     C_R   0.804268 0.419568 0.392889 -0.000172
C19   C     C_R   0.825790 0.397979 0.351968 -0.137550
C20   C     C_R   0.807092 0.323686 0.327692 -0.008423
C21   C     C_R   0.774016 0.263373 0.345807 0.005368
C22   C     C_R   0.747555 0.288628 0.386172 -0.114686
C23   C     C_R   0.333107 0.348660 0.308377 0.037558
C24   C     C_R   0.824536 0.316993 0.202685 0.389773
C25   C     C_R   0.816540 0.316437 0.283524 0.330359
C26   C     C_R   0.827003 0.398979 0.141003 0.006217
C27   C     C_R   0.701500 0.409243 0.447477 0.570806
C28   C     C_R   0.863325 0.383153 0.102399 -0.146347
C29   C     C_R   0.899977 0.204009 0.098097 -0.128511
C30   C     C_R   0.864472 0.218513 0.136617 -0.133269
C31   C     C_R   0.833145 0.313784 0.159096 0.051866
C32   C     C_R   0.904345 0.284900 0.081524 0.015384
C33   C     C_R   0.374229 0.749034 0.408178 0.018322
C34   C     C_R   0.416383 0.266733 0.327673 -0.088960
C35   C     C_R   0.283603 0.772727 0.383342 -0.126459
C36   C     C_R   0.278519 0.794165 0.343361 -0.141195
C37   C     C_R   0.363844 0.791859 0.327406 0.047358
C38   C     C_R   0.454222 0.772839 0.352771 0.008515
C39   C     C_R   0.392711 0.702957 0.561061 0.577466
C40   C     C_R   0.456737 0.754762 0.393283 -0.145824
C41   C     C_R   0.345694 0.830883 0.204320 0.359277
C42   C     C_R   0.356322 0.806887 0.284280 0.384739
C43   C     C_R   0.283845 0.809145 0.132649 -0.140528
C44   C     C_R   0.265821 0.834983 0.092218 0.002902
C45   C     C_R   0.435361 0.275150 0.369478 -0.100403
C46   C     C_R   0.360980 0.932486 0.108638 -0.144635
C47   C     C_R   0.379690 0.904829 0.148216 -0.114002
C48   C     C_R   0.337485 0.846939 0.161051 0.028395
C49   C     C_R   0.299479 0.903082 0.080735 0.042099
C50   C     C_R   0.370351 0.373709 0.585659 0.043662
C51   C     C_R   0.406497 0.388859 0.548696 0.586671
C52   C     C_R   0.314012 0.463007 0.610777 -0.152784
C53   C     C_R   0.299210 0.455512 0.650317 -0.123084
C54   C     C_R   0.339741 0.358459 0.665841 0.028434
C55   C     C_R   0.388542 0.268485 0.640135 -0.141800
C56   C     C_R   0.401832 0.259232 0.164418 0.022403
C57   C     C_R   0.403117 0.274826 0.599805 -0.000986
C58   C     C_R   0.323277 0.342021 0.788809 0.360004
C59   C     C_R   0.333529 0.352226 0.709079 0.351167
C60   C     C_R   0.213305 0.390365 0.847672 0.008408
C61   C     C_R   0.203590 0.373668 0.887031 -0.158269
C62   C     C_R   0.387354 0.254047 0.894577 -0.085628
C63   C     C_R   0.701242 0.413986 0.562707 0.543771
C64   C     C_R   0.400810 0.271709 0.855770 -0.012974
C65   C     C_R   0.312584 0.336929 0.831488 0.011910
C66   C     C_R   0.288677 0.301567 0.909652 -0.012608
C67   C     C_R   0.389053 0.241572 0.122374 -0.089873
C68   C     C_R   0.754521 0.381827 0.602880 0.020959
C69   C     C_R   0.779578 0.449285 0.629145 -0.116298
C70   C     C_R   0.809219 0.429509 0.669853 -0.111564
C71   C     C_R   0.814692 0.341999 0.684680 0.037637
C72   C     C_R   0.795937 0.271323 0.658330 -0.095088
C73   C     C_R   0.766221 0.290900 0.617627 -0.126118
C74   C     C_R   0.912385 0.203416 0.820983 0.023210
C75   C     C_R   0.371383 0.366145 0.392296 0.016501
C76   C     C_R   0.935113 0.195539 0.862776 -0.170216
C77   C     C_R   0.848417 0.383255 0.874580 0.001935
C78   C     C_R   0.208555 0.373698 0.122704 -0.130524
C79   C     C_R   0.828018 0.391242 0.832646 -0.162325
C80   C     C_R   0.861779 0.302838 0.805822 0.043654
C81   C     C_1   0.845508 0.316956 0.763080 0.062808
C82   C     C_1   0.832443 0.328282 0.727312 0.028898
C83   C     C_R   0.908702 0.283797 0.889751 0.031843
C84   C     C_R   0.373849 0.756780 0.602132 0.030376
C85   C     C_R   0.297262 0.754239 0.623086 -0.177029
C86   C     C_R   0.290139 0.778566 0.664715 0.019499
C87   C     C_R   0.283559 0.445048 0.372900 -0.121453
C88   C     C_R   0.361702 0.807114 0.686162 0.041007
C89   C     C_R   0.220079 0.391519 0.164389 -0.113829
C90   C     C_R   0.433351 0.817386 0.665299 -0.163368
C91   C     C_R   0.438847 0.795027 0.623264 0.002892
C92   C     C_R   0.417895 0.843719 0.837369 -0.137774
C93   C     C_R   0.396807 0.866681 0.878521 0.008923
C94   C     C_R   0.215147 0.916744 0.859116 -0.150324
C95   C     C_R   0.237816 0.891744 0.818738 -0.093904
C96   C     C_R   0.338124 0.858422 0.807688 0.034059
C97   C     C_1   0.356649 0.839605 0.765502 0.036383
C98   C     C_1   0.362927 0.825187 0.729452 0.054476
C99   C     C_R   0.264815 0.436382 0.331053 -0.102347
C100  C     C_R   0.314880 0.332454 0.185490 0.006881
C101  C     C_R   0.292460 0.909343 0.889387 0.044651
C102  C     C_R   0.963296 0.264651 0.045589 0.557375
C103  C     C_R   0.272763 0.259779 0.059999 0.538298
C104  C     C_R   0.260154 0.958514 0.043343 0.594287
C105  C     C_R   0.961108 0.267935 0.930996 0.583704
C106  C     C_R   0.270894 0.263817 0.945412 0.544707
C107  C     C_R   0.257456 0.962664 0.929459 0.589619
C108  C     C_2   0.768410 0.172830 0.323691 0.246183
C109  C     C_2   0.785001 0.504968 0.161215 0.252081
C110  C     C_2   0.213310 0.788062 0.063506 0.249245
Cr1   Cr    Cr6+3 0.576280 0.580550 0.506370 1.099007
Cr2   Cr    Cr6+3 0.346780 0.572400 0.496520 1.031867
Cr3   Cr    Cr6+3 0.576960 0.347070 0.497150 1.056771
Cr4   Cr    Cr6+3 0.087320 0.083240 0.984860 1.064321
Cr5   Cr    Cr6+3 0.087720 0.316210 0.996740 1.051638
Cr6   Cr    Cr6+3 0.317350 0.090340 0.995890 1.080066
H1    H     H_    0.453780 0.182161 0.106081 0.179512
H2    H     H_    0.979240 0.119093 0.874091 0.116906
H3    H     H_    0.771016 0.520115 0.618818 0.140647
H4    H     H_    0.503643 0.213143 0.383481 0.165315
H5    H     H_    0.485117 0.843328 0.681952 0.105311
H6    H     H_    0.175981 0.901683 0.795907 0.175030
H7    H     H_    0.135220 0.947585 0.866284 0.124035
H8    H     H_    0.153380 0.448147 0.180477 0.130806
H9    H     H_    0.200004 0.499997 0.316225 0.125821
H10   H     H_    0.716288 0.246195 0.399113 0.181306
H11   H     H_    0.810653 0.135978 0.296763 0.140287
H12   H     H_    0.863251 0.447085 0.089255 0.130672
H13   H     H_    0.798304 0.562611 0.149187 0.105033
H14   H     H_    0.930481 0.127648 0.082556 0.142973
H15   H     H_    0.869043 0.152900 0.150115 0.141411
H16   H     H_    0.218695 0.769185 0.394082 0.142435
H17   H     H_    0.167399 0.758212 0.074927 0.098843
H18   H     H_    0.515563 0.211491 0.218483 0.131835
H19   H     H_    0.606068 0.773740 0.359527 0.101501
H20   H     H_    0.254394 0.760839 0.142070 0.126726
H21   H     H_    0.423542 0.933004 0.169185 0.158949
H22   H     H_    0.495547 0.103653 0.587899 0.112443
H23   H     H_    0.855733 0.441275 0.338748 0.141297
H24   H     H_    0.127055 0.410618 0.898710 0.127054
H25   H     H_    0.259097 0.526247 0.669154 0.144876
H26   H     H_    0.469450 0.198451 0.310204 0.149913
H27   H     H_    0.046510 0.509438 0.840441 0.095953
H28   H     H_    0.520308 0.236883 0.811716 0.129519
H29   H     H_    0.986258 0.031690 0.808703 0.099297
H30   H     H_    0.800277 0.203192 0.669570 0.150857
H31   H     H_    0.747313 0.237527 0.598265 0.137125
H32   H     H_    0.785566 0.467211 0.820698 0.101089
H33   H     H_    0.781972 0.553776 0.888564 0.094741
H34   H     H_    0.527411 0.735884 0.412241 0.128271
H35   H     H_    0.823857 0.484529 0.690065 0.126305
H36   H     H_    0.557800 0.835349 0.899319 0.102939
H37   H     H_    0.496416 0.813955 0.828438 0.100603
H38   H     H_    0.578547 0.815116 0.620452 0.093644
H39   H     H_    0.245086 0.727852 0.607264 0.117999
H40   H     H_    0.161518 0.739557 0.665778 0.101203
H41   H     H_    0.232962 0.516132 0.389610 0.135681
H42   H     H_    0.132638 0.416583 0.107505 0.138412
H43   H     H_    0.837409 0.552987 0.401461 0.098938
H44   H     H_    0.208658 0.809536 0.324382 0.133141
H45   H     H_    0.389232 0.983291 0.100778 0.149958
H46   H     H_    0.286846 0.539738 0.600821 0.130394
H47   H     H_    0.416897 0.193049 0.651640 0.125005
H48   H     H_    0.453376 0.200010 0.912596 0.185397
N1    N     N_R   0.759918 0.288887 0.217091 -0.192610
N2    N     N_R   0.384565 0.872883 0.271375 -0.168049
N3    N     N_R   0.379505 0.884451 0.232092 -0.209436
N4    N     N_R   0.304164 0.432140 0.774445 -0.166329
N5    N     N_R   0.309228 0.437034 0.735224 -0.204599
N6    N     N_R   0.353962 0.261771 0.723717 -0.222922
N7    N     N_R   0.348548 0.256869 0.762926 -0.218588
N8    N     N_R   0.755146 0.289917 0.256828 -0.224622
N9    N     N_R   0.881237 0.344245 0.268865 -0.210475
N10   N     N_R   0.885439 0.344137 0.229202 -0.188283
N11   N     N_R   0.315518 0.766343 0.217382 -0.218880
N12   N     N_R   0.320835 0.754497 0.256700 -0.216570
O1    O     O_R   0.679450 0.499830 0.463150 -0.459971
O2    O     O_R   0.340240 0.172500 0.045430 -0.517005
O3    O     O_R   0.309670 0.000990 0.032050 -0.497917
O4    O     O_R   0.480650 0.664000 0.464630 -0.492290
O5    O     O_R   0.168330 0.982130 0.939200 -0.512760
O6    O     O_R   0.000140 0.178170 0.944610 -0.510581
O7    O     O_R   0.983010 0.336750 0.948660 -0.471157
O8    O     O_R   0.181800 0.312190 0.959860 -0.502861
O9    O     O_R   0.338500 0.175680 0.956950 -0.510332
O10   O     O_R   0.308050 0.003930 0.950020 -0.456851
O11   O     O_3   0.164130 0.163270 0.992500 -0.271607
O12   O     O_R   0.356040 0.477400 0.534170 -0.513072
O13   O     O_R   0.323930 0.675950 0.455370 -0.517248
O14   O     O_R   0.354700 0.475360 0.451930 -0.500760
O15   O     O_R   0.494470 0.320860 0.448390 -0.501690
O16   O     O_R   0.662580 0.357570 0.460050 -0.517370
O17   O     O_R   0.680900 0.502040 0.551870 -0.502268
O18   O     O_R   0.481990 0.666040 0.546870 -0.452967
O19   O     O_R   0.325370 0.678160 0.544080 -0.528986
O20   O     O_2   0.717862 0.136898 0.335734 -0.517198
O21   O     O_2   0.732403 0.530521 0.190414 -0.436682
O22   O     O_2   0.224736 0.777264 0.027223 -0.459255
O23   O     O_R   0.495910 0.323070 0.537100 -0.469447
O24   O     O_2   0.578758 0.133178 0.167788 -0.492074
O25   O     O_2   0.574283 0.732037 0.303265 -0.438454
O26   O     O_2   0.437496 0.176068 0.537130 -0.461591
O27   O     O_2   0.108918 0.456388 0.787498 -0.464207
O28   O     O_2   0.581580 0.158571 0.860774 -0.495669
O29   O     O_2   0.929659 0.104656 0.758189 -0.488650
O30   O     O_2   0.785197 0.481130 0.935804 -0.456291
O31   O     O_2   0.483118 0.824381 0.943119 -0.461019
O32   O     O_2   0.494609 0.838190 0.568047 -0.475804
O33   O     O_2   0.191827 0.794448 0.719588 -0.492300
O34   O     O_R   0.663920 0.359620 0.542290 -0.506966
O35   O     O_2   0.860912 0.484943 0.452565 -0.466402
O36   O     O_3   0.500010 0.500010 0.500010 -0.269440
O37   O     O_R   0.170070 0.978950 0.027680 -0.471741
O38   O     O_R   0.001760 0.175230 0.026640 -0.502999
O39   O     O_R   0.984760 0.333570 0.037150 -0.506002
O40   O     O_R   0.183410 0.309240 0.041890 -0.500766

loop_
_geom_bond_atom_site_label_1
_geom_bond_atom_site_label_2
_ccdc_geom_bond_type
C44   C49   A    
C101  C107  S    
C15   C75   S    
C20   C25   S    
Cr6   O2    S    
Cr2   O14   S    
C110  O22   D    
Cr4   O38   S    
C109  O21   D    
C95   C96   A    
C10   O31   D    
C24   N10   A    
C49   C104  S    
Cr5   O8    S    
C90   C91   A    
C1    C33   S    
C5    H22   S    
C99   H9    S    
C53   C54   A    
C35   H16   S    
C107  O10   A    
C9    H33   S    
C7    O28   D    
C74   C76   A    
C14   O35   D    
C73   H31   S    
Cr2   O36   S    
C36   C37   A    
C12   H40   S    
C39   C84   S    
C29   C32   A    
C9    O30   D    
C85   C86   A    
C30   C31   A    
C1    O4    A    
C86   C88   A    
C22   H10   S    
C104  O3    A    
N6    N7    A    
C77   C83   A    
C30   H15   S    
C92   C96   A    
C13   C23   S    
C17   C18   A    
C18   C19   A    
C85   H39   S    
C37   C42   S    
C2    C13   T    
C14   C18   S    
Cr1   O36   S    
C62   C64   A    
C51   O12   A    
C58   C65   S    
C11   H38   S    
C10   H36   S    
Cr2   O13   S    
C63   C68   S    
C61   C66   A    
C78   H42   S    
C62   H48   S    
C19   C20   A    
C94   C101  A    
C68   C69   A    
C46   H45   S    
C50   C52   A    
C63   O17   A    
C70   C71   A    
C84   C91   A    
C105  O6    A    
C108  O20   D    
C59   N6    A    
C58   N4    A    
C43   C48   A    
C16   C78   A    
C71   C82   S    
C94   H7    S    
N1    N8    A    
C41   N11   A    
C2    C100  S    
C26   C31   A    
C74   C80   A    
C21   C22   A    
Cr4   O37   S    
C43   H20   S    
C28   H12   S    
C66   C106  S    
C76   C83   A    
C7    H28   S    
C39   O18   A    
C102  O38   A    
C97   C98   T    
C87   C99   A    
C54   C59   S    
C77   C79   A    
C78   C89   A    
Cr3   O15   S    
Cr6   O11   S    
C33   C40   A    
C62   C66   A    
C89   C100  A    
C40   H34   S    
C17   C27   S    
C6    C60   S    
C28   C32   A    
C21   C108  S    
C84   C85   A    
Cr3   O36   S    
C93   C101  A    
C5    O26   D    
C34   C45   A    
C72   C73   A    
C10   C93   S    
C50   C51   S    
C68   C73   A    
Cr4   O6    S    
Cr6   O10   S    
C69   H3    S    
C81   C82   T    
Cr4   O11   S    
C87   H41   S    
C60   C61   A    
C35   C36   A    
C43   C44   A    
Cr2   O19   S    
C37   C38   A    
C25   N9    A    
Cr5   O11   S    
C23   C99   A    
C102  O39   A    
C16   C103  S    
C47   C48   A    
C46   C49   A    
C29   C30   A    
C23   C34   A    
C96   C97   S    
C47   H21   S    
C8    H29   S    
C8    C74   S    
C3    O24   D    
Cr3   O23   S    
Cr5   O39   S    
C94   C95   A    
C16   C67   A    
C9    C77   S    
C105  O7    A    
C67   H1    S    
C26   C109  S    
C106  O8    A    
C92   H37   S    
C51   O23   A    
Cr1   O17   S    
C4    H19   S    
C25   N8    A    
C75   C87   A    
N4    N5    A    
C15   O14   A    
C107  O5    A    
C60   C65   A    
C55   C57   A    
C109  H13   S    
Cr1   O4    S    
C90   H5    S    
C32   C102  S    
C27   O16   A    
C56   C100  A    
C63   O34   A    
C56   C67   A    
C3    C56   S    
C52   C53   A    
C45   H4    S    
Cr3   O16   S    
C15   O15   A    
C54   C55   A    
C34   H26   S    
C88   C90   A    
C50   C57   A    
C70   H35   S    
C27   O1    A    
C106  O9    A    
C4    C38   S    
C80   C81   S    
Cr2   O12   S    
Cr5   O7    S    
C61   H24   S    
C79   H32   S    
C89   H8    S    
C5    C57   S    
Cr4   O5    S    
Cr6   O9    S    
C26   C28   A    
C17   C22   A    
C12   C86   S    
C14   H43   S    
C45   C75   A    
C103  O2    A    
C95   H6    S    
C64   C65   A    
C3    H18   S    
C58   N7    A    
C24   C31   S    
C55   H47   S    
C6    O27   D    
N11   N12   A    
C42   N12   A    
C104  O37   A    
C38   C40   A    
C4    O25   D    
N2    N3    A    
C39   O19   A    
C72   H30   S    
C41   N3    A    
C83   C105  S    
C92   C93   A    
C33   C35   A    
C41   C48   S    
Cr5   O40   S    
C24   N1    A    
C53   H25   S    
C108  H11   S    
C1    O13   A    
C8    O29   D    
C76   H2    S    
C7    C64   S    
C46   C47   A    
C36   H44   S    
Cr1   O18   S    
N9    N10   A    
C79   C80   A    
C29   H14   S    
C11   C91   S    
C12   O33   D    
C71   C72   A    
C20   C21   A    
C19   H23   S    
C11   O32   D    
Cr6   O3    S    
Cr1   O1    S    
C110  H17   S    
C69   C70   A    
C6    H27   S    
C59   N5    A    
C103  O40   A    
C88   C98   S    
C42   N2    A    
C52   H46   S    
Cr3   O34   S    
C44   C110  S    
