data_mof_unit_66743.cif
_audit_creation_date              2013-03-05T15:40:46-0500
_audit_creation_method            fapswitch 2.2
_symmetry_space_group_name_H-M    P1
_symmetry_Int_Tables_number       1
_space_group_crystal_system       triclinic
_cell_length_a                    8.338854
_cell_length_b                    12.721528
_cell_length_c                    15.343542
_cell_angle_alpha                 95.804775
_cell_angle_beta                  98.890901
_cell_angle_gamma                 97.946446
_cell_volume                      1580.15747099

loop_
_atom_site_label
_atom_site_type_symbol
_atom_site_description
_atom_site_fract_x
_atom_site_fract_y
_atom_site_fract_z
_atom_type_partial_charge
P1    P     P_3+3 0.998660 0.747790 0.570900 0.475442
O1    O     O_2   0.168170 0.764170 0.543850 -0.370963
O2    O     O_3   0.898670 0.629780 0.545890 -0.405213
O3    O     O_3   0.365980 0.695510 0.380810 -0.411355
O4    O     O_2   0.275838 0.882608 0.426438 -0.379805
O5    O     O_3   0.052414 0.780779 0.686222 -0.566173
O6    O     O_3   0.379881 0.860533 0.273851 -0.575670
H1    H     H_    0.282212 0.705010 0.216861 0.153072
C1    C     C_3   0.395420 0.795777 0.123361 -0.713098
H2    H     H_    0.469004 0.876136 0.126355 0.247006
P2    P     P_3+3 0.306970 0.411860 0.294270 0.418557
P3    P     P_3+3 0.883215 0.620930 0.218084 0.405568
O7    O     O_2   0.136040 0.444100 0.280280 -0.370740
O8    O     O_3   0.934510 0.640480 0.335500 -0.391675
O9    O     O_2   0.011731 0.560832 0.181247 -0.422789
O10   O     O_3   0.250566 0.273315 0.275988 -0.586573
O11   O     O_3   0.920987 0.743547 0.176170 -0.539537
C2    C     C_3   0.878883 0.826284 0.231970 0.476152
H3    H     H_    0.982576 0.856054 0.287880 0.120709
H4    H     H_    0.766689 0.801071 0.259294 0.034363
C3    C     C_3   0.843047 0.916677 0.177498 -1.102333
H5    H     H_    0.799214 0.980011 0.218800 0.252894
H6    H     H_    0.954432 0.951595 0.152916 0.264301
C4    C     C_3   0.757285 0.271743 0.256027 0.345903
H7    H     H_    0.817830 0.354144 0.284261 0.117157
C5    C     C_3   0.831219 0.236504 0.173939 -0.433767
H8    H     H_    0.775204 0.153193 0.145363 0.199910
H9    H     H_    0.963585 0.235101 0.195168 0.225277
Ba1   Ba    Ba6+2 0.153570 0.551840 0.456200 1.494916
C6    C     C_3   0.066602 0.690463 0.729989 0.306256
H10   H     H_    0.181525 0.660814 0.719669 0.065790
H11   H     H_    0.960920 0.625716 0.706357 0.128773
C7    C     C_3   0.071830 0.724510 0.829136 -0.438897
H12   H     H_    0.191001 0.776815 0.856497 0.199489
H13   H     H_    0.062566 0.652913 0.865017 0.148093
C8    C     C_3   0.229890 0.233212 0.355793 0.390195
H14   H     H_    0.139510 0.272868 0.387288 0.089140
H15   H     H_    0.348416 0.245485 0.402289 0.132467
C9    C     C_3   0.168122 0.113543 0.334968 -0.668397
H16   H     H_    0.034842 0.100686 0.307582 0.226699
H17   H     H_    0.185893 0.074279 0.396330 0.213714
P4    P     P_3+3 0.811620 0.252200 0.429030 0.434203
O12   O     O_2   0.642110 0.235770 0.456130 -0.382173
O13   O     O_3   0.911620 0.370210 0.454030 -0.406530
O14   O     O_3   0.444310 0.304480 0.619110 -0.348251
O15   O     O_3   0.781367 0.197988 0.316442 -0.619989
P5    P     P_3+3 0.921550 0.371562 0.780780 0.451365
O16   O     O_3   0.400800 0.556680 0.607590 -0.405829
O17   O     O_3   0.875770 0.359510 0.664420 -0.388881
O18   O     O_2   0.792837 0.430707 0.819143 -0.382324
O19   O     O_3   0.884661 0.243563 0.813160 -0.519997
Ba2   Ba    Ba6+2 0.656590 0.448150 0.543720 1.511508
P6    P     P_3+3 0.410884 0.834170 0.384503 0.431363
C10   C     C_3   0.389823 0.767794 0.217632 0.431651
H18   H     H_    0.503007 0.734527 0.239911 0.010331
H19   H     H_    0.456056 0.737178 0.086873 0.207193
O20   O     O_3   0.409490 0.443300 0.392340 -0.431614
C11   C     C_3   0.552902 0.779612 0.671083 0.328943
H20   H     H_    0.673679 0.767810 0.653177 0.085022
H21   H     H_    0.448470 0.749583 0.616813 0.147758
C12   C     C_3   0.549442 0.897787 0.690237 -0.910856
H22   H     H_    0.620357 0.928106 0.756987 0.264830
H23   H     H_    0.601825 0.941262 0.639335 0.241046
H24   H     H_    0.420503 0.910952 0.688519 0.260770
P7    P     P_3+3 0.499601 0.591870 0.718949 0.407862
O21   O     O_2   0.674250 0.555830 0.719690 -0.374509
O22   O     O_3   0.532144 0.730876 0.746730 -0.604884
H25   H     H_    0.746766 0.885562 0.118635 0.272401
C13   C     C_3   0.906690 0.168382 0.744008 0.487556
H26   H     H_    0.798764 0.156757 0.689583 0.156654
H27   H     H_    0.019834 0.194123 0.716954 0.023641
C14   C     C_3   0.921975 0.061833 0.778867 -1.030762
H28   H     H_    0.898246 0.996332 0.722690 0.248509
H29   H     H_    0.046988 0.062888 0.815288 0.246245
H30   H     H_    0.835116 0.046016 0.825515 0.270840
P8    P     P_3+3 0.393444 0.165885 0.613775 0.447965
C15   C     C_3   0.407758 0.151095 0.782947 0.299539
H31   H     H_    0.273559 0.146515 0.761760 0.015862
O23   O     O_2   0.484963 0.117799 0.543331 -0.385333
O24   O     O_3   0.488486 0.124738 0.711646 -0.523380
H32   H     H_    0.460827 0.233462 0.815080 0.119208
C16   C     C_3   0.436082 0.070882 0.849711 -0.441425
H33   H     H_    0.569770 0.067188 0.864471 0.213829
H34   H     H_    0.369436 0.990550 0.819599 0.200221
C17   C     C_R   0.073391 0.187926 0.540613 -0.520139
C18   C     C_R   0.719705 0.819957 0.483864 -0.246858
C19   C     C_R   0.689391 0.996360 0.442395 -0.210927
C20   C     C_R   0.622307 0.889184 0.443663 0.189727
C21   C     C_R   0.884813 0.854171 0.521490 0.256422
C22   C     C_R   0.949076 0.966507 0.527553 -0.099149
C23   C     C_R   0.849797 0.039197 0.487325 -0.068618
C24   C     C_R   0.914764 0.151987 0.493337 0.325700
C25   C     C_R   0.172422 0.116943 0.575689 0.188935
C26   C     C_R   0.110167 0.008113 0.570782 -0.189632
H35   H     H_    0.613625 0.045353 0.406631 0.191696
H36   H     H_    0.190312 0.956625 0.599639 0.177426
H37   H     H_    0.125528 0.271350 0.544440 0.171702
C27   C     C_R   0.239011 0.464645 0.767730 -0.490459
C28   C     C_R   0.133376 0.437513 0.826139 0.222074
C29   C     C_R   0.189098 0.459973 0.917889 -0.297580
C30   C     C_R   0.355317 0.505284 0.953823 0.093981
C31   C     C_R   0.445247 0.554103 0.892479 -0.114512
C32   C     C_R   0.390734 0.527575 0.799739 0.296719
C33   C     C_R   0.600442 0.547183 0.084618 -0.322332
C34   C     C_R   0.672314 0.549615 0.173134 0.252550
C35   C     C_R   0.415376 0.464657 0.206171 0.245597
C36   C     C_R   0.342446 0.455683 0.115239 0.065040
C37   C     C_R   0.431252 0.504555 0.052325 0.045598
C38   C     C_R   0.582470 0.500497 0.229759 -0.529465
H38   H     H_    0.685606 0.573415 0.043011 0.175807
H39   H     H_    0.096338 0.445203 0.958188 0.188592
H40   H     H_    0.646270 0.483577 0.291609 0.140503
H41   H     H_    0.196314 0.446348 0.696770 0.170136
N1    N     N_2   0.813958 0.309402 0.107458 -0.106574
H42   H     H_    0.824177 0.388656 0.131662 0.214040
C39   C     C_3   0.691773 0.274494 0.028635 -0.796938
H43   H     H_    0.696399 0.336354 0.982559 0.258467
H44   H     H_    0.567911 0.262279 0.047102 0.255856
H45   H     H_    0.717634 0.199425 0.993817 0.262680
N2    N     N_2   0.936710 0.782359 0.840485 -0.051336
H46   H     H_    0.823889 0.739498 0.812441 0.239026
C40   C     C_3   0.938637 0.835203 0.928497 -0.862743
H47   H     H_    0.834014 0.880732 0.927149 0.240491
H48   H     H_    0.053861 0.892806 0.950771 0.260869
H49   H     H_    0.925178 0.775222 0.975703 0.253478
N3    N     N_3   0.231075 0.795215 0.074161 -0.197365
H50   H     H_    0.172105 0.847706 0.110121 0.197965
H51   H     H_    0.164243 0.718169 0.068382 0.182853
N4    N     N_3   0.255196 0.066244 0.269473 -0.161075
H52   H     H_    0.197684 0.987591 0.249769 0.193625
H53   H     H_    0.375270 0.064380 0.300535 0.183887
N5    N     N_2   0.378781 0.100753 0.931643 -0.103496
H54   H     H_    0.258218 0.112754 0.922529 0.201435
C41   C     C_3   0.413817 0.032235 0.999613 -0.921805
H55   H     H_    0.367777 0.061121 0.060449 0.250840
H56   H     H_    0.548422 0.033077 0.017148 0.257029
H57   H     H_    0.352555 0.948880 0.975699 0.263688
N6    N     N_2   0.654704 0.711026 0.482875 -0.099722
H58   H     H_    0.549206 0.693047 0.508049 0.192138
C42   C     C_3   0.663497 0.644388 0.403368 -0.524671
H59   H     H_    0.549014 0.595631 0.377494 0.226393
H60   H     H_    0.741083 0.583022 0.416110 0.259750
H61   H     H_    0.689376 0.692154 0.350043 0.152184
N7    N     N_2   0.192413 0.384930 0.085889 -0.110965
H62   H     H_    0.109889 0.383210 0.128493 0.238916
C43   C     C_3   0.208741 0.279046 0.048076 -0.915756
H63   H     H_    0.086914 0.238256 0.010470 0.273920
H64   H     H_    0.250850 0.231069 0.101858 0.270137
H65   H     H_    0.297500 0.284397 0.000698 0.252944
N8    N     N_3   0.574343 0.642469 0.923504 -0.225612
H66   H     H_    0.535860 0.712569 0.904130 0.152591
H67   H     H_    0.678552 0.628409 0.896972 0.150520
N9    N     N_3   0.581775 0.268654 0.229831 -0.214208
H68   H     H_    0.528327 0.191373 0.200493 0.126210
H69   H     H_    0.537832 0.279974 0.289300 0.157363

loop_
_geom_bond_atom_site_label_1
_geom_bond_atom_site_label_2
_geom_bond_distance
_ccdc_geom_bond_type
C33   H38   1.068155 S    
C19   C20   1.403614 A    
N3    H50   1.045121 S    
C19   C23   1.413797 A    
O3    P6    1.745162 S    
C12   H24   1.107575 S    
C2    C3    1.523943 S    
P8    O23   1.541169 D    
C41   H57   1.110685 S    
N1    H42   1.025878 S    
P5    O17   1.753449 S    
C15   H31   1.107733 S    
N2    H46   1.026226 S    
C5    H8    1.113338 S    
C30   C31   1.428865 A    
O14   P8    1.746014 S    
O7    Ba1   2.874042 S    
C8    H14   1.106547 S    
C42   H60   1.094384 S    
C2    H3    1.114213 S    
C13   H26   1.111347 S    
C6    H10   1.104762 S    
C18   C20   1.403027 A    
O12   Ba2   2.871519 S    
C35   C36   1.419806 A    
C11   H21   1.103276 S    
C27   C32   1.389665 A    
P5    C28   1.844043 S    
C39   H43   1.110483 S    
C13   H27   1.110334 S    
P1    O1    1.526800 D    
P4    O15   1.760597 S    
C12   H23   1.110275 S    
C7    N2    1.451023 S    
C17   C25   1.397905 A    
P5    O19   1.750824 S    
C39   H44   1.107352 S    
N5    H54   1.028065 S    
P7    O22   1.749727 S    
C19   H35   1.076880 S    
P3    O11   1.753767 S    
N3    H51   1.046543 S    
C36   C37   1.442862 A    
C42   H61   1.097329 S    
O16   P7    1.762622 S    
N9    H69   1.038731 S    
C1    H2    1.109971 S    
P4    C24   1.906284 S    
O3    Ba1   2.825205 S    
O13   Ba2   2.934493 S    
C30   C37   1.547229 S    
C3    H5    1.110901 S    
C31   C32   1.416285 A    
P4    O13   1.592107 S    
C14   H30   1.107476 S    
C33   C34   1.392665 A    
C17   C24   1.397871 A    
N2    C40   1.443080 S    
C22   C26   1.407680 A    
P5    O18   1.547127 D    
C43   H64   1.117305 S    
C43   H63   1.116580 S    
Ba1   O16   2.847004 S    
P1    O5    1.749455 S    
C42   H59   1.059728 S    
N7    C43   1.444510 S    
Ba2   O20   2.846230 S    
C38   H40   1.070930 S    
H1    C10   1.113534 S    
C23   C24   1.450406 A    
C14   H28   1.110340 S    
C27   H41   1.082762 S    
C41   H56   1.111370 S    
C9    N4    1.457127 S    
O14   Ba2   2.824556 S    
C11   H20   1.109664 S    
P1    O2    1.592089 S    
C13   C14   1.520843 S    
C5    N1    1.450565 S    
P8    C25   1.844515 S    
C43   H65   1.115034 S    
P2    O10   1.742506 S    
C28   C29   1.399680 A    
P3    O9    1.542345 D    
C15   H32   1.112083 S    
O17   Ba2   2.826281 S    
P2    C35   1.867889 S    
P1    Ba1   3.418416 S    
O11   C2    1.406041 S    
C1    H19   1.110011 S    
C4    H7    1.111582 S    
C26   H36   1.077012 S    
P2    Ba1   3.420208 S    
N6    C42   1.431040 S    
C31   N8    1.431066 S    
C14   H29   1.101701 S    
O5    C6    1.397918 S    
P3    O8    1.769809 S    
C16   H33   1.111261 S    
C16   H34   1.111218 S    
C3    H6    1.109237 S    
Ba1   O13   2.843481 S    
N8    H67   1.044250 S    
P4    O12   1.527151 D    
O6    P6    1.750794 S    
O8    Ba1   2.825679 S    
C16   N5    1.446486 S    
C21   C22   1.443638 A    
C33   C37   1.431123 A    
Ba2   O21   2.874262 S    
C4    N9    1.450572 S    
N4    H52   1.041097 S    
C15   O24   1.406528 S    
O4    P6    1.548398 D    
C34   C38   1.374103 A    
C10   H18   1.107587 S    
P1    C21   1.909918 S    
C6    C7    1.531244 S    
C8    C9    1.522803 S    
P8    O24   1.750155 S    
Ba1   O20   2.934010 S    
N7    H62   1.019372 S    
C18   C21   1.398621 A    
N1    C39   1.443391 S    
O2    Ba2   2.844126 S    
C41   H55   1.110930 S    
C25   C26   1.400032 A    
C5    H9    1.104646 S    
C1    N3    1.457558 S    
C39   H45   1.110529 S    
C4    O15   1.396601 S    
C40   H49   1.110274 S    
C8    H15   1.107727 S    
N9    H68   1.046491 S    
C3    H25   1.110266 S    
O10   C8    1.398803 S    
C6    H11   1.107550 S    
P2    O7    1.526703 D    
C4    C5    1.539382 S    
O2    Ba1   2.933580 S    
C22   C23   1.445911 A    
P3    C34   1.857158 S    
C15   C16   1.532884 S    
C11   C12   1.507510 S    
C29   C30   1.426896 A    
C7    H13   1.110768 S    
C7    H12   1.112765 S    
P6    C20   1.859484 S    
C2    H4    1.104272 S    
P7    O21   1.584903 D    
C12   H22   1.103283 S    
C17   H37   1.081983 S    
N6    H58   1.021131 S    
C18   N6    1.414179 S    
C9    H16   1.109059 S    
C11   O22   1.392680 S    
O16   Ba2   2.933088 S    
O1    Ba1   2.871131 S    
C9    H17   1.109218 S    
C29   H39   1.071041 S    
N5    C41   1.446677 S    
C27   C28   1.385923 A    
C40   H47   1.110676 S    
P7    C32   1.837761 S    
N8    H66   1.043968 S    
C1    C10   1.530220 S    
O19   C13   1.406349 S    
O6    C10   1.409289 S    
C36   N7    1.417993 S    
P2    O20   1.594100 S    
C40   H48   1.109124 S    
Ba1   Ba2   4.613577 S    
P4    Ba2   3.418895 S    
N4    H53   1.044804 S    
C35   C38   1.383996 A    
