data_mof_unit_13890.cif
_audit_creation_date              2012-10-26T19:20:58-0400
_audit_creation_method            fapswitch 2.2
_symmetry_space_group_name_H-M    P1
_symmetry_Int_Tables_number       1
_space_group_crystal_system       triclinic
_cell_length_a                    9.805151
_cell_length_b                    11.044866
_cell_length_c                    13.43192
_cell_angle_alpha                 94.248722
_cell_angle_beta                  81.455269
_cell_angle_gamma                 111.249169
_cell_volume                      1340.36353056

loop_
_atom_site_label
_atom_site_type_symbol
_atom_type_description
_atom_site_fract_x
_atom_site_fract_y
_atom_site_fract_z
_atom_type_partial_charge
C1    C     C_R   0.556536 0.745462 0.507228 0.547984
C2    C     C_R   0.375771 0.484248 0.800213 -0.005445
C3    C     C_2   0.588450 0.884605 0.511136 -0.130717
C4    C     C_R   0.423179 0.492757 0.690782 0.534205
C5    C     C_2   0.484255 0.930534 0.498080 -0.156983
C6    C     C_2   0.411611 0.115388 0.488817 -0.127317
C7    C     C_2   0.515847 0.069469 0.501807 -0.159464
C8    C     C_2   0.922398 0.489665 0.491600 -0.008524
C9    C     C_2   0.077019 0.509310 0.509155 -0.018926
C10   C     C_R   0.443476 0.254541 0.492773 0.564920
C11   C     C_R   0.579500 0.519047 0.310013 0.539362
C12   C     C_R   0.439596 0.500579 0.971861 0.046605
C13   C     C_R   0.799926 0.681820 0.068530 -0.068202
C14   C     C_R   0.629371 0.552128 0.203366 -0.006817
C15   C     C_R   0.230824 0.404969 0.834646 -0.133522
C16   C     C_R   0.188773 0.375798 0.935910 -0.136160
C17   C     C_R   0.291784 0.420377 0.003655 -0.111222
C18   C     C_R   0.477730 0.541113 0.870342 0.031430
C19   C     C_R   0.550123 0.544000 0.037776 0.019532
C20   C     C_R   0.691283 0.635398 0.003958 0.000832
C21   C     C_R   0.721350 0.683622 0.907093 -0.142327
C22   C     C_R   0.615846 0.638702 0.841764 -0.114869
C23   C     C_R   0.524968 0.499249 0.136325 -0.162442
C24   C     C_R   0.768846 0.645637 0.168992 0.228175
Cu1   Cu    Cu3+1 0.362000 0.479240 0.482530 0.937120
Cu2   Cu    Cu3+1 0.638000 0.520760 0.517470 0.938004
H1    H     H_    0.374637 0.865436 0.484526 0.161019
H2    H     H_    0.423105 0.423904 0.163875 0.124854
H3    H     H_    0.150763 0.361953 0.782628 0.132832
H4    H     H_    0.251011 0.392839 0.080749 0.109020
H5    H     H_    0.076346 0.314716 0.961697 0.122924
H6    H     H_    0.643084 0.684422 0.769451 0.138736
H7    H     H_    0.625474 0.134571 0.515337 0.156415
H8    H     H_    0.824746 0.724950 0.297021 0.343128
H9    H     H_    0.302192 0.050000 0.475258 0.107562
H10   H     H_    0.697865 0.949971 0.524719 0.103323
H11   H     H_    0.125446 0.577012 0.568072 0.144685
H12   H     H_    0.873380 0.420876 0.433442 0.152367
H13   H     H_    0.106499 0.385086 0.400251 0.204691
H14   H     H_    0.894684 0.617197 0.598198 0.199267
H15   H     H_    0.826907 0.757331 0.881753 0.104039
H16   H     H_    0.907056 0.752991 0.042558 0.136847
N1    N     N_2   0.845330 0.551960 0.543750 -0.351347
N2    N     N_2   0.154690 0.448120 0.456210 -0.350405
O1    O     O_R   0.426290 0.668220 0.490680 -0.493433
O2    O     O_R   0.659360 0.703290 0.520190 -0.503487
O3    O     O_R   0.326580 0.473880 0.629020 -0.500309
O4    O     O_R   0.559660 0.508940 0.658530 -0.494584
O5    O     O_R   0.340640 0.296710 0.479810 -0.487559
O6    O     O_R   0.573710 0.331780 0.509320 -0.493436
O7    O     O_R   0.440340 0.491060 0.341470 -0.494337
O8    O     O_R   0.673420 0.526120 0.370980 -0.484775
O9    O     O_3   0.874897 0.708119 0.230857 -0.693267

loop_
_geom_bond_atom_site_label_1
_geom_bond_atom_site_label_2
_ccdc_geom_bond_type
C12   C17   A    
C6    C10   S    
C2    C4    S    
Cu1   O7    S    
C6    C7    D    
C2    C15   A    
Cu2   O8    S    
C2    C18   A    
Cu1   O3    S    
C19   C23   A    
C19   C20   A    
C8    N1    D    
Cu2   O4    S    
C9    H11   S    
Cu1   Cu2   S    
C5    H1    S    
C21   C22   A    
C20   C21   A    
C16   H5    S    
C17   H4    S    
C7    H7    S    
C1    O1    A    
H13   N2    S    
C22   H6    S    
C3    H10   S    
C21   H15   S    
Cu1   N2    S    
C13   H16   S    
C14   C23   A    
Cu2   N1    S    
C15   H3    S    
Cu2   O6    S    
C11   C14   S    
Cu1   O5    S    
C1    O2    A    
C11   O7    A    
C23   H2    S    
Cu2   O2    S    
C14   C24   A    
C15   C16   A    
C10   O6    A    
Cu1   O1    S    
C6    H9    S    
C12   C19   A    
H8    O9    S    
C4    O4    A    
C12   C18   A    
C5    C7    S    
C16   C17   A    
C9    N2    D    
C11   O8    A    
C13   C20   A    
C3    C5    D    
C24   O9    S    
C18   C22   A    
C10   O5    A    
H14   N1    S    
C13   C24   A    
C8    C9    S    
C1    C3    S    
C4    O3    A    
C8    H12   S    
