data_mof_unit_62034.cif
_audit_creation_date              2012-12-10T17:58:26-0500
_audit_creation_method            fapswitch 2.2
_symmetry_space_group_name_H-M    P1
_symmetry_Int_Tables_number       1
_space_group_crystal_system       triclinic
_cell_length_a                    21.755316
_cell_length_b                    21.720384
_cell_length_c                    22.083098
_cell_angle_alpha                 119.096601
_cell_angle_beta                  119.067296
_cell_angle_gamma                 90.152366
_cell_volume                      7569.71770166

loop_
_atom_site_label
_atom_site_type_symbol
_atom_type_description
_atom_site_fract_x
_atom_site_fract_y
_atom_site_fract_z
_atom_type_partial_charge
Br1   Br    Br    0.651175 0.247933 0.656308 -0.440995
Br2   Br    Br    0.280322 0.587562 0.900695 -0.442888
Br3   Br    Br    0.331803 0.923596 0.088289 -0.522626
C1    C     C_R   0.501142 0.119543 0.501910 0.856758
C2    C     C_R   0.504208 0.187245 0.504516 -0.153395
C3    C     C_R   0.568445 0.249844 0.567332 0.187774
C4    C     C_R   0.579766 0.079995 0.659903 0.833783
C5    C     C_R   0.570789 0.314250 0.565811 -0.095005
C6    C     C_R   0.508144 0.314480 0.500785 -0.221029
C7    C     C_R   0.450190 0.248506 0.434711 0.134661
C8    C     C_3   0.368595 0.233848 0.394403 -0.447999
C9    C     C_3   0.366480 0.165116 0.396692 -0.439622
C10   C     C_3   0.293553 0.708543 0.049245 -0.245087
C11   C     C_3   0.325345 0.819707 0.048922 0.048007
C12   C     C_3   0.708048 0.282584 0.049251 -0.366400
C13   C     C_3   0.278645 0.769066 0.950898 -0.224575
C14   C     C_1   0.125343 0.624142 0.749345 -0.069561
C15   C     C_3   0.292926 0.790798 0.083139 0.072554
C16   C     C_R   0.500212 0.881557 0.500362 0.779111
C17   C     C_3   0.238168 0.658380 0.952394 0.053983
C18   C     C_3   0.210667 0.707363 0.917042 0.008049
C19   C     C_3   0.165258 0.749811 0.951941 -0.224826
C20   C     C_3   0.211888 0.792949 0.048971 -0.389213
C21   C     C_1   0.163615 0.661475 0.824613 0.038670
C22   C     C_1   0.338628 0.837329 0.175441 0.011839
C23   C     C_3   0.791044 0.291934 0.082530 0.299134
C24   C     C_1   0.375952 0.875170 0.250706 -0.109422
C25   C     C_R   0.450250 0.747076 0.428397 0.097199
C26   C     C_R   0.501320 0.815208 0.500331 -0.048572
C27   C     C_R   0.559946 0.816996 0.568436 -0.199705
C28   C     C_R   0.420304 0.920109 0.340236 0.811175
C29   C     C_R   0.560458 0.752439 0.568224 -0.199251
C30   C     C_R   0.503349 0.685433 0.498798 -0.087636
C31   C     C_R   0.451521 0.683047 0.427376 0.137289
C32   C     C_3   0.368978 0.652887 0.375052 -0.442716
C33   C     C_3   0.367717 0.723651 0.376730 -0.441798
C34   C     C_3   0.800697 0.213782 0.048615 -0.364042
C35   C     C_R   0.881431 0.499838 0.500034 0.807060
C36   C     C_R   0.920211 0.420179 0.340042 0.814310
C37   C     C_R   0.119208 0.499948 0.500001 0.802489
C38   C     C_R   0.080099 0.579749 0.659815 0.826603
C39   C     C_R   0.618537 0.497443 0.499628 0.877239
C40   C     C_3   0.659388 0.234040 0.952276 -0.364777
C41   C     C_R   0.502086 0.381061 0.500349 0.866580
C42   C     C_R   0.381361 0.500498 0.500301 0.799974
C43   C     C_R   0.500187 0.619076 0.499745 0.791990
C44   C     C_R   0.791179 0.559456 0.523038 0.137892
C45   C     C_3   0.752045 0.165243 0.951659 -0.375760
C46   C     C_R   0.814229 0.497527 0.498540 -0.119993
C47   C     C_R   0.769884 0.431130 0.472731 -0.237205
C48   C     C_R   0.704009 0.427994 0.471091 -0.050085
C49   C     C_R   0.683772 0.494067 0.498049 -0.147718
C50   C     C_R   0.729706 0.557904 0.523834 0.088972
C51   C     C_3   0.739582 0.637903 0.556371 -0.487174
C52   C     C_3   0.764385 0.279678 0.950437 -0.343161
C53   C     C_3   0.810233 0.639865 0.556025 -0.421843
C54   C     C_R   0.233937 0.565666 0.529624 0.108547
C55   C     C_R   0.188047 0.500995 0.503856 -0.090731
C56   C     C_1   0.837339 0.338047 0.174783 -0.099593
C57   C     C_R   0.211785 0.437653 0.486042 -0.179981
C58   C     C_R   0.275413 0.437260 0.484694 -0.203734
C59   C     C_R   0.316150 0.500392 0.502181 -0.083114
C60   C     C_R   0.297418 0.565424 0.529387 0.125124
C61   C     C_3   0.285309 0.614544 0.497886 -0.260916
C62   C     C_3   0.216062 0.615828 0.499528 -0.464260
C63   C     C_3   0.813048 0.328227 0.047415 -0.374209
C64   C     C_1   0.875183 0.375605 0.250216 -0.154584
C65   C     C_3   0.708165 0.209246 0.917364 0.287362
C66   C     C_2   0.638053 0.380175 0.631327 0.955943
C67   C     C_1   0.661932 0.163012 0.825126 -0.086592
C68   C     C_2   0.325288 0.738813 0.916282 0.930024
C69   C     C_2   0.088852 0.701958 0.912516 0.859042
C70   C     C_2   0.280147 0.676905 0.091307 0.873863
C71   C     C_2   0.660052 0.355815 0.442639 0.894753
C72   C     C_2   0.344743 0.688711 0.558706 0.875809
C73   C     C_1   0.624299 0.125124 0.749706 -0.122033
C74   C     C_R   0.448195 0.186260 0.436588 0.074667
Cu1   Cu    Cu3+1 0.438190 1.000000 0.500020 0.989455
Cu2   Cu    Cu3+1 0.561810 1.000000 0.499980 1.033159
Cu3   Cu    Cu3+1 0.000200 0.561800 0.500000 0.981417
Cu4   Cu    Cu3+1 0.000170 0.438200 0.500000 1.004315
Cu5   Cu    Cu3+1 0.541330 0.541310 0.582630 1.023206
Cu6   Cu    Cu3+1 0.458770 0.458690 0.417370 1.000552
H1    H     H_    0.699339 0.337902 0.072303 0.173250
H2    H     H_    0.350330 0.708653 0.063995 0.195804
H3    H     H_    0.383933 0.820381 0.076238 0.190590
H4    H     H_    0.255877 0.804571 0.927783 0.170199
H5    H     H_    0.187006 0.770397 0.070437 0.226550
H6    H     H_    0.211120 0.851296 0.075663 0.207376
H7    H     H_    0.189361 0.621596 0.935585 0.207330
H8    H     H_    0.800490 0.263578 0.926655 0.180548
H9    H     H_    0.155333 0.791960 0.936237 0.176454
H10   H     H_    0.603230 0.868672 0.622877 0.142653
H11   H     H_    0.604145 0.755375 0.622838 0.164386
H12   H     H_    0.618613 0.184525 0.929843 0.172932
H13   H     H_    0.347489 0.602635 0.311994 0.205732
H14   H     H_    0.346477 0.647358 0.408411 0.201720
H15   H     H_    0.345295 0.714160 0.314640 0.201456
H16   H     H_    0.344827 0.759463 0.411559 0.235175
H17   H     H_    0.785771 0.381256 0.452332 0.200300
H18   H     H_    0.695209 0.646400 0.510106 0.201156
H19   H     H_    0.734398 0.312649 0.927099 0.187872
H20   H     H_    0.750697 0.670547 0.619998 0.210419
H21   H     H_    0.806817 0.649879 0.509837 0.206546
H22   H     H_    0.862156 0.673439 0.619508 0.208683
H23   H     H_    0.690524 0.256265 0.073156 0.172444
H24   H     H_    0.179617 0.387460 0.469533 0.169923
H25   H     H_    0.291679 0.387413 0.468021 0.136222
H26   H     H_    0.273124 0.585943 0.433827 0.124368
H27   H     H_    0.219263 0.670512 0.547274 0.218962
H28   H     H_    0.163996 0.588353 0.436348 0.197808
H29   H     H_    0.806316 0.384404 0.070431 0.176521
H30   H     H_    0.872407 0.335325 0.069975 0.171593
H31   H     H_    0.713026 0.114425 0.929221 0.169489
H32   H     H_    0.787922 0.146981 0.927906 0.171308
H33   H     H_    0.784926 0.186161 0.072509 0.172231
H34   H     H_    0.859823 0.218717 0.071195 0.168572
H35   H     H_    0.715781 0.457512 0.658261 0.336259
H36   H     H_    0.419495 0.713769 0.934330 0.357581
H37   H     H_    0.978394 0.676581 0.836355 0.340530
H38   H     H_    0.322054 0.638541 0.165205 0.331402
H39   H     H_    0.560565 0.286642 0.387408 0.336188
H40   H     H_    0.447747 0.751851 0.661562 0.336592
H41   H     H_    0.354368 0.276789 0.435370 0.182858
H42   H     H_    0.339878 0.220845 0.330053 0.214918
H43   H     H_    0.351096 0.168152 0.439076 0.212152
H44   H     H_    0.336478 0.112503 0.333657 0.213315
H45   H     H_    0.627434 0.266161 0.928984 0.177580
O1    O     O_R   0.447800 0.090170 0.500010 -0.592579
O2    O     O_R   0.555400 0.465140 0.430260 -0.550109
O3    O     O_R   0.534920 0.444720 0.569790 -0.581063
O4    O     O_R   0.552190 0.090170 0.499980 -0.545490
O5    O     O_R   0.465190 0.374940 0.430230 -0.560479
O6    O     O_R   0.444700 0.534860 0.569740 -0.549856
O7    O     O_R   0.374970 0.465080 0.430180 -0.600166
O8    O     O_R   0.534910 0.625060 0.569770 -0.577459
O9    O     O_R   0.465180 0.555280 0.430210 -0.592852
O10   O     O_R   0.508090 0.060280 0.620580 -0.581492
O11   O     O_R   0.612480 0.060280 0.620550 -0.561456
O12   O     O_R   0.909990 0.447840 0.500030 -0.582236
O13   O     O_R   0.447810 0.909830 0.500020 -0.579953
O14   O     O_R   0.552200 0.909830 0.499990 -0.584358
O15   O     O_R   0.387520 0.939720 0.379450 -0.583174
O16   O     O_R   0.491910 0.939720 0.379420 -0.569165
O17   O     O_R   0.910020 0.552220 0.500020 -0.587363
O18   O     O_2   0.664340 0.406679 0.705133 -0.542865
O19   O     O_R   0.670664 0.412614 0.608343 -0.758332
O20   O     O_2   0.301677 0.717592 0.844292 -0.572628
O21   O     O_R   0.394760 0.735184 0.965445 -0.740335
O22   O     O_2   0.081415 0.656125 0.927417 -0.554739
O23   O     O_R   0.939920 0.491910 0.379430 -0.580691
O24   O     O_R   0.026379 0.711316 0.859175 -0.765358
O25   O     O_2   0.220211 0.666302 0.082317 -0.565747
O26   O     O_R   0.337136 0.659413 0.140421 -0.743670
O27   O     O_2   0.690994 0.310815 0.450746 -0.564562
O28   O     O_R   0.583566 0.337783 0.404741 -0.743351
O29   O     O_2   0.334237 0.738506 0.547351 -0.588945
O30   O     O_R   0.412155 0.700128 0.626471 -0.738919
O31   O     O_R   0.939890 0.387530 0.379440 -0.580307
O32   O     O_R   0.090380 0.552160 0.499970 -0.582734
O33   O     O_R   0.090350 0.447780 0.499980 -0.585798
O34   O     O_R   0.060480 0.612470 0.620560 -0.576345
O35   O     O_R   0.060450 0.508090 0.620570 -0.562270
O36   O     O_R   0.625130 0.534920 0.569820 -0.585607

loop_
_geom_bond_atom_site_label_1
_geom_bond_atom_site_label_2
_ccdc_geom_bond_type
H36   O21   S    
Cu3   O23   S    
Cu2   O11   S    
C13   C18   S    
Cu4   O31   S    
C63   H30   S    
Cu4   O12   S    
C11   C15   S    
C51   H18   S    
C29   H11   S    
C8    H41   S    
C48   C71   S    
C52   C65   S    
C54   C55   A    
C44   C46   A    
C9    H44   S    
C68   O21   S    
C50   C51   S    
C41   O3    A    
C15   C22   S    
C52   H19   S    
C42   O6    A    
C59   C60   A    
Cu5   O36   S    
C10   C15   S    
C12   H23   S    
C25   C26   A    
C8    H42   S    
Cu1   O1    S    
C27   H10   S    
C2    C3    A    
Cu3   Cu4   S    
C39   O36   A    
Cu3   O32   S    
Cu2   O14   S    
C9    H43   S    
C55   C57   A    
C36   O23   A    
C42   C59   S    
C31   C32   S    
C28   O16   A    
C58   H25   S    
C62   H28   S    
C52   H8    S    
C56   C64   T    
C32   C33   S    
C40   C65   S    
C69   O24   S    
C70   O26   S    
C13   H4    S    
C40   H12   S    
C20   H6    S    
C27   C29   A    
C23   C56   S    
C4    C73   S    
Cu6   O7    S    
C44   C50   A    
C72   O29   D    
C68   O20   D    
C25   C31   A    
C16   O13   A    
C38   O34   A    
C28   O15   A    
C30   C43   S    
Cu4   O35   S    
C13   C68   S    
C36   C64   S    
Cu1   O10   S    
C19   C69   S    
C7    C74   A    
C54   C60   A    
C62   H27   S    
C51   C53   S    
H37   O24   S    
C14   C21   T    
C42   O7    A    
H38   O26   S    
Br2   C17   S    
C48   C49   A    
C23   C63   S    
C51   H20   S    
C37   C55   S    
C11   H3    S    
Cu6   O2    S    
C1    O4    A    
Cu1   O13   S    
C34   H33   S    
Cu1   Cu2   S    
C5    C6    A    
C12   C23   S    
C3    C5    A    
C32   H13   S    
C24   C28   S    
Br1   C3    S    
C57   C58   A    
Cu5   O6    S    
C35   O17   A    
C26   C27   A    
Cu2   O16   S    
Cu3   O34   S    
C9    C74   S    
C47   C48   A    
C5    C66   S    
C71   O28   S    
C39   O2    A    
C45   C65   S    
C34   C45   S    
Br3   C11   S    
C53   H21   S    
C1    O1    A    
C57   H24   S    
C43   O9    A    
C72   O30   S    
Cu3   O17   S    
C10   C70   S    
Cu5   Cu6   S    
C16   O14   A    
C69   O22   D    
C20   H5    S    
C45   H32   S    
C67   C73   T    
C66   O19   S    
C11   C13   S    
C70   O25   D    
C16   C26   S    
Cu6   O9    S    
C52   C63   S    
C35   C46   S    
C49   C50   A    
C45   H31   S    
C6    C7    A    
C41   O5    A    
H35   O19   S    
C6    C41   S    
C19   H9    S    
C10   C17   S    
C36   O31   A    
H39   O28   S    
C37   O32   A    
C54   C62   S    
C1    C2    S    
C40   H45   S    
C4    O10   A    
C33   H15   S    
C8    C9    S    
C23   C34   S    
C12   H1    S    
H40   O30   S    
C22   C24   T    
C66   O18   D    
C29   C30   A    
C38   O35   A    
C12   C40   S    
C37   O33   A    
C32   H14   S    
Cu1   O15   S    
C61   C62   S    
C4    O11   A    
C61   H26   S    
C47   H17   S    
C17   H7    S    
C15   C20   S    
Cu2   O4    S    
C61   C72   S    
C30   C31   A    
C71   O27   D    
C33   H16   S    
Cu5   O8    S    
C58   C59   A    
C14   C38   S    
C53   H22   S    
Cu6   O5    S    
C7    C8    S    
C43   O8    A    
C60   C61   S    
C34   H34   S    
C17   C18   S    
C25   C33   S    
C65   C67   S    
C46   C47   A    
C18   C21   S    
C10   H2    S    
C35   O12   A    
C19   C20   S    
Cu4   O33   S    
C63   H29   S    
Cu5   O3    S    
C18   C19   S    
C2    C74   A    
C39   C49   S    
C44   C53   S    
