data_mof_unit_30205.cif
_audit_creation_date              2012-12-11T17:24:11-0500
_audit_creation_method            fapswitch 2.2
_symmetry_space_group_name_H-M    P1
_symmetry_Int_Tables_number       1
_space_group_crystal_system       triclinic
_cell_length_a                    19.855976
_cell_length_b                    19.770681
_cell_length_c                    20.075531
_cell_angle_alpha                 110.726653
_cell_angle_beta                  107.382684
_cell_angle_gamma                 110.054724
_cell_volume                      6081.06931098

loop_
_atom_site_label
_atom_site_type_symbol
_atom_type_description
_atom_site_fract_x
_atom_site_fract_y
_atom_site_fract_z
_atom_type_partial_charge
C1    C     C_R   0.997377 0.727650 0.068134 -0.090242
C2    C     C_R   0.044865 0.307509 0.971229 -0.079955
C3    C     C_R   0.763212 0.236335 0.762107 -0.048141
C4    C     C_R   0.242405 0.719532 0.242549 -0.140544
C5    C     C_R   0.036773 0.500456 0.767768 -0.038560
C6    C     C_R   0.959336 0.501211 0.231200 -0.018021
C7    C     C_R   0.757453 0.502334 0.977776 0.071236
C8    C     C_R   0.228821 0.499077 0.952529 0.010547
C9    C     C_3   0.412627 0.426709 0.842623 -0.346152
C10   C     C_3   0.541986 0.575612 0.970322 -0.353824
C11   C     C_3   0.479815 0.492061 0.838973 0.667233
C12   C     C_3   0.475764 0.510430 0.973723 0.667535
C13   C     C_1   0.683992 0.503355 0.947794 -0.047693
C14   C     C_1   0.286610 0.498658 0.925339 -0.009667
C15   C     C_3   0.479380 0.437650 0.916530 -0.347829
C16   C     C_3   0.475295 0.565203 0.896550 -0.351018
C17   C     C_3   0.545358 0.502626 0.911751 0.057027
C18   C     C_3   0.409551 0.499917 0.901286 0.028398
C19   C     C_1   0.621257 0.503419 0.926905 0.033232
C20   C     C_1   0.339384 0.498929 0.908718 0.045338
C21   C     C_R   0.519592 0.867912 0.471658 0.588895
C22   C     C_R   0.504506 0.984936 0.587780 0.576087
C23   C     C_R   0.838228 0.278658 0.768398 -0.203890
C24   C     C_R   0.165228 0.693817 0.234537 -0.138900
C25   C     C_R   0.442461 0.857215 0.460391 -0.198389
C26   C     C_R   0.581493 0.999702 0.595082 -0.223693
C27   C     C_R   0.433798 0.912930 0.519812 -0.277341
C28   C     C_R   0.590451 0.938424 0.541895 -0.287466
C29   C     C_1   0.373752 0.800065 0.381524 0.047003
C30   C     C_1   0.649165 0.081987 0.653139 0.045059
C31   C     C_1   0.702379 0.152527 0.701621 0.044789
C32   C     C_1   0.314581 0.760395 0.316698 0.000086
C33   C     C_R   0.111878 0.570996 0.583317 0.406455
C34   C     C_R   0.989294 0.422705 0.435773 0.399865
C35   C     C_R   0.072307 0.495646 0.581104 -0.353023
C36   C     C_R   0.022687 0.499512 0.438916 -0.358871
C37   C     C_R   0.014503 0.420484 0.507218 0.368732
C38   C     C_R   0.086246 0.573445 0.511663 0.365252
C39   C     C_1   0.071033 0.499628 0.652461 0.166003
C40   C     C_1   0.994067 0.500724 0.365980 0.178251
C41   C     C_1   0.973751 0.500928 0.304098 -0.078472
C42   C     C_1   0.059174 0.501448 0.707540 -0.089761
C43   C     C_R   0.085972 0.131254 0.158181 -0.229347
C44   C     C_R   0.161569 0.056520 0.083063 -0.222637
C45   C     C_R   0.063743 0.569697 0.839820 -0.112814
C46   C     C_R   0.930713 0.432024 0.158703 -0.162158
C47   C     C_R   0.118745 0.160010 0.113806 -0.099176
C48   C     C_R   0.115852 0.018437 0.114481 -0.074932
C49   C     C_R   0.161515 0.127009 0.081622 0.401398
C50   C     C_R   0.080065 0.056652 0.153816 0.418084
C51   C     C_1   0.094027 0.209281 0.085869 0.171121
C52   C     C_1   0.092571 0.933636 0.093973 0.157997
C53   C     C_1   0.068548 0.860978 0.071536 -0.054178
C54   C     C_1   0.067464 0.244827 0.058248 -0.034277
C55   C     C_R   0.764011 0.431681 0.960981 -0.162915
C56   C     C_R   0.226026 0.568629 0.995411 0.003423
C57   C     C_R   0.000133 0.430898 0.772873 0.024579
C58   C     C_R   0.998949 0.569933 0.226685 0.001059
C59   C     C_R   0.834121 0.571404 0.030784 -0.084872
C60   C     C_R   0.158313 0.430060 0.928570 -0.108488
C61   C     C_R   0.769050 0.276407 0.836892 0.500187
C62   C     C_R   0.235291 0.698568 0.166425 0.552624
C63   C     C_R   0.068831 0.728817 0.001462 -0.017134
C64   C     C_R   0.975003 0.304154 0.039484 0.000182
C65   C     C_R   0.039154 0.773755 0.041244 -0.040028
C66   C     C_R   0.031257 0.284082 0.024730 -0.017070
H1    H     H_    0.980184 0.751224 0.113869 0.136933
H2    H     H_    0.084834 0.299792 0.946514 0.118366
H3    H     H_    0.358774 0.366733 0.790186 0.156319
H4    H     H_    0.595688 0.635663 0.022870 0.151469
H5    H     H_    0.471602 0.616187 0.887255 0.155222
H6    H     H_    0.482602 0.386453 0.925751 0.153132
H7    H     H_    0.856813 0.255668 0.724159 0.177864
H8    H     H_    0.150594 0.701008 0.283142 0.152568
H9    H     H_    0.104550 0.633076 0.858578 0.151112
H10   H     H_    0.884755 0.370188 0.138615 0.154715
H11   H     H_    0.714205 0.368300 0.922996 0.172204
H12   H     H_    0.263859 0.630835 0.008421 0.167353
H13   H     H_    0.850115 0.636266 0.056736 0.103337
H14   H     H_    0.135898 0.366478 0.883415 0.152013
N1    N     N_R   0.999080 0.655880 0.043180 -0.050640
N2    N     N_R   0.000920 0.344120 0.956820 -0.046049
N3    N     N_R   0.887710 0.344150 0.844460 -0.055968
N4    N     N_R   0.112290 0.655850 0.155540 -0.059222
N5    N     N_R   0.043250 0.542980 0.887390 -0.050250
N6    N     N_R   0.956750 0.457020 0.112610 -0.063224
N7    N     N_R   0.843540 0.457050 0.000250 -0.059806
N8    N     N_R   0.156460 0.542950 0.999750 -0.054541
N9    N     N_R   0.000630 0.457060 0.844460 -0.046092
N10   N     N_R   0.999370 0.542940 0.155540 -0.041547
N11   N     N_R   0.886170 0.542970 0.043180 -0.034958
N12   N     N_R   0.113830 0.457030 0.956820 -0.050134
N13   N     N_R   0.844420 0.344140 0.887390 -0.120227
N14   N     N_R   0.155580 0.655860 0.112610 -0.091814
N15   N     N_R   0.042380 0.655890 0.000250 -0.052179
N16   N     N_R   0.957620 0.344110 0.999750 -0.082094
Ni1   Ni    Ni4+2 0.999230 0.598520 0.098470 0.270526
Ni2   Ni    Ni4+2 0.000770 0.401480 0.901530 0.260493
Ni3   Ni    Ni4+2 0.098520 0.598520 0.000000 0.273786
Ni4   Ni    Ni4+2 0.901480 0.401480 0.000000 0.203522
C67   C     C_2   0.673249 0.949811 0.559115 0.583050
H15   H     H_    0.727519 0.009426 0.606297 0.001424
O1    O     O_2   0.682220 0.892229 0.522661 -0.546281
C68   C     C_2   0.350743 0.897315 0.508081 0.616566
H16   H     H_    0.297256 0.836601 0.462002 -0.007770
O2    O     O_2   0.340549 0.951536 0.549019 -0.547625
O3    O     O_3   0.524717 0.809134 0.413341 -0.583716
C69   C     C_3   0.538310 0.836976 0.360209 0.316112
H17   H     H_    0.598758 0.894825 0.392476 0.097269
H18   H     H_    0.490127 0.849774 0.332496 0.061401
C70   C     C_3   0.536974 0.769309 0.292289 -0.812598
H19   H     H_    0.475863 0.711898 0.256439 0.260731
H20   H     H_    0.550337 0.791406 0.251573 0.194637
H21   H     H_    0.583892 0.754299 0.318039 0.263524
O4    O     O_3   0.498392 0.045810 0.642614 -0.578523
C71   C     C_3   0.504893 0.033407 0.708799 0.323577
H22   H     H_    0.567183 0.045377 0.743543 0.085834
H23   H     H_    0.458920 0.968599 0.688240 0.078893
C72   C     C_3   0.489257 0.094102 0.764920 -0.790233
H24   H     H_    0.427476 0.083618 0.731485 0.268192
H25   H     H_    0.492863 0.084254 0.816713 0.188059
H26   H     H_    0.535534 0.159550 0.788526 0.275207
O5    O     O_3   0.126917 0.646818 0.512800 -0.586767
C73   C     C_3   0.080187 0.687063 0.512081 0.269349
H27   H     H_    0.057443 0.690386 0.556925 0.048049
H28   H     H_    0.026806 0.654054 0.451199 0.087912
C74   C     C_3   0.132970 0.775715 0.532490 -0.831400
H29   H     H_    0.154475 0.774179 0.487123 0.252508
H30   H     H_    0.096947 0.808009 0.531763 0.211487
H31   H     H_    0.186680 0.811205 0.593713 0.254926
O6    O     O_3   0.974163 0.346097 0.504592 -0.584310
C75   C     C_3   0.028876 0.316905 0.523840 0.275314
H32   H     H_    0.068907 0.351272 0.590519 0.094891
H33   H     H_    0.067939 0.323764 0.493893 0.063293
C76   C     C_3   0.980218 0.224494 0.494967 -0.854767
H34   H     H_    0.940977 0.188349 0.428098 0.254275
H35   H     H_    0.022506 0.201091 0.511004 0.212753
H36   H     H_    0.941067 0.214924 0.524148 0.255425
O7    O     O_3   0.177951 0.640892 0.654930 -0.583512
C77   C     C_3   0.151992 0.691456 0.697304 0.301401
H37   H     H_    0.086643 0.656883 0.681819 0.049138
H38   H     H_    0.161427 0.743062 0.684295 0.117022
C78   C     C_3   0.204284 0.730303 0.787985 -0.871822
H39   H     H_    0.269307 0.770263 0.806631 0.261746
H40   H     H_    0.183917 0.769348 0.822085 0.208653
H41   H     H_    0.198736 0.680491 0.803134 0.254899
O8    O     O_3   0.925190 0.351165 0.364344 -0.581597
C79   C     C_3   0.957070 0.309802 0.321438 0.297113
H42   H     H_    0.989123 0.286818 0.355493 0.096780
H43   H     H_    0.000059 0.351538 0.309626 0.100556
C80   C     C_3   0.887054 0.234833 0.240124 -0.817808
H44   H     H_    0.854448 0.255998 0.204231 0.263270
H45   H     H_    0.910937 0.201280 0.205615 0.217700
H46   H     H_    0.843549 0.191145 0.249674 0.251136
O9    O     O_3   0.040156 0.021047 0.188885 -0.621314
C81   C     C_3   0.955927 0.968675 0.132652 0.242120
H47   H     H_    0.944983 0.919729 0.074854 0.090501
H48   H     H_    0.928214 0.005587 0.118895 0.076542
C82   C     C_3   0.912816 0.924908 0.168722 -0.845857
H49   H     H_    0.921287 0.971932 0.225947 0.254674
H50   H     H_    0.846515 0.883740 0.125226 0.204180
H51   H     H_    0.938184 0.886164 0.181596 0.257943
O10   O     O_3   0.195341 0.157630 0.040235 -0.637362
C83   C     C_3   0.272419 0.230074 0.097230 0.249982
H52   H     H_    0.314377 0.214863 0.131883 0.094667
H53   H     H_    0.267014 0.279382 0.140377 0.107532
C84   C     C_3   0.309690 0.265142 0.052629 -0.850221
H54   H     H_    0.269797 0.282286 0.018581 0.259140
H55   H     H_    0.370673 0.321834 0.096807 0.207862
H56   H     H_    0.316707 0.217778 0.009501 0.252908
C85   C     C_2   0.055613 0.176139 0.207124 0.527666
H57   H     H_    0.020990 0.147320 0.231769 0.046694
O11   O     O_2   0.071800 0.247326 0.223628 -0.632361
C86   C     C_2   0.206818 0.022277 0.048218 0.525818
H58   H     H_    0.223052 0.037926 0.006497 0.064589
O12   O     O_2   0.229542 0.979160 0.068217 -0.608036
C87   C     C_2   0.991123 0.349370 0.724127 0.412556
H59   H     H_    0.982101 0.329289 0.662903 0.048709
O13   O     O_2   0.997350 0.305586 0.753049 -0.610917
C88   C     C_2   0.009177 0.652369 0.274865 0.436092
H60   H     H_    0.007860 0.669216 0.331863 0.019418
O14   O     O_2   0.016378 0.701156 0.249967 -0.591224
O15   O     O_3   0.711369 0.241552 0.857900 -0.671149
C89   C     C_3   0.748097 0.237342 0.926838 0.274304
H61   H     H_    0.791102 0.300847 0.980926 0.118532
H62   H     H_    0.780212 0.201513 0.915829 0.148590
C90   C     C_3   0.682241 0.192268 0.944110 -0.854522
H63   H     H_    0.710470 0.193841 0.001803 0.254959
H64   H     H_    0.645260 0.223215 0.949473 0.242928
H65   H     H_    0.641899 0.126013 0.894432 0.240208
O16   O     O_3   0.298017 0.717937 0.147586 -0.650479
C91   C     C_3   0.338081 0.804525 0.175920 0.286758
H66   H     H_    0.373206 0.841368 0.243206 0.075753
H67   H     H_    0.294061 0.825003 0.155371 0.137298
C92   C     C_3   0.397442 0.823994 0.142924 -0.846628
H68   H     H_    0.363745 0.790380 0.075648 0.271270
H69   H     H_    0.430804 0.892281 0.166448 0.214451
H70   H     H_    0.442188 0.804199 0.162110 0.244025
C93   C     C_2   0.139755 0.766472 0.990614 0.432554
H71   H     H_    0.149182 0.816864 0.977903 0.080548
O17   O     O_2   0.189899 0.743546 0.998685 -0.615206
C94   C     C_2   0.938058 0.277632 0.085504 0.406969
H72   H     H_    0.977096 0.293692 0.146071 0.091012
O18   O     O_2   0.864637 0.232524 0.054542 -0.640365
O19   O     O_3   0.488260 0.482678 0.769460 -0.625208
C95   C     C_3   0.419329 0.474144 0.712164 0.246092
H73   H     H_    0.413545 0.530686 0.737049 0.095079
H74   H     H_    0.362521 0.417825 0.693229 0.091193
C96   C     C_3   0.428667 0.463935 0.637284 -0.821987
H75   H     H_    0.433595 0.407324 0.610244 0.259054
H76   H     H_    0.374676 0.457141 0.591678 0.205968
H77   H     H_    0.484377 0.519684 0.653844 0.256479
O20   O     O_3   0.468306 0.519922 0.043824 -0.628638
C97   C     C_3   0.537112 0.527621 0.100394 0.246902
H78   H     H_    0.594169 0.583368 0.118862 0.092917
H79   H     H_    0.541896 0.470502 0.075052 0.090867
C98   C     C_3   0.528494 0.538450 0.175719 -0.836901
H80   H     H_    0.472501 0.483285 0.159569 0.251649
H81   H     H_    0.582341 0.544627 0.220886 0.208323
H82   H     H_    0.524444 0.595563 0.203086 0.260366

loop_
_geom_bond_atom_site_label_1
_geom_bond_atom_site_label_2
_ccdc_geom_bond_type
C44   C49   A    
C76   H36   S    
C33   C35   A    
C85   H57   S    
C63   C65   A    
C67   H15   S    
N7    N11   A    
C78   H41   S    
C34   C37   A    
C69   H17   S    
C6    C58   A    
C3    C23   A    
O8    C79   S    
C77   C78   S    
C7    C55   A    
C5    C42   S    
C8    C56   A    
C46   H10   S    
N12   Ni2   S    
O5    C73   S    
C84   H55   S    
O19   C95   S    
C71   H22   S    
C98   H82   S    
C15   H6    S    
C85   O11   D    
C57   N9    A    
N4    Ni1   S    
C83   H52   S    
C35   C37   A    
C77   H38   S    
C29   C32   T    
C2    H2    S    
C30   C31   T    
C55   H11   S    
C90   H64   S    
C97   H79   S    
C56   N8    A    
C10   C17   S    
C1    N1    A    
O4    C71   S    
N3    N13   A    
C4    C62   A    
C27   C68   S    
C96   H77   S    
C56   H12   S    
C89   H61   S    
C15   C17   S    
C11   C16   S    
C80   H46   S    
C7    C59   A    
C3    C61   A    
C86   H58   S    
C90   H65   S    
C64   C94   S    
C17   C19   S    
C28   C67   S    
N5    N9    A    
C78   H40   S    
C70   H19   S    
C63   C93   S    
C75   H32   S    
C87   O13   D    
C6    C41   S    
C1    C65   A    
C80   H44   S    
C82   H50   S    
C74   H29   S    
C39   C42   T    
C53   C65   S    
N10   Ni1   S    
C34   C36   A    
C38   O5    S    
C92   H70   S    
C60   N12   A    
C93   H71   S    
C67   O1    D    
C80   H45   S    
N2    Ni2   S    
C16   H5    S    
C12   O20   S    
C23   H7    S    
C10   C12   S    
C68   O2    D    
C68   H16   S    
C88   O14   D    
C84   H56   S    
C72   H25   S    
C25   C29   S    
C61   O15   S    
N2    N16   A    
C94   H72   S    
C13   C19   T    
O16   C91   S    
N8    Ni3   S    
C91   C92   S    
C14   C20   T    
C76   H34   S    
C79   C80   S    
C77   H37   S    
C64   N16   A    
C47   C49   A    
N6    N10   A    
C59   H13   S    
C84   H54   S    
C43   C85   S    
C95   H73   S    
C59   N11   A    
C98   H80   S    
O20   C97   S    
C5    C45   A    
N3    Ni2   S    
C1    H1    S    
C37   O6    S    
C64   C66   A    
C35   C39   S    
O15   C89   S    
C74   H30   S    
C22   O4    S    
N5    Ni3   S    
C9    C11   S    
C34   O8    S    
C82   H49   S    
C12   C15   S    
C36   C40   S    
C50   O9    S    
O3    C69   S    
N8    N12   A    
C96   H75   S    
C82   H51   S    
C70   H20   S    
C69   C70   S    
N4    N14   A    
N11   Ni1   S    
C72   H24   S    
C3    C31   S    
C48   C50   A    
C58   N10   A    
N13   Ni4   S    
C4    C32   S    
C94   O18   D    
C73   C74   S    
C63   N15   A    
C10   H4    S    
C75   H33   S    
C40   C41   T    
C21   O3    S    
C21   C28   A    
C26   C30   S    
C22   C27   A    
C62   N14   A    
C23   N3    A    
C2    N2    A    
C25   C27   A    
O6    C75   S    
N6    Ni4   S    
C52   C53   T    
C73   H28   S    
N7    Ni4   S    
C72   H26   S    
C76   H35   S    
C4    C24   A    
C21   C25   A    
C60   H14   S    
C8    C14   S    
C6    C46   A    
C97   H78   S    
C95   H74   S    
C81   C82   S    
N15   Ni3   S    
C44   C86   S    
C79   H43   S    
C2    C66   A    
C97   C98   S    
C11   C17   S    
C47   C51   S    
O7    C77   S    
C89   C90   S    
C43   C50   A    
C62   O16   S    
C54   C66   S    
C98   H81   S    
N9    Ni2   S    
C26   C28   A    
C33   C38   A    
C89   H62   S    
C71   C72   S    
C5    C57   A    
C45   N5    A    
C45   H9    S    
C51   C54   T    
C91   H66   S    
C9    H3    S    
C83   H53   S    
C24   N4    A    
C74   H31   S    
C90   H63   S    
C10   C16   S    
C8    C60   A    
C36   C38   A    
C57   C87   S    
C95   C96   S    
C24   H8    S    
C69   H18   S    
N1    Ni1   S    
N14   Ni3   S    
C33   O7    S    
C75   C76   S    
N1    N15   A    
N16   Ni4   S    
C81   H48   S    
C96   H76   S    
C71   H23   S    
C70   H21   S    
C18   C20   S    
C79   H42   S    
C83   C84   S    
C55   N7    A    
C86   O12   D    
C49   O10   S    
O10   C83   S    
C92   H68   S    
C44   C48   A    
C9    C18   S    
C7    C13   S    
C81   H47   S    
C16   C18   S    
C87   H59   S    
C22   C26   A    
C12   C18   S    
O9    C81   S    
C93   O17   D    
C58   C88   S    
C11   O19   S    
C46   N6    A    
C48   C52   S    
C61   N13   A    
C43   C47   A    
C88   H60   S    
C78   H39   S    
C9    C15   S    
C91   H67   S    
C73   H27   S    
C92   H69   S    
