data_mof_unit_55223.cif
_audit_creation_date              2012-12-11T14:13:04-0500
_audit_creation_method            fapswitch 2.2
_symmetry_space_group_name_H-M    P1
_symmetry_Int_Tables_number       1
_space_group_crystal_system       triclinic
_cell_length_a                    11.604733
_cell_length_b                    18.692141
_cell_length_c                    10.084922
_cell_angle_alpha                 90.002777
_cell_angle_beta                  110.565619
_cell_angle_gamma                 89.989861
_cell_volume                      2048.17978217

loop_
_atom_site_label
_atom_site_type_symbol
_atom_type_description
_atom_site_fract_x
_atom_site_fract_y
_atom_site_fract_z
_atom_type_partial_charge
C1    C     C_R   0.072145 0.647074 0.139937 0.517687
C2    C     C_R   0.927770 0.352962 0.860030 0.518518
C3    C     C_R   0.928091 0.147189 0.860096 0.519151
C4    C     C_R   0.072447 0.853099 0.140036 0.517216
C5    C     C_R   0.394770 0.458785 0.486727 -0.011364
C6    C     C_R   0.604443 0.541972 0.516812 -0.013002
C7    C     C_R   0.605931 0.957998 0.515052 -0.010126
C8    C     C_R   0.396624 0.041081 0.486868 0.002241
C9    C     C_2   0.394922 0.929629 0.937412 -0.096807
C10   C     C_2   0.598165 0.074397 0.074912 -0.053436
C11   C     C_2   0.604628 0.429487 0.063040 -0.052644
C12   C     C_2   0.402075 0.574569 0.924595 -0.058653
C13   C     C_2   0.482342 0.967359 0.030481 -0.181624
C14   C     C_2   0.494660 0.041801 0.001806 -0.167687
C15   C     C_2   0.517114 0.467202 0.970025 -0.169193
C16   C     C_2   0.505159 0.541739 0.998351 -0.168242
C17   C     C_2   0.013812 0.922877 0.116155 -0.135330
C18   C     C_2   0.988400 0.077969 0.884299 -0.134699
C19   C     C_2   0.987149 0.422460 0.884103 -0.133054
C20   C     C_2   0.012450 0.577662 0.115696 -0.134520
C21   C     C_2   0.000740 0.960852 0.997732 -0.008077
C22   C     C_2   0.003363 0.040190 0.003394 -0.007092
C23   C     C_2   0.000898 0.460406 0.002736 -0.006843
C24   C     C_2   0.998722 0.539727 0.997049 -0.007370
C25   C     C_R   0.468740 0.646559 0.441903 0.562272
C26   C     C_R   0.531303 0.353814 0.558993 0.564250
C27   C     C_R   0.531490 0.146304 0.558643 0.558340
C28   C     C_R   0.468871 0.853554 0.441380 0.549907
C29   C     C_R   0.374754 0.644253 0.966826 0.618903
C30   C     C_R   0.627333 0.357195 0.029461 0.584033
C31   C     C_R   0.625359 0.144171 0.032975 0.601920
C32   C     C_R   0.372550 0.857230 0.970675 0.617956
C33   C     C_R   0.505116 0.425495 0.490700 0.010113
C34   C     C_R   0.494045 0.575463 0.512181 -0.004205
C35   C     C_R   0.495472 0.924811 0.510512 -0.051657
C36   C     C_R   0.506681 0.074684 0.490194 -0.000418
C37   C     C_R   0.286685 0.417746 0.457538 -0.096246
C38   C     C_R   0.712986 0.582544 0.545122 -0.097818
C39   C     C_R   0.713911 0.916850 0.543869 -0.101740
C40   C     C_R   0.287998 0.081540 0.458728 -0.092214
C41   C     C_R   0.183116 0.445914 0.475911 -0.148502
C42   C     C_R   0.815458 0.553927 0.524321 -0.147523
C43   C     C_R   0.817561 0.945043 0.525707 -0.148710
C44   C     C_R   0.186113 0.053073 0.480823 -0.140127
C45   C     C_R   0.183950 0.515687 0.521554 -0.123988
C46   C     C_R   0.812396 0.484450 0.475772 -0.127796
C47   C     C_R   0.816740 0.014873 0.480356 -0.125190
C48   C     C_R   0.189592 0.983721 0.529945 -0.119332
C49   C     C_R   0.287356 0.559746 0.545356 0.059007
C50   C     C_R   0.707928 0.441302 0.452216 0.071577
C51   C     C_R   0.713250 0.058824 0.456712 0.070959
C52   C     C_R   0.293585 0.940174 0.552395 0.018671
C53   C     C_R   0.392806 0.532754 0.516604 -0.023400
C54   C     C_R   0.605330 0.468318 0.485415 -0.013549
C55   C     C_R   0.607982 0.031951 0.485768 -0.013621
C56   C     C_R   0.395914 0.967365 0.518259 -0.038732
Cr1   Cr    Cr6+3 0.187610 0.750000 0.979860 1.092455
Cr2   Cr    Cr6+3 0.812390 0.250000 0.020140 1.082155
Cr3   Cr    Cr6+3 0.245810 0.750000 0.341640 1.123707
Cr4   Cr    Cr6+3 0.754190 0.250000 0.658360 1.105273
Cr5   Cr    Cr6+3 0.485760 0.750000 0.219910 1.031747
Cr6   Cr    Cr6+3 0.514240 0.250000 0.780090 1.025223
H1    H     H_    0.102982 0.412599 0.459096 0.168546
H2    H     H_    0.895979 0.586817 0.540575 0.173085
H3    H     H_    0.897622 0.911689 0.542223 0.168050
H4    H     H_    0.105508 0.085907 0.464590 0.171703
H5    H     H_    0.103548 0.534641 0.541822 0.174564
H6    H     H_    0.891159 0.465044 0.452531 0.168248
H7    H     H_    0.896946 0.033904 0.459760 0.173418
H8    H     H_    0.110788 0.964452 0.553239 0.168439
H9    H     H_    0.282770 0.362786 0.422064 0.133187
H10   H     H_    0.717781 0.637479 0.580990 0.129718
H11   H     H_    0.717626 0.861803 0.578808 0.128127
H12   H     H_    0.282636 0.136315 0.421882 0.128388
H13   H     H_    0.423877 0.068098 0.914334 0.163130
H14   H     H_    0.545318 0.943384 0.127271 0.167907
H15   H     H_    0.575757 0.567920 0.086175 0.161375
H16   H     H_    0.454014 0.443201 0.873361 0.164707
H17   H     H_    0.670303 0.045759 0.156731 0.133219
H18   H     H_    0.329919 0.955414 0.844714 0.131402
H19   H     H_    0.330067 0.546039 0.842473 0.131204
H20   H     H_    0.669915 0.455419 0.155320 0.136824
H21   H     H_    0.990449 0.052581 0.788781 0.157737
H22   H     H_    0.011074 0.948235 0.211405 0.158299
H23   H     H_    0.009530 0.552382 0.210921 0.157837
H24   H     H_    0.989811 0.447751 0.788770 0.157380
O1    O     O_R   0.267710 0.668200 0.902110 -0.457792
O2    O     O_R   0.732290 0.331800 0.097890 -0.450779
O3    O     O_R   0.732290 0.168200 0.097890 -0.465248
O4    O     O_R   0.267710 0.831800 0.902110 -0.428694
O5    O     O_R   0.099480 0.674460 0.038850 -0.495762
O6    O     O_R   0.900520 0.325540 0.961150 -0.492017
O7    O     O_R   0.900520 0.174460 0.961150 -0.491454
O8    O     O_R   0.099480 0.825540 0.038850 -0.496982
O9    O     O_R   0.116720 0.669210 0.267660 -0.491130
O10   O     O_R   0.883280 0.330790 0.732340 -0.496005
O11   O     O_R   0.883280 0.169210 0.732340 -0.490707
O12   O     O_R   0.116720 0.830790 0.267660 -0.492247
O13   O     O_R   0.366710 0.675440 0.427590 -0.462353
O14   O     O_R   0.633290 0.324560 0.572410 -0.468195
O15   O     O_R   0.633290 0.175440 0.572410 -0.466539
O16   O     O_R   0.366710 0.824560 0.427590 -0.461603
O17   O     O_R   0.534870 0.669390 0.371760 -0.527787
O18   O     O_R   0.465130 0.330610 0.628240 -0.530540
O19   O     O_R   0.465130 0.169390 0.628240 -0.527115
O20   O     O_R   0.534870 0.830610 0.371760 -0.525100
O21   O     O_R   0.453080 0.674480 0.075160 -0.510905
O22   O     O_R   0.546920 0.325520 0.924840 -0.513728
O23   O     O_R   0.546920 0.174480 0.924840 -0.513954
O24   O     O_R   0.453080 0.825520 0.075160 -0.511227
O25   O     O_3   0.306390 0.750000 0.180470 -0.290767
O26   O     O_3   0.693610 0.250000 0.819530 -0.285600
C57   C     C_2   0.282614 0.629811 0.613349 0.611508
O27   O     O_2   0.377518 0.660784 0.682870 -0.500430
O28   O     O_R   0.168469 0.660938 0.595607 -0.667819
H25   H     H_    0.176156 0.708789 0.644746 0.381524
C58   C     C_2   0.705125 0.372280 0.378225 0.596746
O29   O     O_2   0.801407 0.342230 0.388066 -0.506853
O30   O     O_R   0.592237 0.340616 0.300375 -0.714797
H26   H     H_    0.602042 0.291809 0.262219 0.363731
C59   C     C_2   0.716812 0.128445 0.387326 0.602661
O31   O     O_2   0.621175 0.158294 0.316644 -0.557427
O32   O     O_R   0.830214 0.160569 0.405230 -0.666569
H27   H     H_    0.821331 0.208588 0.356408 0.370321
C60   C     C_2   0.292281 0.869530 0.621288 0.615849
O33   O     O_2   0.193937 0.839999 0.602437 -0.471859
O34   O     O_R   0.400457 0.834472 0.703698 -0.649154
H28   H     H_    0.476226 0.865860 0.731738 0.275250
C61   C     C_2   0.020380 0.077930 0.139170 0.251488
H29   H     H_    0.092561 0.117691 0.178083 0.098899
O35   O     O_2   0.948018 0.069040 0.201067 -0.523763
C62   C     C_2   0.985391 0.923347 0.862186 0.249594
H30   H     H_    0.913620 0.883423 0.822225 0.097532
O36   O     O_2   0.058650 0.932672 0.801648 -0.529303
C63   C     C_2   0.983525 0.577245 0.861542 0.250535
H31   H     H_    0.912008 0.617334 0.821753 0.099010
O37   O     O_2   0.056689 0.567788 0.800911 -0.525832
C64   C     C_2   0.016339 0.422905 0.138312 0.252063
H32   H     H_    0.088183 0.383009 0.178267 0.100833
O38   O     O_2   0.943078 0.432185 0.198877 -0.524752

loop_
_geom_bond_atom_site_label_1
_geom_bond_atom_site_label_2
_ccdc_geom_bond_type
C49   C57   S    
C4    O12   A    
C12   C29   S    
C50   C58   S    
Cr3   O13   S    
C23   C64   S    
C44   H4    S    
C7    C55   A    
C19   H24   S    
C8    C56   A    
Cr2   O6    S    
C63   H31   S    
Cr6   O19   S    
C50   C54   A    
C32   O24   A    
Cr2   O26   S    
C52   C60   S    
C5    C53   A    
Cr5   O17   S    
Cr2   O7    S    
C38   C42   A    
C5    C37   A    
C58   O30   S    
C42   C46   A    
C15   H16   S    
Cr6   O22   S    
C27   O19   A    
C15   C16   S    
C3    C18   S    
C16   H15   S    
C8    C36   A    
C9    C13   D    
C47   H7    S    
C9    C32   S    
C26   O18   A    
C11   C15   D    
C10   C31   S    
C25   O13   A    
C32   O4    A    
C20   C24   D    
C11   C30   S    
C28   O20   A    
C62   H30   S    
C31   O3    A    
C5    C33   A    
C45   H5    S    
Cr3   O25   S    
C23   C24   S    
C6    C38   A    
C40   C44   A    
C43   H3    S    
C25   C34   S    
C35   C56   A    
C1    O5    A    
C13   C14   S    
Cr3   O9    S    
C6    C54   A    
Cr5   O24   S    
Cr6   O18   S    
C11   H20   S    
C38   H10   S    
C59   O32   S    
Cr1   O4    S    
C12   C16   D    
O32   H27   S    
C44   C48   A    
C28   C35   S    
Cr4   O11   S    
C10   C14   D    
C25   O17   A    
C39   C43   A    
C27   O15   A    
C17   C21   D    
C6    C34   A    
C9    H18   S    
C19   C23   D    
C21   C62   S    
C46   H6    S    
Cr4   O26   S    
C28   O16   A    
C3    O11   A    
C26   C33   S    
C13   H14   S    
C45   C49   A    
C1    O9    A    
C20   H23   S    
C18   H21   S    
C31   O23   A    
C3    O7    A    
O30   H26   S    
C2    O6    A    
Cr5   O20   S    
C59   O31   D    
C64   O38   D    
C4    O8    A    
C4    C17   S    
Cr4   O10   S    
C24   C63   S    
Cr1   O8    S    
C37   H9    S    
C22   C61   S    
C60   O33   D    
C51   C59   S    
C41   H1    S    
C30   O2    A    
Cr4   O15   S    
Cr5   O25   S    
C42   H2    S    
C57   O27   D    
C33   C54   A    
C63   O37   D    
C1    C20   S    
C7    C39   A    
Cr1   O5    S    
C30   O22   A    
C2    C19   S    
C18   C22   D    
Cr3   O16   S    
C7    C35   A    
C48   H8    S    
Cr4   O14   S    
Cr2   O2    S    
C47   C51   A    
C10   H17   S    
C27   C36   S    
C46   C50   A    
C17   H22   S    
C14   H13   S    
C2    O10   A    
C61   H29   S    
C36   C55   A    
C58   O29   D    
O28   H25   S    
Cr1   O25   S    
Cr6   O23   S    
C52   C56   A    
C49   C53   A    
C40   H12   S    
C12   H19   S    
C51   C55   A    
C39   H11   S    
C37   C41   A    
Cr5   O21   S    
Cr2   O3    S    
C29   O1    A    
C64   H32   S    
Cr1   O1    S    
C48   C52   A    
Cr6   O26   S    
C34   C53   A    
C62   O36   D    
C60   O34   S    
Cr3   O12   S    
C41   C45   A    
C29   O21   A    
C8    C40   A    
C61   O35   D    
C21   C22   S    
C43   C47   A    
O34   H28   S    
C26   O14   A    
C57   O28   S    
