data_mof_unit_12637.cif
_audit_creation_date              2012-12-11T17:17:08-0500
_audit_creation_method            fapswitch 2.2
_symmetry_space_group_name_H-M    P1
_symmetry_Int_Tables_number       1
_space_group_crystal_system       triclinic
_cell_length_a                    6.945592
_cell_length_b                    13.375437
_cell_length_c                    14.696793
_cell_angle_alpha                 98.982264
_cell_angle_beta                  89.936765
_cell_angle_gamma                 90.189893
_cell_volume                      1348.58573775

loop_
_atom_site_label
_atom_site_type_symbol
_atom_type_description
_atom_site_fract_x
_atom_site_fract_y
_atom_site_fract_z
_atom_type_partial_charge
O1    O     O_R   0.354890 0.151580 0.148210 -0.538560
O2    O     O_R   0.645110 0.848420 0.851790 -0.538560
O3    O     O_R   0.682370 0.152980 0.336770 -0.537277
O4    O     O_R   0.317630 0.847020 0.663230 -0.537276
O5    O     O_R   0.854980 0.348430 0.351800 -0.541827
O6    O     O_R   0.145020 0.651570 0.648200 -0.541827
C1    C     C_R   0.513480 0.131520 0.366312 0.759445
C2    C     C_R   0.486520 0.868480 0.633688 0.759445
O7    O     O_R   0.684450 0.139580 0.148000 -0.538316
O8    O     O_R   0.315550 0.860420 0.852000 -0.538316
O9    O     O_R   0.857080 0.334940 0.161680 -0.538830
O10   O     O_R   0.142920 0.665060 0.838320 -0.538829
C3    C     C_R   0.515495 0.112703 0.114024 0.768486
C4    C     C_R   0.484505 0.887297 0.885976 0.768486
O11   O     O_R   0.352790 0.165070 0.338330 -0.544960
O12   O     O_R   0.647210 0.834930 0.661670 -0.544960
O13   O     O_3   0.522170 0.314120 0.254710 -0.367056
O14   O     O_3   0.477830 0.685880 0.745290 -0.367055
V1    V     V_3+5 0.796120 0.238110 0.249130 1.517088
V2    V     V_3+5 0.203880 0.761890 0.750870 1.517088
O15   O     O_R   0.186930 0.347040 0.163240 -0.515166
O16   O     O_R   0.813070 0.652960 0.836760 -0.515166
C5    C     C_R   0.018099 0.368278 0.133488 0.753487
C6    C     C_R   0.981901 0.631722 0.866512 0.753486
O17   O     O_R   0.184850 0.360440 0.352010 -0.543131
O18   O     O_R   0.815150 0.639560 0.647990 -0.543131
C7    C     C_R   0.015886 0.387305 0.385985 0.728660
C8    C     C_R   0.984114 0.612695 0.614015 0.728660
V3    V     V_3+5 0.296410 0.261900 0.250880 1.531090
V4    V     V_3+5 0.703590 0.738100 0.749120 1.531090
O19   O     O_3   0.020490 0.185890 0.245290 -0.375664
O20   O     O_3   0.979510 0.814110 0.754710 -0.375664
C9    C     C_1   0.005214 0.466901 0.466343 -0.139404
C10   C     C_1   0.994786 0.533099 0.533657 -0.139404
C11   C     C_3   0.110389 0.580640 0.026988 -0.191849
C12   C     C_3   0.889611 0.419360 0.973011 -0.191849
C13   C     C_3   0.936121 0.549312 0.082197 -0.322328
C14   C     C_3   0.063879 0.450688 0.917802 -0.322328
H1    H     H_    0.882740 0.589791 0.149127 0.180771
H2    H     H_    0.117260 0.410209 0.850873 0.180771
C15   C     C_3   0.007240 0.438136 0.062990 -0.251532
C16   C     C_3   0.992760 0.561864 0.937010 -0.251533
C17   C     C_3   0.180279 0.470332 0.008815 0.761979
C18   C     C_3   0.819721 0.529668 0.991185 0.761979
C19   C     C_3   0.318228 0.029984 0.483925 -0.288212
C20   C     C_3   0.681771 0.970016 0.516075 -0.288212
C21   C     C_3   0.392418 0.919518 0.469038 -0.180832
C22   C     C_3   0.607582 0.080482 0.530962 -0.180832
H3    H     H_    0.169027 0.054257 0.471535 0.163470
H4    H     H_    0.830973 0.945743 0.528465 0.163470
C23   C     C_3   0.495863 0.937877 0.562861 -0.226447
C24   C     C_3   0.504137 0.062123 0.437139 -0.226446
C25   C     C_3   0.424558 0.048047 0.577777 0.686361
C26   C     C_3   0.575442 0.951952 0.422223 0.686361
C27   C     C_1   0.504890 0.033110 0.033663 -0.131664
C28   C     C_1   0.495110 0.966889 0.966337 -0.131664
C29   C     C_1   0.234416 0.668644 0.056753 0.475823
N1    N     N_1   0.332226 0.738078 0.080156 -0.311239
C30   C     C_1   0.765584 0.331356 0.943246 0.475824
N2    N     N_1   0.667774 0.261921 0.919844 -0.311239
F1    F     F_    0.366375 0.437961 0.019181 -0.634067
F2    F     F_    0.633625 0.562039 0.980819 -0.634067
C31   C     C_1   0.274986 0.830455 0.433987 0.394778
N3    N     N_1   0.182252 0.760221 0.406454 -0.337695
C32   C     C_1   0.725014 0.169545 0.566013 0.394778
N4    N     N_1   0.817748 0.239779 0.593546 -0.337695
F3    F     F_    0.348024 0.098208 0.659109 -0.665382
F4    F     F_    0.651976 0.901792 0.340891 -0.665382

loop_
_geom_bond_atom_site_label_1
_geom_bond_atom_site_label_2
_ccdc_geom_bond_type
C4    C28   S    
C27   C28   T    
O13   V3    S    
O4    C2    A    
C12   C30   S    
V1    O19   S    
C7    C9    S    
O9    V1    S    
C11   C13   S    
C1    C24   S    
C14   C16   S    
O3    C1    A    
C21   C31   S    
C26   F4    S    
O12   V4    S    
C6    C16   S    
C11   C16   S    
O7    C3    A    
O5    C7    A    
O7    V1    S    
O6    C8    A    
O8    V2    S    
O3    V1    S    
O14   V4    S    
C22   C32   S    
V4    O20   S    
C11   C17   S    
C1    O11   A    
C8    C10   S    
C30   N2    T    
C2    O12   A    
C15   C17   S    
O10   V2    S    
C12   C15   S    
C16   C18   S    
C25   F3    S    
C24   C26   S    
O11   V3    S    
C19   C21   S    
O17   V3    S    
C22   C25   S    
C20   C22   S    
O8    C4    A    
C21   C23   S    
C19   C24   S    
C18   F2    S    
O15   V3    S    
C20   C23   S    
C23   C25   S    
C19   H3    S    
C20   C26   S    
O1    V3    S    
C9    C10   T    
C2    C23   S    
C21   C26   S    
O18   V4    S    
O15   C5    A    
O16   C6    A    
C12   C18   S    
O1    C3    A    
C17   F1    S    
V2    O20   S    
O10   C6    A    
O16   V4    S    
O5    V1    S    
O17   C7    A    
O6    V2    S    
C20   H4    S    
O18   C8    A    
C5    C15   S    
O2    V4    S    
C11   C29   S    
C13   C18   S    
C12   C14   S    
C14   C17   S    
V3    O19   S    
C14   H2    S    
C29   N1    T    
O9    C5    A    
O13   V1    S    
O14   V2    S    
C13   C15   S    
O2    C4    A    
C19   C25   S    
C31   N3    T    
O4    V2    S    
C22   C24   S    
C13   H1    S    
C32   N4    T    
C3    C27   S    
