data_mof_unit_11045.cif
_audit_creation_date              2013-03-05T15:43:30-0500
_audit_creation_method            fapswitch 2.2
_symmetry_space_group_name_H-M    P1
_symmetry_Int_Tables_number       1
_space_group_crystal_system       triclinic
_cell_length_a                    14.457381
_cell_length_b                    16.093009
_cell_length_c                    7.056785
_cell_angle_alpha                 89.988608
_cell_angle_beta                  80.612662
_cell_angle_gamma                 90.000607
_cell_volume                      1619.86376952

loop_
_atom_site_label
_atom_site_type_symbol
_atom_site_description
_atom_site_fract_x
_atom_site_fract_y
_atom_site_fract_z
_atom_type_partial_charge
O1    O     O_R   0.337460 0.413110 0.524760 -0.561508
O2    O     O_R   0.662540 0.913110 0.475240 -0.561475
O3    O     O_R   0.348690 0.587910 0.191230 -0.567048
O4    O     O_R   0.651310 0.087910 0.808770 -0.567026
O5    O     O_R   0.166530 0.586890 0.082470 -0.567271
O6    O     O_R   0.833470 0.086890 0.917530 -0.567180
C1    C     C_R   0.370504 0.616319 0.353494 0.824688
C2    C     C_R   0.629501 0.116317 0.646488 0.824825
O7    O     O_R   0.348700 0.413830 0.191250 -0.561997
O8    O     O_R   0.651300 0.913830 0.808750 -0.561958
O9    O     O_R   0.166530 0.411570 0.082490 -0.549082
O10   O     O_R   0.833470 0.911570 0.917510 -0.549310
C3    C     C_R   0.370909 0.385631 0.353375 0.840694
C4    C     C_R   0.629088 0.885628 0.646642 0.840676
O11   O     O_R   0.337460 0.588430 0.524740 -0.564898
O12   O     O_R   0.662540 0.088430 0.475260 -0.564913
O13   O     O_3   0.192230 0.499460 0.407330 -0.272032
O14   O     O_3   0.807770 0.999460 0.592670 -0.272228
V1    V     V_3+5 0.263080 0.500100 0.108540 1.137271
V2    V     V_3+5 0.736920 0.000100 0.891460 1.137162
O15   O     O_R   0.155290 0.412090 0.756570 -0.560894
O16   O     O_R   0.844710 0.912090 0.243430 -0.561000
C5    C     C_R   0.131512 0.385010 0.933936 0.835086
C6    C     C_R   0.868478 0.885003 0.066109 0.834902
O17   O     O_R   0.155290 0.586170 0.756550 -0.569299
O18   O     O_R   0.844710 0.086170 0.243450 -0.569255
C7    C     C_R   0.134178 0.616291 0.934123 0.812318
C8    C     C_R   0.865760 0.116330 0.065888 0.812373
V3    V     V_3+5 0.240910 0.499900 0.616030 1.132621
V4    V     V_3+5 0.759090 0.999900 0.383970 1.132463
O19   O     O_3   0.311760 0.500540 0.867100 -0.280378
O20   O     O_3   0.688240 0.000540 0.132900 -0.280334
C9    C     C_3   0.079641 0.745595 0.149635 -0.027228
C10   C     C_3   0.920289 0.245695 0.850435 -0.027074
H1    H     H_    0.147312 0.779278 0.105736 0.093268
H2    H     H_    0.852529 0.279264 0.894118 0.092338
C11   C     C_3   0.002454 0.813979 0.189398 -0.140103
C12   C     C_3   0.997335 0.314227 0.811046 -0.140427
H3    H     H_    0.035453 0.875576 0.202669 0.152864
H4    H     H_    0.964195 0.375820 0.798505 0.152944
H5    H     H_    0.956815 0.803445 0.330384 0.103445
H6    H     H_    0.042876 0.303994 0.669819 0.104199
H7    H     H_    0.942444 0.607433 0.098388 0.143070
H8    H     H_    0.057403 0.107286 0.902506 0.143074
H9    H     H_    0.847284 0.720765 0.185985 0.104511
H10   H     H_    0.152271 0.220768 0.813232 0.104684
C13   C     C_3   0.960259 0.658041 0.993658 -0.181786
C14   C     C_3   0.039623 0.158111 0.006656 -0.181738
C15   C     C_3   0.079199 0.750558 0.808674 -0.233495
C16   C     C_3   0.920572 0.250656 0.191269 -0.234157
C17   C     C_3   0.064256 0.689119 0.976147 -0.079870
C18   C     C_3   0.935639 0.189187 0.023918 -0.079796
H11   H     H_    0.070064 0.712097 0.691848 0.064908
H12   H     H_    0.929003 0.212136 0.308465 0.065228
H13   H     H_    0.152058 0.775390 0.780236 0.117572
H14   H     H_    0.847833 0.275798 0.218834 0.117640
C19   C     C_3   0.940182 0.815247 0.031030 -0.121379
C20   C     C_3   0.059776 0.315272 0.969121 -0.121397
C21   C     C_3   0.889034 0.730269 0.040549 -0.251288
C22   C     C_3   0.110876 0.230270 0.959007 -0.251254
C23   C     C_3   0.003738 0.820417 0.829215 0.304020
C24   C     C_3   0.996386 0.320236 0.171201 0.304459
H15   H     H_    0.958084 0.808617 0.718874 0.040291
H16   H     H_    0.042080 0.307943 0.281249 0.040010
H17   H     H_    0.949641 0.629646 0.855349 0.096189
H18   H     H_    0.050234 0.129999 0.145287 0.096045
H19   H     H_    0.838638 0.729243 0.936957 0.089003
H20   H     H_    0.161595 0.229168 0.061948 0.088991
H21   H     H_    0.564418 0.808922 0.355250 0.116707
H22   H     H_    0.435599 0.308906 0.644764 0.116688
H23   H     H_    0.434051 0.693813 0.645247 0.117588
H24   H     H_    0.565937 0.193833 0.354736 0.117550
C25   C     C_2   0.439606 0.684712 0.344025 -0.213859
C26   C     C_2   0.560406 0.184703 0.655947 -0.213847
C27   C     C_2   0.464665 0.717374 0.504589 -0.085517
C28   C     C_2   0.535336 0.217379 0.495394 -0.085579
H25   H     H_    0.528582 0.793754 0.796553 0.068548
H26   H     H_    0.471397 0.293779 0.203475 0.068531
C29   C     C_2   0.559272 0.817786 0.656394 -0.218160
C30   C     C_2   0.440720 0.317797 0.343632 -0.218188
C31   C     C_2   0.533823 0.785378 0.495935 -0.087902
C32   C     C_2   0.466181 0.285378 0.504079 -0.087943
H27   H     H_    0.470318 0.708769 0.203907 0.068314
H28   H     H_    0.529705 0.208746 0.796064 0.068318
C33   C     C_3   0.093197 0.704048 0.336888 -0.214503
C34   C     C_3   0.018864 0.637908 0.410898 -0.289595
H29   H     H_    0.947058 0.664329 0.433536 0.097925
H30   H     H_    0.023886 0.584714 0.312392 0.195074
H31   H     H_    0.031769 0.608639 0.545266 0.141557
H32   H     H_    0.164757 0.678446 0.331718 0.143043
H33   H     H_    0.092965 0.758042 0.432345 0.101900
C35   C     C_3   0.906933 0.204212 0.663078 -0.214622
C36   C     C_3   0.981373 0.138199 0.589088 -0.290027
H34   H     H_    0.053139 0.164745 0.566447 0.098150
H35   H     H_    0.976392 0.084974 0.687592 0.195000
H36   H     H_    0.968518 0.108968 0.454670 0.141191
H37   H     H_    0.835417 0.178533 0.668044 0.142964
H38   H     H_    0.907246 0.258267 0.567707 0.102324
N1    N     N_R   0.047688 0.901972 0.788425 0.068362
O21   O     O_R   0.037803 0.940110 0.630469 -0.399180
O22   O     O_R   0.107905 0.930622 0.890386 -0.411628
N2    N     N_R   0.952852 0.401892 0.212961 0.068432
O23   O     O_R   0.963033 0.439607 0.371235 -0.399265
O24   O     O_R   0.892797 0.431128 0.111311 -0.412108

loop_
_geom_bond_atom_site_label_1
_geom_bond_atom_site_label_2
_geom_bond_distance
_ccdc_geom_bond_type
C20   C24   1.566385 S    
C5    C20   1.520740 S    
H23   C27   1.086938 S    
C36   H34   1.109243 S    
O11   V3    2.024719 S    
O13   V3    1.732769 S    
H24   C28   1.086942 S    
V1    O19   1.734097 S    
C33   H33   1.099232 S    
C35   H38   1.099310 S    
C1    C25   1.480579 S    
C33   C34   1.541823 S    
O9    V1    2.023807 S    
C16   H12   1.056312 S    
C26   C28   1.351024 D    
C12   H6    1.113493 S    
O3    C1    1.318201 A    
H26   C30   1.086924 S    
C19   C21   1.550891 S    
C20   C22   1.550795 S    
C23   H15   1.116111 S    
O7    C3    1.318173 A    
C24   H16   1.116205 S    
C21   H19   1.113224 S    
O5    C7    1.303104 A    
O7    V1    2.008933 S    
O6    C8    1.303105 A    
O8    V2    2.009076 S    
C6    C19   1.520708 S    
C15   C17   1.528795 S    
C16   C18   1.528800 S    
O3    V1    2.026133 S    
O14   V4    1.732766 S    
V4    O20   2.186415 S    
O14   V2    2.188728 S    
O4    C2    1.318117 A    
C1    O11   1.304399 A    
C3    C30   1.480717 S    
C2    O12   1.304431 A    
C12   C20   1.545335 S    
C25   C27   1.351118 D    
C23   N1    1.466053 S    
O2    C4    1.304402 A    
O1    V3    2.005287 S    
C7    C17   1.544609 S    
C35   H37   1.108684 S    
C14   C22   1.552286 S    
C10   C35   1.521396 S    
H25   C29   1.086918 S    
O17   V3    2.010777 S    
C15   C23   1.556815 S    
C30   C32   1.351073 D    
O8    C4    1.318258 A    
C28   C32   1.476802 S    
C29   C31   1.351168 D    
C34   H29   1.109033 S    
C27   C31   1.476879 S    
C13   C17   1.570146 S    
C15   H13   1.113789 S    
O15   V3    2.027732 S    
C9    C11   1.559845 S    
N1    O21   1.300496 A    
O10   V2    2.023775 S    
C2    C26   1.480480 S    
C4    C29   1.480815 S    
N2    O24   1.301073 A    
N1    O22   1.301015 A    
O18   V4    2.010485 S    
C36   H36   1.101481 S    
O15   C5    1.316859 A    
C16   C24   1.557096 S    
O16   C6    1.316752 A    
C9    C17   1.569595 S    
O13   V1    2.188725 S    
V2    O20   1.734100 S    
H9    C21   1.113054 S    
C9    C33   1.521750 S    
O16   V4    2.028025 S    
H10   C22   1.113103 S    
C10   C12   1.559877 S    
O18   C8    1.331771 A    
C26   H28   1.086911 S    
C34   H31   1.101506 S    
C33   H32   1.108647 S    
C19   C23   1.566054 S    
O5    V1    2.004192 S    
O17   C7    1.331865 A    
O6    V2    2.004223 S    
O10   C6    1.308262 A    
C10   C18   1.569452 S    
O2    V4    2.005089 S    
C11   H3    1.110682 S    
C12   H4    1.110718 S    
C8    C18   1.544436 S    
C36   H35   1.097945 S    
H7    C13   1.101591 S    
C15   H11   1.056374 S    
O9    C5    1.308157 A    
C35   C36   1.541551 S    
C9    H1    1.117149 S    
C10   H2    1.117185 S    
C25   H27   1.086905 S    
C34   H30   1.097774 S    
C11   H5    1.113434 S    
N2    O23   1.300546 A    
H22   C32   1.086938 S    
C16   H14   1.113897 S    
H21   C31   1.086933 S    
C13   C21   1.552404 S    
O4    V2    2.025989 S    
C14   C18   1.570121 S    
O1    C3    1.304433 A    
C22   H20   1.113299 S    
V3    O19   2.186416 S    
C14   H18   1.110873 S    
O12   V4    2.024922 S    
C13   H17   1.110876 S    
C11   C19   1.545347 S    
H8    C14   1.101752 S    
C24   N2    1.466107 S    
