data_mof_unit_35995.cif
_audit_creation_date              2012-12-10T16:39:34-0500
_audit_creation_method            fapswitch 2.2
_symmetry_space_group_name_H-M    P1
_symmetry_Int_Tables_number       1
_space_group_crystal_system       triclinic
_cell_length_a                    16.92514
_cell_length_b                    16.892247
_cell_length_c                    16.891975
_cell_angle_alpha                 67.42672
_cell_angle_beta                  67.35675
_cell_angle_gamma                 67.360169
_cell_volume                      3953.18061999

loop_
_atom_site_label
_atom_site_type_symbol
_atom_type_description
_atom_site_fract_x
_atom_site_fract_y
_atom_site_fract_z
_atom_type_partial_charge
C1    C     C_R   0.326376 0.946789 0.458981 -0.005087
C2    C     C_R   0.326356 0.458936 0.946888 -0.005099
C3    C     C_R   0.544647 0.418504 0.981878 0.028640
C4    C     C_R   0.038491 0.448068 0.577537 0.029401
C5    C     C_R   0.011580 0.536767 0.407323 0.028380
C6    C     C_1   0.251160 0.027008 0.253060 0.287130
C7    C     C_1   0.730528 0.069616 0.730769 0.342431
C8    C     C_1   0.933709 0.269437 0.269441 0.340568
C9    C     C_1   0.958163 0.745613 0.745621 0.264774
C10   C     C_1   0.251138 0.253023 0.026804 0.287527
C11   C     C_1   0.730545 0.730787 0.069577 0.342487
C12   C     C_1   0.388102 0.126638 0.758343 0.193986
C13   C     C_R   0.065618 0.669868 0.539613 -0.008874
C14   C     C_1   0.602193 0.864144 0.255698 0.199173
C15   C     C_1   0.139050 0.758277 0.390589 0.193101
C16   C     C_1   0.883482 0.251064 0.607976 0.200365
C17   C     C_1   0.748578 0.393122 0.126686 0.198900
C18   C     C_1   0.242545 0.610274 0.871688 0.195351
C19   C     C_1   0.242396 0.871732 0.610362 0.195339
C20   C     C_1   0.748587 0.126645 0.393105 0.198904
C21   C     C_1   0.602183 0.255712 0.864188 0.199185
C22   C     C_1   0.388097 0.758343 0.126671 0.193974
C23   C     C_1   0.883467 0.607972 0.251064 0.200353
C24   C     C_R   0.958689 0.324796 0.454737 0.002706
C25   C     C_1   0.139061 0.390606 0.758262 0.193117
C26   C     C_R   0.458516 0.971415 0.461832 -0.048799
C27   C     C_R   0.541567 0.021708 0.544573 -0.050693
C28   C     C_R   0.997835 0.451669 0.451664 -0.050420
C29   C     C_R   0.048916 0.534393 0.534384 -0.048446
C30   C     C_R   0.458486 0.461795 0.971516 -0.048807
C31   C     C_R   0.541542 0.544553 0.021778 -0.050691
C32   C     C_R   0.966252 0.178929 0.436721 0.891819
C33   C     C_R   0.672215 0.051775 0.544221 0.001268
C34   C     C_R   0.032672 0.821381 0.563668 0.906134
C35   C     C_R   0.178276 0.436396 0.967801 0.905055
C36   C     C_R   0.820864 0.563298 0.034772 0.892271
C37   C     C_R   0.435549 0.969239 0.178515 0.894280
C38   C     C_R   0.562363 0.036359 0.821164 0.902148
C39   C     C_R   0.562361 0.821165 0.036360 0.902139
C40   C     C_R   0.435548 0.178511 0.969246 0.894261
C41   C     C_R   0.032675 0.563668 0.821380 0.906167
C42   C     C_R   0.966245 0.436724 0.178929 0.891809
C43   C     C_R   0.820865 0.034773 0.563298 0.892292
C44   C     C_R   0.958678 0.454741 0.324799 0.002709
C45   C     C_R   0.178279 0.967780 0.436406 0.905056
C46   C     C_R   0.413260 0.956138 0.416397 0.039238
C47   C     C_R   0.585063 0.042748 0.587720 0.038763
C48   C     C_R   0.972871 0.409831 0.409828 0.035417
C49   C     C_R   0.060647 0.581061 0.581054 0.043150
C50   C     C_R   0.413234 0.416357 0.956237 0.039226
C51   C     C_R   0.585046 0.587712 0.042793 0.038781
C52   C     C_R   0.273905 0.958232 0.403555 -0.152455
C53   C     C_R   0.722131 0.055654 0.594060 -0.163750
C54   C     C_R   0.949309 0.405900 0.276911 -0.159375
C55   C     C_R   0.065624 0.539619 0.669860 -0.008874
C56   C     C_R   0.045935 0.596063 0.724524 -0.155732
C57   C     C_R   0.401647 0.274874 0.960016 -0.153823
C58   C     C_R   0.592070 0.722770 0.058466 -0.162345
C59   C     C_R   0.592071 0.058463 0.722766 -0.162346
C60   C     C_R   0.401657 0.959986 0.274890 -0.153850
C61   C     C_R   0.722128 0.594067 0.055659 -0.163766
C62   C     C_R   0.273894 0.403528 0.958278 -0.152440
C63   C     C_R   0.045933 0.724527 0.596061 -0.155733
C64   C     C_R   0.949318 0.276907 0.405899 -0.159385
C65   C     C_R   0.447272 0.064778 0.705777 -0.042274
C66   C     C_R   0.455492 0.328500 0.948886 -0.007477
C67   C     C_R   0.548973 0.934697 0.297764 -0.038426
C68   C     C_R   0.081139 0.700952 0.445171 -0.047100
C69   C     C_R   0.953371 0.292041 0.547275 -0.037110
C70   C     C_R   0.705074 0.451675 0.058262 -0.038322
C71   C     C_R   0.295134 0.553297 0.933733 -0.043994
C72   C     C_R   0.295155 0.933632 0.553350 -0.044093
C73   C     C_R   0.705100 0.058210 0.451671 -0.038295
C74   C     C_R   0.548955 0.297752 0.934761 -0.038429
C75   C     C_R   0.447260 0.705766 0.064820 -0.042290
C76   C     C_R   0.953349 0.547282 0.292048 -0.037109
C77   C     C_R   0.540771 0.673313 0.056070 0.003534
C78   C     C_R   0.081154 0.445178 0.700939 -0.047108
C79   C     C_R   0.309899 0.978015 0.311158 -0.117375
C80   C     C_R   0.679780 0.064657 0.680704 -0.134192
C81   C     C_R   0.940281 0.319443 0.319446 -0.142730
C82   C     C_R   0.022021 0.688437 0.688437 -0.098688
C83   C     C_R   0.309888 0.311136 0.978000 -0.117599
C84   C     C_R   0.679786 0.680715 0.064643 -0.134149
C85   C     C_R   0.669337 0.024091 0.413287 0.056837
C86   C     C_R   0.332234 0.964555 0.594002 0.060181
C87   C     C_R   0.055228 0.402541 0.661374 0.062578
C88   C     C_R   0.540782 0.056041 0.673317 0.003545
C89   C     C_R   0.991709 0.584017 0.325422 0.055701
C90   C     C_R   0.408626 0.670408 0.030110 0.059287
C91   C     C_R   0.590612 0.335498 0.963418 0.058324
C92   C     C_R   0.590636 0.963341 0.335514 0.058331
C93   C     C_R   0.408648 0.030041 0.670436 0.059288
C94   C     C_R   0.332205 0.593950 0.964658 0.060141
C95   C     C_R   0.669311 0.413280 0.024156 0.056854
C96   C     C_R   0.991738 0.325416 0.584003 0.055699
C97   C     C_R   0.055205 0.661391 0.402539 0.062580
C98   C     C_R   0.714048 0.008065 0.328943 -0.191776
C99   C     C_R   0.455512 0.948814 0.328525 -0.007508
C100  C     C_R   0.288080 0.979008 0.678994 -0.194956
C101  C     C_R   0.042215 0.317004 0.704943 -0.193531
C102  C     C_R   0.007437 0.668391 0.280570 -0.193501
C103  C     C_R   0.324039 0.714958 0.014915 -0.194113
C104  C     C_R   0.676630 0.292143 0.974634 -0.191567
C105  C     C_R   0.676651 0.974569 0.292149 -0.191565
C106  C     C_R   0.324062 0.014840 0.714998 -0.194121
C107  C     C_R   0.288055 0.678942 0.979097 -0.194939
C108  C     C_R   0.714026 0.328941 0.008126 -0.191761
C109  C     C_R   0.007479 0.280559 0.668370 -0.193497
C110  C     C_R   0.672199 0.544222 0.051811 0.001257
C111  C     C_R   0.042176 0.704967 0.317010 -0.193532
C112  C     C_R   0.544676 0.981790 0.418530 0.028639
C113  C     C_R   0.455659 0.010205 0.588278 0.029066
C114  C     C_R   0.011594 0.407324 0.536756 0.028377
C115  C     C_R   0.038478 0.577549 0.448064 0.029399
C116  C     C_R   0.415050 0.547721 0.982978 0.029784
C117  C     C_R   0.585888 0.459510 0.007617 0.028216
C118  C     C_R   0.585916 0.007540 0.459529 0.028222
C119  C     C_R   0.415081 0.982877 0.547763 0.029792
C120  C     C_R   0.455632 0.588246 0.010287 0.029073
H1    H     H_    0.286824 0.027717 0.779302 0.144652
H2    H     H_    0.286806 0.779264 0.027782 0.144653
H3    H     H_    0.994319 0.705536 0.216405 0.145298
H4    H     H_    0.053645 0.280409 0.769867 0.146376
H5    H     H_    0.713248 0.961511 0.227819 0.147976
H6    H     H_    0.053598 0.769894 0.280419 0.146368
H7    H     H_    0.994372 0.216388 0.705511 0.145298
H8    H     H_    0.779120 0.292560 0.019050 0.146830
H9    H     H_    0.223598 0.715883 0.966825 0.144790
H10   H     H_    0.223619 0.966743 0.715942 0.144796
H11   H     H_    0.779135 0.019007 0.292549 0.146825
H12   H     H_    0.713232 0.227821 0.961564 0.147975
N1    N     N_1   0.203143 0.064309 0.208543 -0.168652
N2    N     N_1   0.826323 0.220079 0.656437 -0.190683
N3    N     N_1   0.781302 0.346631 0.183113 -0.190611
N4    N     N_1   0.200986 0.655885 0.821834 -0.178977
N5    N     N_1   0.200657 0.822032 0.656027 -0.178833
N6    N     N_1   0.781283 0.183089 0.346612 -0.190621
N7    N     N_1   0.643954 0.224632 0.805613 -0.195461
N8    N     N_1   0.340801 0.800032 0.176169 -0.180847
N9    N     N_1   0.826313 0.656421 0.220074 -0.190689
N10   N     N_1   0.185820 0.346759 0.803479 -0.177222
N11   N     N_1   0.771945 0.069427 0.771838 -0.165105
N12   N     N_1   0.933367 0.228287 0.228285 -0.158577
N13   N     N_1   0.907306 0.790782 0.790798 -0.185310
N14   N     N_1   0.203121 0.208488 0.063938 -0.168523
N15   N     N_1   0.771969 0.771858 0.069375 -0.165132
N16   N     N_1   0.340800 0.176144 0.800023 -0.180877
N17   N     N_1   0.643956 0.805584 0.224598 -0.195471
N18   N     N_1   0.185813 0.803494 0.346736 -0.177204
O1    O     O_R   0.982940 0.138950 0.510160 -0.630627
O2    O     O_R   0.982940 0.510160 0.138950 -0.630629
O3    O     O_R   0.861050 0.017060 0.489840 -0.628036
O4    O     O_R   0.138950 0.982940 0.510160 -0.634112
O5    O     O_R   0.867700 0.025880 0.612340 -0.621419
O6    O     O_R   0.132300 0.974120 0.387660 -0.613435
O7    O     O_R   0.025880 0.612340 0.867700 -0.610718
O8    O     O_R   0.974120 0.387660 0.132300 -0.621986
O9    O     O_R   0.612340 0.867700 0.025880 -0.621263
O10   O     O_R   0.387660 0.132300 0.974120 -0.615609
O11   O     O_R   0.387660 0.974120 0.132300 -0.615548
O12   O     O_R   0.017060 0.861050 0.489840 -0.631994
O13   O     O_R   0.612340 0.025880 0.867700 -0.621253
O14   O     O_R   0.132300 0.387660 0.974120 -0.613506
O15   O     O_R   0.867700 0.612340 0.025880 -0.621423
O16   O     O_R   0.974120 0.132300 0.387660 -0.621980
O17   O     O_R   0.025880 0.867700 0.612340 -0.610697
O18   O     O_R   0.138950 0.510160 0.982940 -0.634099
O19   O     O_R   0.861050 0.489840 0.017060 -0.628020
O20   O     O_R   0.510160 0.982940 0.138950 -0.633649
O21   O     O_R   0.489840 0.017060 0.861050 -0.626540
O22   O     O_R   0.489840 0.861050 0.017060 -0.626537
O23   O     O_R   0.510160 0.138950 0.982940 -0.633639
O24   O     O_R   0.017060 0.489840 0.861050 -0.631980
Zn1   Zn    Zn3+2 0.004880 0.004880 0.583590 0.990850
Zn2   Zn    Zn3+2 0.995120 0.995120 0.416410 0.992143
Zn3   Zn    Zn3+2 0.004880 0.583590 0.004880 0.990830
Zn4   Zn    Zn3+2 0.995120 0.416410 0.995120 0.992134
Zn5   Zn    Zn3+2 0.583590 0.004880 0.004880 0.987790
Zn6   Zn    Zn3+2 0.416410 0.995120 0.995120 0.993349

loop_
_geom_bond_atom_site_label_1
_geom_bond_atom_site_label_2
_ccdc_geom_bond_type
C78   C87   A    
C44   C48   A    
C62   C83   A    
C60   C79   A    
C32   O16   A    
C89   C102  A    
O15   Zn3   S    
C25   N10   T    
C91   C104  A    
C107  H9    S    
C60   C99   A    
C16   N2    T    
C7    N11   T    
C102  C111  A    
C38   O21   A    
C71   C94   A    
C29   C49   A    
C95   C117  A    
O3    Zn2   S    
C36   O19   A    
C98   C105  A    
O4    Zn1   S    
C4    C114  A    
C35   C62   S    
C6    N1    T    
C40   O23   A    
C97   C111  A    
C100  H10   S    
C1    C46   A    
O12   Zn2   S    
O22   Zn6   S    
O23   Zn5   S    
O5    Zn1   S    
O18   Zn3   S    
C66   C74   A    
C22   N8    T    
C10   C83   S    
C14   N17   T    
C3    C91   A    
C20   N6    T    
O2    Zn3   S    
C44   C76   A    
C59   C88   A    
O10   Zn6   S    
C85   C98   A    
C70   C110  A    
C58   C77   A    
C87   C101  A    
C43   C53   S    
C31   C117  A    
C98   H11   S    
C17   N3    T    
C14   C67   S    
C57   C83   A    
C18   N4    T    
C86   C119  A    
C97   C115  A    
C52   C79   A    
C86   C100  A    
C116  C120  A    
O24   Zn4   S    
C4    C29   A    
C75   C90   A    
C67   C99   A    
C9    C82   S    
C69   C96   A    
C65   C93   A    
C29   C115  A    
C101  C109  A    
C17   C70   S    
C24   C64   A    
C113  C119  A    
C102  H3    S    
C5    C115  A    
C96   C114  A    
C19   C72   S    
C42   O8    A    
C22   C75   S    
C43   O5    A    
C61   C110  A    
C7    C80   S    
C41   O24   A    
C109  H7    S    
C24   C69   A    
C33   C53   A    
C90   C103  A    
C34   C63   S    
C94   C107  A    
C1    C72   A    
O1    Zn1   S    
C63   C82   A    
C8    C81   S    
C101  H4    S    
C53   C80   A    
C26   C119  A    
C32   C64   S    
O9    Zn5   S    
C37   O20   A    
C4    C87   A    
C55   C78   A    
C94   C116  A    
C68   C97   A    
C30   C116  A    
C45   C52   S    
C49   C55   A    
C39   C58   S    
C21   C74   S    
C25   C78   S    
C24   C48   A    
C74   C91   A    
C3    C30   A    
C51   C77   A    
C41   C56   S    
C39   O22   A    
C58   C84   A    
C93   C106  A    
C5    C28   A    
C75   C77   A    
C13   C63   A    
C19   N5    T    
C111  H6    S    
C35   O18   A    
C8    N12   T    
C45   O6    A    
O7    Zn3   S    
C108  H8    S    
O11   Zn6   S    
C50   C66   A    
C73   C85   A    
C28   C114  A    
C10   N14   T    
C41   O7    A    
C27   C113  A    
C33   C73   A    
C38   O13   A    
C51   C110  A    
C2    C50   A    
O13   Zn5   S    
C33   C47   A    
C13   C49   A    
O21   Zn6   S    
C21   N7    T    
C2    C71   A    
C26   C112  A    
O19   Zn4   S    
C104  C108  A    
O14   Zn4   S    
C65   C88   A    
C37   O11   A    
C96   C109  A    
C27   C118  A    
C27   C47   A    
C18   C71   S    
C28   C48   A    
C40   C57   S    
C39   O9    A    
C67   C92   A    
C100  C106  A    
C40   O10   A    
C92   C112  A    
C16   C69   S    
C31   C51   A    
C34   O12   A    
C61   C84   A    
O6    Zn2   S    
C59   C80   A    
C72   C86   A    
C56   C82   A    
C11   C84   S    
C12   C65   S    
C76   C89   A    
O16   Zn2   S    
C35   O14   A    
C105  H5    S    
O20   Zn5   S    
C47   C88   A    
C12   N16   T    
C46   C99   A    
C70   C95   A    
O8    Zn4   S    
C57   C66   A    
C42   C54   S    
C112  C118  A    
C11   N15   T    
C6    C79   S    
C32   O1    A    
C15   C68   S    
C106  H1    S    
C9    N13   T    
C36   O15   A    
C20   C73   S    
C93   C113  A    
O17   Zn1   S    
C15   N18   T    
C30   C50   A    
C85   C118  A    
C1    C52   A    
C31   C120  A    
C37   C60   S    
C95   C108  A    
C26   C46   A    
C55   C56   A    
C38   C59   S    
C64   C81   A    
C44   C54   A    
C92   C105  A    
C104  H12   S    
C23   C76   S    
C34   O17   A    
C23   N9    T    
C103  C107  A    
C45   O4    A    
C3    C117  A    
C43   O3    A    
C103  H2    S    
C2    C62   A    
C54   C81   A    
C5    C89   A    
C36   C61   S    
C90   C120  A    
C42   O2    A    
C13   C68   A    
