data_mof_unit_24254.cif
_audit_creation_date              2012-10-26T20:32:27-0400
_audit_creation_method            fapswitch 2.2
_symmetry_space_group_name_H-M    P1
_symmetry_Int_Tables_number       1
_space_group_crystal_system       triclinic
_cell_length_a                    19.398056
_cell_length_b                    10.858561
_cell_length_c                    9.529214
_cell_angle_alpha                 91.04753
_cell_angle_beta                  90.099483
_cell_angle_gamma                 90.918075
_cell_volume                      2006.58853436

loop_
_atom_site_label
_atom_site_type_symbol
_atom_type_description
_atom_site_fract_x
_atom_site_fract_y
_atom_site_fract_z
_atom_type_partial_charge
C1    C     C_R   0.497846 0.262443 0.498800 0.545410
C2    C     C_R   0.853878 0.487755 0.503131 0.002264
C3    C     C_R   0.481907 0.067175 0.621939 0.016842
C4    C     C_R   0.367423 0.501409 0.499863 0.564990
C5    C     C_R   0.489362 0.129759 0.496591 0.009140
C6    C     C_R   0.486434 0.062017 0.369768 -0.155753
C7    C     C_R   0.486896 0.933459 0.371675 -0.159874
C8    C     C_R   0.490805 0.871465 0.500227 0.007339
C9    C     C_R   0.482470 0.940374 0.624367 0.017181
C10   C     C_3   0.522205 0.943059 0.759018 -0.273866
C11   C     C_3   0.521150 0.082212 0.755575 -0.252428
C12   C     C_R   0.291408 0.503964 0.500443 -0.023569
C13   C     C_R   0.554526 0.549844 0.075145 0.166663
C14   C     C_R   0.449592 0.440418 0.073012 -0.016814
C15   C     C_R   0.449305 0.441192 0.924090 -0.022543
C16   C     C_R   0.498483 0.738073 0.500815 0.544415
C17   C     C_R   0.555478 0.545961 0.927115 0.155223
C18   C     C_3   0.582604 0.673539 0.918277 -0.228423
C19   C     C_3   0.577083 0.682438 0.077197 -0.120035
C20   C     C_R   0.632453 0.493307 0.500496 0.526205
C21   C     C_R   0.256391 0.489702 0.627907 -0.172594
C22   C     C_R   0.184205 0.487659 0.633477 0.261630
C23   C     C_R   0.929854 0.492704 0.504596 0.341209
C24   C     C_R   0.146037 0.504280 0.509046 0.000565
C25   C     C_R   0.181234 0.521255 0.381948 -0.161192
C26   C     C_R   0.253325 0.523382 0.376808 0.235171
C27   C     C_2   0.643470 0.706680 0.155438 0.230438
C28   C     C_3   0.164400 0.369941 0.829901 -0.005602
C29   C     C_3   0.195390 0.396969 0.974336 -0.355644
C30   C     C_3   0.281544 0.664107 0.210915 -0.004510
C31   C     C_3   0.333947 0.691089 0.096392 -0.360495
C32   C     C_2   0.710720 0.395148 0.749737 0.240608
C33   C     C_R   0.069765 0.501734 0.508555 0.365350
C34   C     C_R   0.817528 0.452108 0.623165 -0.074226
C35   C     C_R   0.745268 0.446524 0.624074 0.006203
C36   C     C_R   0.708459 0.482749 0.502624 -0.032305
C37   C     C_R   0.745558 0.512903 0.381238 -0.127165
C38   C     C_R   0.817247 0.516225 0.381565 -0.099427
Cu1   Cu    Cu3+1 0.500000 0.499980 0.640670 0.923295
Cu2   Cu    Cu3+1 0.500000 0.500020 0.359330 0.948607
H1    H     H_    0.285051 0.480184 0.724568 0.132568
H2    H     H_    0.545187 0.730960 0.864813 0.126400
H3    H     H_    0.535370 0.744710 0.112019 0.089981
H4    H     H_    0.152871 0.532482 0.285240 0.141467
H5    H     H_    0.845600 0.425737 0.716012 0.185639
H6    H     H_    0.719216 0.535048 0.285334 0.171641
H7    H     H_    0.843888 0.541518 0.286309 0.171904
H8    H     H_    0.487601 0.107629 0.269640 0.136418
H9    H     H_    0.642746 0.709224 0.269201 0.128625
H10   H     H_    0.198706 0.305695 0.770893 0.104800
H11   H     H_    0.114472 0.320261 0.844089 0.176561
H12   H     H_    0.487605 0.883692 0.272456 0.122790
H13   H     H_    0.160841 0.457875 0.035921 0.181558
H14   H     H_    0.201887 0.309661 0.031408 0.111109
H15   H     H_    0.246548 0.442999 0.963969 0.155498
H16   H     H_    0.292760 0.728671 0.300918 0.129943
H17   H     H_    0.229130 0.682010 0.169158 0.138681
H18   H     H_    0.328514 0.787373 0.061196 0.094412
H19   H     H_    0.387013 0.679721 0.137534 0.172483
H20   H     H_    0.325570 0.627544 0.005116 0.151437
H21   H     H_    0.661491 0.347006 0.740519 0.129638
H22   H     H_    0.491019 0.906996 0.847431 0.126512
H23   H     H_    0.575028 0.906004 0.746879 0.146666
H24   H     H_    0.489583 0.124175 0.840612 0.138028
H25   H     H_    0.573059 0.125048 0.740934 0.148163
H26   H     H_    0.408117 0.394159 0.127709 0.147581
H27   H     H_    0.407537 0.395695 0.867281 0.114016
H28   H     H_    0.635492 0.675955 0.873667 0.192850
N1    N     N_R   0.034210 0.538622 0.394256 -0.238211
N2    N     N_R   0.965646 0.534297 0.392310 -0.215248
N3    N     N_R   0.965353 0.455724 0.618711 -0.225805
N4    N     N_R   0.033848 0.459921 0.620470 -0.156400
N5    N     N_R   0.500440 0.500930 0.147930 -0.252396
N6    N     N_R   0.500440 0.500890 0.852020 -0.241394
O1    O     O_R   0.500000 0.319640 0.618810 -0.508364
O2    O     O_3   0.151080 0.482283 0.762116 -0.529161
O3    O     O_3   0.286475 0.539551 0.249764 -0.556070
O4    O     O_2   0.737855 0.403491 0.865354 -0.493672
O5    O     O_R   0.500010 0.319680 0.381230 -0.503694
O6    O     O_R   0.400140 0.499970 0.618830 -0.524362
O7    O     O_R   0.400150 0.500010 0.381250 -0.450267
O8    O     O_R   0.499990 0.680320 0.618770 -0.499520
O9    O     O_R   0.500000 0.680360 0.381190 -0.526032
O10   O     O_R   0.599850 0.499990 0.618750 -0.511078
O11   O     O_R   0.599860 0.500030 0.381170 -0.504965
O12   O     O_2   0.697602 0.727409 0.094353 -0.493017

loop_
_geom_bond_atom_site_label_1
_geom_bond_atom_site_label_2
_ccdc_geom_bond_type
Cu2   O11   S    
C10   H23   S    
Cu2   O9    S    
C22   O2    S    
C7    C8    A    
C6    H8    S    
C1    C5    S    
C31   H18   S    
C28   C29   S    
C32   H21   S    
C4    O6    A    
C18   H2    S    
C5    C6    A    
C28   H11   S    
C29   H14   S    
C18   H28   S    
C30   H17   S    
Cu1   O10   S    
Cu2   N5    S    
C34   C35   A    
Cu1   N6    S    
C31   H19   S    
C33   N4    A    
C30   O3    S    
C28   H10   S    
C4    O7    A    
C35   C36   A    
C8    C9    A    
Cu1   O1    S    
C4    C12   S    
C19   C27   S    
C9    C10   S    
C33   N1    A    
C2    C34   A    
C8    C16   S    
C21   C22   A    
C23   N2    A    
C10   H22   S    
C25   H4    S    
C19   H3    S    
C26   O3    S    
C13   C19   S    
C1    O1    A    
C32   C35   S    
C23   N3    A    
C24   C25   A    
C11   H24   S    
Cu1   Cu2   S    
C18   C19   S    
C29   H15   S    
C25   C26   A    
C30   H16   S    
C12   C21   A    
C16   O9    A    
C12   C26   A    
C31   H20   S    
C27   O12   D    
C14   N5    A    
C37   C38   A    
C3    C9    A    
C2    C38   A    
C15   H27   S    
C20   O11   A    
C16   O8    A    
C17   C18   S    
C14   H26   S    
Cu2   O5    S    
C34   H5    S    
C38   H7    S    
C21   H1    S    
C13   N5    A    
C20   O10   A    
C17   N6    A    
C1    O5    A    
C22   C24   A    
C28   O2    S    
C36   C37   A    
Cu2   O7    S    
Cu1   O8    S    
C3    C5    A    
C7    H12   S    
C6    C7    A    
C24   C33   S    
C13   C17   A    
Cu1   O6    S    
N3    N4    A    
C30   C31   S    
C29   H13   S    
N1    N2    A    
C3    C11   S    
C10   C11   S    
C32   O4    D    
C20   C36   S    
C27   H9    S    
C15   N6    A    
C2    C23   S    
C14   C15   A    
C37   H6    S    
C11   H25   S    
