data_mof_unit_58048.cif
_audit_creation_date              2012-12-10T16:37:31-0500
_audit_creation_method            fapswitch 2.2
_symmetry_space_group_name_H-M    P1
_symmetry_Int_Tables_number       1
_space_group_crystal_system       triclinic
_cell_length_a                    10.878059
_cell_length_b                    10.877812
_cell_length_c                    15.425458
_cell_angle_alpha                 95.478775
_cell_angle_beta                  75.175405
_cell_angle_gamma                 98.397602
_cell_volume                      1742.3853011

loop_
_atom_site_label
_atom_site_type_symbol
_atom_type_description
_atom_site_fract_x
_atom_site_fract_y
_atom_site_fract_z
_atom_type_partial_charge
C1    C     C_R   0.159563 0.476859 0.520731 0.518497
C2    C     C_R   0.512560 0.464501 0.115433 -0.152238
C3    C     C_R   0.690116 0.353614 0.118384 0.017626
C4    C     C_R   0.842939 0.523081 0.481234 0.516972
C5    C     C_R   0.439846 0.581342 0.840774 -0.008897
C6    C     C_2   0.980578 0.538306 0.479013 -0.007280
C7    C     C_2   0.024514 0.462829 0.527537 0.017996
C8    C     C_2   0.535351 0.968606 0.469442 -0.007246
C9    C     C_2   0.456472 0.038034 0.532949 0.017803
C10   C     C_R   0.468161 0.168835 0.521683 0.519350
C11   C     C_R   0.529215 0.834105 0.479434 0.519660
C12   C     C_R   0.276926 0.606738 0.980379 0.046233
C13   C     C_R   0.556032 0.444975 0.259022 0.501732
C14   C     C_R   0.453384 0.558957 0.741605 0.491337
C15   C     C_R   0.727017 0.346782 0.022893 0.019221
C16   C     C_R   0.585807 0.417679 0.162664 0.032560
C17   C     C_R   0.344242 0.650743 0.894714 0.009697
C18   C     C_3   0.761462 0.294646 0.173750 -0.268959
C19   C     C_3   0.861449 0.387562 0.207697 -0.428985
C20   C     C_3   0.944162 0.352960 0.579767 -0.265947
C21   C     C_3   0.018894 0.270012 0.617064 -0.456055
C22   C     C_3   0.627886 0.033767 0.388402 -0.285453
C23   C     C_R   0.326447 0.512898 0.015306 0.027045
C24   C     C_3   0.713810 0.955722 0.316834 -0.419046
C25   C     C_3   0.363899 0.990916 0.619928 -0.266006
C26   C     C_3   0.296461 0.090469 0.684514 -0.455173
C27   C     C_3   0.736578 0.280788 0.819373 -0.301549
C28   C     C_3   0.659413 0.219125 0.753002 -0.429104
C29   C     C_3   0.866357 0.328480 0.976914 -0.266327
C30   C     C_3   0.891636 0.191761 0.961770 -0.459199
C31   C     C_3   0.319099 0.770260 0.861199 -0.261093
C32   C     C_3   0.350987 0.885653 0.920309 -0.459158
C33   C     C_3   0.237249 0.419940 0.079323 -0.273023
C34   C     C_R   0.455717 0.491380 0.976026 0.022142
C35   C     C_3   0.228930 0.288821 0.033931 -0.440194
C36   C     C_3   0.151492 0.654230 0.031675 -0.264916
C37   C     C_3   0.159283 0.713906 0.124405 -0.450774
C38   C     C_3   0.076795 0.638210 0.423692 -0.282889
C39   C     C_3   0.025789 0.724685 0.372380 -0.425601
C40   C     C_R   0.508071 0.516266 0.885146 -0.014845
C41   C     C_R   0.533592 0.442791 0.022784 -0.002939
C42   C     C_R   0.643891 0.386389 0.974768 0.033409
C43   C     C_R   0.671619 0.382816 0.880004 -0.000373
C44   C     C_R   0.623826 0.469582 0.840712 -0.101718
H1    H     H_    0.899035 0.465709 0.163015 0.145023
H2    H     H_    0.892761 0.291120 0.535199 0.164836
H3    H     H_    0.783359 0.917962 0.345510 0.173721
H4    H     H_    0.655324 0.879905 0.286250 0.175855
H5    H     H_    0.769964 0.016061 0.262413 0.110204
H6    H     H_    0.570231 0.077467 0.352746 0.152647
H7    H     H_    0.692121 0.109564 0.414150 0.137859
H8    H     H_    0.367328 0.159643 0.709290 0.167676
H9    H     H_    0.239577 0.138431 0.650930 0.147346
H10   H     H_    0.230082 0.045541 0.743503 0.123867
H11   H     H_    0.286598 0.922114 0.602328 0.172700
H12   H     H_    0.819424 0.426247 0.276175 0.185742
H13   H     H_    0.417640 0.946557 0.658194 0.159393
H14   H     H_    0.559622 0.186166 0.789388 0.152586
H15   H     H_    0.657441 0.284865 0.702878 0.201305
H16   H     H_    0.704492 0.137818 0.716223 0.127473
H17   H     H_    0.833745 0.319157 0.782326 0.132714
H18   H     H_    0.743472 0.204721 0.859498 0.166903
H19   H     H_    0.956561 0.173192 0.002723 0.134315
H20   H     H_    0.801417 0.126809 0.979737 0.148179
H21   H     H_    0.940132 0.171345 0.890258 0.131247
H22   H     H_    0.900020 0.375305 0.912877 0.135854
H23   H     H_    0.942722 0.339228 0.211834 0.119540
H24   H     H_    0.930646 0.379015 0.017458 0.143030
H25   H     H_    0.443173 0.524983 0.151601 0.101561
H26   H     H_    0.279952 0.889671 0.985795 0.152938
H27   H     H_    0.447996 0.887071 0.931730 0.154353
H28   H     H_    0.350162 0.970797 0.886071 0.128259
H29   H     H_    0.382442 0.789319 0.794082 0.171397
H30   H     H_    0.219110 0.763017 0.854433 0.137798
H31   H     H_    0.157615 0.224984 0.079427 0.127867
H32   H     H_    0.198124 0.289337 0.970620 0.151092
H33   H     H_    0.323028 0.252798 0.018640 0.161829
H34   H     H_    0.691997 0.250760 0.232018 0.130116
H35   H     H_    0.266082 0.416933 0.142571 0.141718
H36   H     H_    0.138222 0.443021 0.101047 0.136236
H37   H     H_    0.070276 0.756161 0.156163 0.131158
H38   H     H_    0.242358 0.787807 0.118705 0.151786
H39   H     H_    0.169294 0.643964 0.169112 0.142999
H40   H     H_    0.122642 0.723507 0.995358 0.141382
H41   H     H_    0.070936 0.577845 0.038263 0.119759
H42   H     H_    0.675755 0.492871 0.773672 0.150129
H43   H     H_    0.987091 0.671490 0.317996 0.172975
H44   H     H_    0.952140 0.776510 0.418808 0.172045
H45   H     H_    0.808329 0.216138 0.135156 0.144601
H46   H     H_    0.105907 0.794082 0.340198 0.119615
H47   H     H_    0.125519 0.699651 0.469918 0.157637
H48   H     H_    0.151034 0.590894 0.373807 0.135691
H49   H     H_    0.086581 0.223550 0.561675 0.176911
H50   H     H_    0.071888 0.325421 0.663431 0.143220
H51   H     H_    0.951132 0.195819 0.654927 0.123974
H52   H     H_    0.874311 0.390707 0.638222 0.162915
O1    O     O_3   0.500000 0.500000 0.500000 -0.419486
O2    O     O_R   0.463530 0.379110 0.309170 -0.546768
O3    O     O_R   0.388210 0.611730 0.699360 -0.550495
O4    O     O_R   0.624720 0.532760 0.292120 -0.551458
O5    O     O_R   0.523540 0.476390 0.699360 -0.565074
O6    O     O_R   0.537910 0.240570 0.564270 -0.561914
O7    O     O_R   0.438950 0.782540 0.540270 -0.569762
O8    O     O_R   0.222350 0.398740 0.468260 -0.545579
O9    O     O_R   0.800790 0.578160 0.427210 -0.552975
O10   O     O_R   0.212140 0.566330 0.564260 -0.552387
O11   O     O_R   0.764730 0.456770 0.540270 -0.575632
O12   O     O_R   0.412790 0.208310 0.468260 -0.549876
O13   O     O_R   0.610350 0.768590 0.427210 -0.544374
Zn1   Zn    Zn3+2 0.580150 0.419820 0.574680 0.876507
Zn2   Zn    Zn3+2 0.401380 0.373730 0.437510 0.907880
Zn3   Zn    Zn3+2 0.631680 0.593260 0.413140 0.894599
Zn4   Zn    Zn3+2 0.386790 0.613180 0.574670 0.898525

loop_
_geom_bond_atom_site_label_1
_geom_bond_atom_site_label_2
_ccdc_geom_bond_type
C19   H12   S    
C30   H20   S    
C11   O13   A    
C41   C42   A    
C10   O12   A    
C39   H43   S    
C9    C25   S    
C14   O3    A    
C32   H28   S    
C12   C23   A    
C35   H31   S    
C34   C40   A    
C36   C37   S    
O7    Zn4   S    
C38   C39   S    
O1    Zn2   S    
C31   H29   S    
C5    C17   A    
C21   H50   S    
C2    C41   A    
C38   H48   S    
C3    C18   S    
C18   C19   S    
C13   O2    A    
C27   H17   S    
C8    C9    D    
C23   C33   S    
C12   C17   A    
C8    C22   S    
C6    C38   S    
C19   H23   S    
C12   C36   S    
C2    H25   S    
C2    C16   A    
C9    C10   S    
C39   H46   S    
C1    O10   A    
C22   H6    S    
C20   H52   S    
C30   H19   S    
C18   H45   S    
C37   H37   S    
C34   C41   A    
C25   H13   S    
C39   H44   S    
C44   H42   S    
C26   H10   S    
C15   C29   S    
C32   H27   S    
C28   H16   S    
C4    O11   A    
C35   H32   S    
O10   Zn4   S    
C24   H4    S    
C10   O6    A    
C4    C6    S    
O13   Zn3   S    
O1    Zn3   S    
C33   H35   S    
C31   H30   S    
C32   H26   S    
C21   H51   S    
O5    Zn1   S    
C38   H47   S    
C35   H33   S    
C43   C44   A    
C29   C30   S    
C27   H18   S    
C26   H8    S    
C29   H24   S    
C31   C32   S    
C18   H34   S    
C23   C34   A    
C1    O8    A    
C5    C14   S    
O9    Zn3   S    
O4    Zn3   S    
C17   C31   S    
O11   Zn1   S    
C22   C24   S    
C37   H38   S    
O6    Zn1   S    
C42   C43   A    
O1    Zn4   S    
C26   H9    S    
C3    C15   A    
C28   H15   S    
C24   H5    S    
O2    Zn2   S    
C1    C7    S    
C24   H3    S    
C25   H11   S    
C15   C42   A    
C14   O5    A    
O3    Zn4   S    
O8    Zn2   S    
C19   H1    S    
C33   H36   S    
C6    C7    D    
C28   H14   S    
C36   H41   S    
C4    O9    A    
O12   Zn2   S    
C13   O4    A    
C25   C26   S    
O1    Zn1   S    
C21   H49   S    
C36   H40   S    
C8    C11   S    
C33   C35   S    
C30   H21   S    
C29   H22   S    
C27   C43   S    
C40   C44   A    
C20   C21   S    
C7    C20   S    
C13   C16   S    
C27   C28   S    
C37   H39   S    
C11   O7    A    
C5    C40   A    
C20   H2    S    
C3    C16   A    
C22   H7    S    
