data_mof_unit_62590.cif
_audit_creation_date              2013-03-05T15:56:53-0500
_audit_creation_method            fapswitch 2.2
_symmetry_space_group_name_H-M    P1
_symmetry_Int_Tables_number       1
_space_group_crystal_system       triclinic
_cell_length_a                    21.741332
_cell_length_b                    21.741257
_cell_length_c                    38.858397
_cell_angle_alpha                 90.000098
_cell_angle_beta                  89.998848
_cell_angle_gamma                 89.799357
_cell_volume                      18367.6254915

loop_
_atom_site_label
_atom_site_type_symbol
_atom_site_description
_atom_site_fract_x
_atom_site_fract_y
_atom_site_fract_z
_atom_type_partial_charge
O1    O     O_R   0.447900 0.909920 0.999910 -0.577287
O2    O     O_R   0.090080 0.447900 0.999910 -0.576653
O3    O     O_R   0.552100 0.090080 0.999910 -0.577254
O4    O     O_R   0.909920 0.552100 0.999910 -0.576709
O5    O     O_R   0.447900 0.090080 0.000090 -0.576539
O6    O     O_R   0.090080 0.552100 0.000090 -0.578249
O7    O     O_R   0.552100 0.909920 0.000090 -0.576534
O8    O     O_R   0.909920 0.447900 0.000090 -0.578338
O9    O     O_R   0.947900 0.409920 0.499910 -0.578284
O10   O     O_R   0.590080 0.947900 0.499910 -0.576560
O11   O     O_R   0.052100 0.590080 0.499910 -0.578241
O12   O     O_R   0.409920 0.052100 0.499910 -0.576556
O13   O     O_R   0.947900 0.590080 0.500090 -0.576639
O14   O     O_R   0.590080 0.052100 0.500090 -0.577273
O15   O     O_R   0.052100 0.409920 0.500090 -0.576672
O16   O     O_R   0.409920 0.947900 0.500090 -0.577291
C1    C     C_R   0.500096 0.881305 0.000074 0.833603
C2    C     C_R   0.118713 0.499879 0.000216 0.834597
C3    C     C_R   0.499904 0.118694 0.000077 0.833580
C4    C     C_R   0.881285 0.500121 0.000213 0.834669
C5    C     C_R   0.000121 0.381286 0.499784 0.834625
C6    C     C_R   0.618695 0.999904 0.499924 0.833601
C7    C     C_R   0.999879 0.618713 0.499783 0.834588
C8    C     C_R   0.381305 0.000096 0.499925 0.833609
O17   O     O_R   0.447900 0.000090 0.949980 -0.582503
O18   O     O_R   0.999910 0.447900 0.949980 -0.582701
O19   O     O_R   0.552100 0.999910 0.949980 -0.582499
O20   O     O_R   0.000090 0.552100 0.949980 -0.582688
O21   O     O_R   0.447900 0.999910 0.050020 -0.582851
O22   O     O_R   0.999910 0.552100 0.050020 -0.582693
O23   O     O_R   0.552100 0.000090 0.050020 -0.582840
O24   O     O_R   0.000090 0.447900 0.050020 -0.582691
O25   O     O_R   0.947900 0.500090 0.449980 -0.582697
O26   O     O_R   0.499910 0.947900 0.449980 -0.582847
O27   O     O_R   0.052100 0.499910 0.449980 -0.582703
O28   O     O_R   0.500090 0.052100 0.449980 -0.582842
O29   O     O_R   0.947900 0.499910 0.550020 -0.582696
O30   O     O_R   0.499910 0.052100 0.550020 -0.582502
O31   O     O_R   0.052100 0.500090 0.550020 -0.582691
O32   O     O_R   0.500090 0.947900 0.550020 -0.582503
C9    C     C_R   0.500000 0.000000 0.933605 0.780979
C10   C     C_R   0.000000 0.500000 0.933605 0.780441
C11   C     C_R   0.499999 1.000000 0.066395 0.779648
C12   C     C_R   0.000000 0.500000 0.066395 0.780546
C13   C     C_R   0.000001 0.500000 0.433604 0.780506
C14   C     C_R   0.500000 1.000000 0.433605 0.779669
C15   C     C_R   0.999999 0.500000 0.566395 0.780433
C16   C     C_R   0.500000 0.000000 0.566395 0.780991
Cu1   Cu    Cu3+1 0.438290 0.000000 0.000000 1.005389
Cu2   Cu    Cu3+1 0.000000 0.438290 0.000000 1.004691
Cu3   Cu    Cu3+1 0.561710 0.000000 0.000000 1.005437
Cu4   Cu    Cu3+1 1.000000 0.561710 0.000000 1.004746
Cu5   Cu    Cu3+1 0.938290 0.500000 0.500000 1.004723
Cu6   Cu    Cu3+1 0.500000 0.938290 0.500000 1.005374
Cu7   Cu    Cu3+1 0.061710 0.500000 0.500000 1.004729
Cu8   Cu    Cu3+1 0.500000 0.061710 0.500000 1.005398
C17   C     C_R   0.551848 0.979481 0.877301 -0.156986
C18   C     C_R   0.020416 0.551744 0.877300 -0.159252
C19   C     C_R   0.448157 0.020522 0.877301 -0.156981
C20   C     C_R   0.979584 0.448256 0.877300 -0.159290
C21   C     C_R   0.551736 0.020429 0.122699 -0.157824
C22   C     C_R   0.020514 0.448151 0.122699 -0.157252
C23   C     C_R   0.448259 0.979572 0.122700 -0.157833
C24   C     C_R   0.979490 0.551850 0.122700 -0.157251
C25   C     C_R   0.051851 0.479489 0.377300 -0.157256
C26   C     C_R   0.520427 0.051739 0.377300 -0.157832
C27   C     C_R   0.948154 0.520514 0.377301 -0.157245
C28   C     C_R   0.479571 0.948260 0.377301 -0.157836
C29   C     C_R   0.051741 0.520419 0.622699 -0.159248
C30   C     C_R   0.520521 0.948155 0.622699 -0.156993
C31   C     C_R   0.948255 0.479584 0.622700 -0.159259
C32   C     C_R   0.479482 0.051847 0.622699 -0.156995
H1    H     H_    0.592352 0.963193 0.890779 0.163455
H2    H     H_    0.036621 0.592168 0.890777 0.163308
H3    H     H_    0.407653 0.036810 0.890780 0.163449
H4    H     H_    0.963379 0.407831 0.890778 0.163292
H5    H     H_    0.592157 0.036645 0.109221 0.163261
H6    H     H_    0.036794 0.407644 0.109221 0.163505
H7    H     H_    0.407839 0.963357 0.109222 0.163254
H8    H     H_    0.963209 0.592357 0.109221 0.163513
H9    H     H_    0.092358 0.463208 0.390778 0.163507
H10   H     H_    0.536642 0.092159 0.390778 0.163257
H11   H     H_    0.907646 0.536795 0.390779 0.163508
H12   H     H_    0.463357 0.907840 0.390779 0.163253
H13   H     H_    0.092165 0.536625 0.609222 0.163308
H14   H     H_    0.536808 0.907650 0.609220 0.163446
H15   H     H_    0.907831 0.463377 0.609223 0.163301
H16   H     H_    0.463194 0.092351 0.609221 0.163447
C33   C     C_R   0.551627 0.978915 0.841340 -0.130645
C34   C     C_R   0.020979 0.551520 0.841340 -0.132158
C35   C     C_R   0.448380 0.021089 0.841341 -0.130636
C36   C     C_R   0.979020 0.448480 0.841340 -0.132184
C37   C     C_R   0.551512 0.020993 0.158659 -0.131426
C38   C     C_R   0.021081 0.448374 0.158660 -0.131200
C39   C     C_R   0.448482 0.979009 0.158660 -0.131429
C40   C     C_R   0.978925 0.551629 0.158660 -0.131209
C41   C     C_R   0.051630 0.478924 0.341340 -0.131203
C42   C     C_R   0.520989 0.051515 0.341340 -0.131430
C43   C     C_R   0.948377 0.521081 0.341340 -0.131196
C44   C     C_R   0.479007 0.948485 0.341340 -0.131432
C45   C     C_R   0.051516 0.520982 0.658660 -0.132148
C46   C     C_R   0.521088 0.948378 0.658659 -0.130644
C47   C     C_R   0.948478 0.479020 0.658660 -0.132162
C48   C     C_R   0.478917 0.051625 0.658660 -0.130648
H17   H     H_    0.592163 0.962648 0.827889 0.162723
H18   H     H_    0.037162 0.591977 0.827889 0.162754
H19   H     H_    0.407844 0.037357 0.827890 0.162723
H20   H     H_    0.962836 0.408023 0.827890 0.162745
H21   H     H_    0.591964 0.037186 0.172109 0.162637
H22   H     H_    0.037342 0.407836 0.172111 0.162699
H23   H     H_    0.408029 0.962816 0.172110 0.162637
H24   H     H_    0.962666 0.592168 0.172111 0.162703
H25   H     H_    0.092169 0.462663 0.327888 0.162701
H26   H     H_    0.537182 0.091968 0.327890 0.162636
H27   H     H_    0.907838 0.537341 0.327889 0.162698
H28   H     H_    0.462814 0.908031 0.327890 0.162636
H29   H     H_    0.091972 0.537167 0.672110 0.162754
H30   H     H_    0.537355 0.907841 0.672110 0.162720
H31   H     H_    0.908022 0.462836 0.672111 0.162745
H32   H     H_    0.462650 0.092162 0.672111 0.162722
C49   C     C_R   0.500004 0.000002 0.823004 0.047263
C50   C     C_R   0.999999 0.500000 0.823003 0.047193
C51   C     C_R   0.499997 0.000001 0.176996 0.047286
C52   C     C_R   0.000004 0.500002 0.176997 0.047185
C53   C     C_R   0.000004 0.500002 0.323003 0.047188
C54   C     C_R   0.499998 1.000000 0.323004 0.047287
C55   C     C_R   0.999997 0.500001 0.676997 0.047191
C56   C     C_R   0.500003 0.000002 0.676996 0.047265
C57   C     C_R   0.500002 0.000001 0.895613 -0.035127
C58   C     C_R   0.000000 0.500000 0.895612 -0.035910
C59   C     C_R   0.499998 0.000000 0.104387 -0.034861
C60   C     C_R   0.000001 0.500000 0.104387 -0.034864
C61   C     C_R   0.000002 0.500001 0.395612 -0.034859
C62   C     C_R   0.499999 1.000000 0.395612 -0.034863
C63   C     C_R   0.999998 0.500001 0.604388 -0.035913
C64   C     C_R   0.500001 0.000001 0.604387 -0.035125
N1    N     N_R   0.461855 0.037969 0.767138 -0.219148
N2    N     N_R   0.962166 0.461983 0.767138 -0.219666
N3    N     N_R   0.538154 0.962037 0.767137 -0.219155
N4    N     N_R   0.037830 0.538018 0.767137 -0.219638
N5    N     N_R   0.461980 0.962168 0.232863 -0.219598
N6    N     N_R   0.962039 0.538153 0.232863 -0.219460
N7    N     N_R   0.538013 0.037834 0.232862 -0.219599
N8    N     N_R   0.037970 0.461852 0.232862 -0.219451
N9    N     N_R   0.961855 0.537968 0.267138 -0.219452
N10   N     N_R   0.462165 0.961983 0.267138 -0.219597
N11   N     N_R   0.038154 0.462037 0.267137 -0.219457
N12   N     N_R   0.537829 0.038018 0.267137 -0.219600
N13   N     N_R   0.961981 0.462168 0.732863 -0.219657
N14   N     N_R   0.462039 0.038153 0.732863 -0.219154
N15   N     N_R   0.038013 0.537834 0.732862 -0.219639
N16   N     N_R   0.537969 0.961852 0.732862 -0.219152
C65   C     C_R   0.500004 0.000002 0.715032 0.414455
C66   C     C_R   0.999997 0.500001 0.715033 0.413623
C67   C     C_R   0.499997 0.000000 0.284967 0.414171
C68   C     C_R   0.000005 0.500003 0.284967 0.414192
C69   C     C_R   0.000004 0.500002 0.215032 0.414190
C70   C     C_R   0.499997 0.000001 0.215032 0.414175
C71   C     C_R   0.999998 0.500000 0.784967 0.413617
C72   C     C_R   0.500004 0.000003 0.784968 0.414457
C73   C     C_R   0.540695 0.782621 0.021307 -0.203605
C74   C     C_R   0.216843 0.542010 0.020887 -0.210242
C75   C     C_R   0.459355 0.217379 0.021339 -0.203696
C76   C     C_R   0.783138 0.457827 0.020761 -0.210147
C77   C     C_R   0.539579 0.216760 0.978142 -0.208637
C78   C     C_R   0.217526 0.457104 0.980574 -0.200637
C79   C     C_R   0.460352 0.783232 0.978181 -0.208634
C80   C     C_R   0.782481 0.543109 0.980702 -0.200568
C81   C     C_R   0.042963 0.282474 0.519380 -0.200614
C82   C     C_R   0.716764 0.039635 0.521827 -0.208630
C83   C     C_R   0.957134 0.717522 0.519446 -0.200655
C84   C     C_R   0.283230 0.960334 0.521809 -0.208633
C85   C     C_R   0.041983 0.716843 0.479095 -0.210243
C86   C     C_R   0.717382 0.959307 0.478690 -0.203696
C87   C     C_R   0.957920 0.283154 0.479161 -0.210208
C88   C     C_R   0.282620 0.040711 0.478702 -0.203661
H33   H     H_    0.572137 0.807702 0.037742 0.189538
H34   H     H_    0.191229 0.574346 0.036613 0.191516
H35   H     H_    0.427953 0.192300 0.037799 0.189472
H36   H     H_    0.808740 0.425346 0.036397 0.191698
H37   H     H_    0.570443 0.191169 0.961502 0.189128
H38   H     H_    0.192835 0.424007 0.964988 0.184707
H39   H     H_    0.429436 0.808819 0.961570 0.189191
H40   H     H_    0.807187 0.576351 0.965219 0.185069
H41   H     H_    0.076113 0.307167 0.534930 0.184816
H42   H     H_    0.691175 0.070541 0.538443 0.189179
H43   H     H_    0.924058 0.692830 0.535047 0.184678
H44   H     H_    0.308816 0.929405 0.538413 0.189206
H45   H     H_    0.074299 0.691230 0.463355 0.191480
H46   H     H_    0.692304 0.927868 0.462252 0.189517
H47   H     H_    0.925531 0.308770 0.463471 0.191632
H48   H     H_    0.307700 0.072166 0.462274 0.189544
C89   C     C_R   0.541333 0.718490 0.021455 0.317179
C90   C     C_R   0.281006 0.542974 0.021283 0.322069
C91   C     C_R   0.458712 0.281509 0.021481 0.317149
C92   C     C_R   0.718976 0.456891 0.021164 0.321852
C93   C     C_R   0.539980 0.280855 0.977442 0.323777
C94   C     C_R   0.281461 0.458211 0.979506 0.327102
C95   C     C_R   0.459942 0.719136 0.977490 0.323617
C96   C     C_R   0.718542 0.542057 0.979636 0.326885
C97   C     C_R   0.041865 0.218538 0.520449 0.327086
C98   C     C_R   0.780860 0.040040 0.522523 0.323655
C99   C     C_R   0.958243 0.781458 0.520515 0.327168
C100  C     C_R   0.219134 0.959923 0.522500 0.323570
C101  C     C_R   0.042948 0.781006 0.478701 0.322089
C102  C     C_R   0.781512 0.958666 0.478547 0.317126
C103  C     C_R   0.956955 0.218991 0.478763 0.321935
C104  C     C_R   0.218489 0.041349 0.478554 0.317161
C105  C     C_R   0.500182 0.686266 0.999695 -0.234777
C106  C     C_R   0.313770 0.501323 0.999875 -0.226633
C107  C     C_R   0.499811 0.313731 0.999688 -0.234737
C108  C     C_R   0.686222 0.498741 0.999870 -0.226782
C109  C     C_R   0.998682 0.186227 0.500127 -0.226684
C110  C     C_R   0.813734 0.999814 0.500310 -0.234751
C111  C     C_R   0.001325 0.813769 0.500126 -0.226612
C112  C     C_R   0.186265 0.000181 0.500304 -0.234782
C113  C     C_R   0.500273 0.814662 0.999955 -0.142837
C114  C     C_R   0.185389 0.499607 0.000581 -0.145031
C115  C     C_R   0.499725 0.185335 0.999957 -0.142755
C116  C     C_R   0.814606 0.500398 0.000573 -0.145326
C117  C     C_R   0.000391 0.314609 0.499420 -0.145150
C118  C     C_R   0.685338 0.999726 0.500044 -0.142809
C119  C     C_R   0.999607 0.685388 0.499419 -0.144995
C120  C     C_R   0.314661 0.000273 0.500045 -0.142844
O33   O     O_R   0.409800 0.500090 0.028790 -0.552491
O34   O     O_R   0.499910 0.409800 0.028790 -0.549526
O35   O     O_R   0.590200 0.499910 0.028790 -0.552604
O36   O     O_R   0.500090 0.590200 0.028790 -0.549621
O37   O     O_R   0.409800 0.499910 0.971210 -0.538584
O38   O     O_R   0.499910 0.590200 0.971210 -0.555639
O39   O     O_R   0.590200 0.500090 0.971210 -0.538408
O40   O     O_R   0.500090 0.409800 0.971210 -0.555753
O41   O     O_R   0.909800 0.000090 0.528790 -0.555794
O42   O     O_R   0.999910 0.909800 0.528790 -0.538575
O43   O     O_R   0.090200 0.999910 0.528790 -0.555748
O44   O     O_R   0.000090 0.090200 0.528790 -0.538538
O45   O     O_R   0.909800 0.999910 0.471210 -0.549548
O46   O     O_R   0.999910 0.090200 0.471210 -0.552528
O47   O     O_R   0.090200 0.000090 0.471210 -0.549599
O48   O     O_R   0.000090 0.909800 0.471210 -0.552479
C121  C     C_R   0.380840 0.500285 0.999981 0.915353
C122  C     C_R   0.500120 0.380835 0.999936 0.918667
C123  C     C_R   0.619158 0.499765 0.999981 0.915698
C124  C     C_R   0.499880 0.619164 0.999938 0.918520
C125  C     C_R   0.880836 0.000121 0.500063 0.918614
C126  C     C_R   0.000287 0.880840 0.500019 0.915397
C127  C     C_R   0.119164 0.999879 0.500062 0.918533
C128  C     C_R   0.999722 0.119159 0.500019 0.915594
Cu9   Cu    Cu3+1 0.500000 0.500000 0.034120 1.179245
Cu10  Cu    Cu3+1 0.500000 0.500000 0.965880 1.201270
Cu11  Cu    Cu3+1 0.000000 1.000000 0.534120 1.201247
Cu12  Cu    Cu3+1 0.000000 1.000000 0.465880 1.179280
N17   N     N_R   0.585582 0.687154 0.042753 0.144458
O49   O     O_R   0.600411 0.709807 0.072609 -0.321194
O50   O     O_R   0.618034 0.641919 0.030349 -0.345107
N18   N     N_R   0.311442 0.586487 0.043390 0.144056
O51   O     O_R   0.286477 0.602141 0.072560 -0.325695
O52   O     O_R   0.359608 0.616345 0.032866 -0.330635
N19   N     N_R   0.414495 0.312850 0.042797 0.144394
O53   O     O_R   0.399741 0.290226 0.072672 -0.321198
O54   O     O_R   0.381984 0.358042 0.030392 -0.345051
N20   N     N_R   0.688535 0.413240 0.043185 0.144024
O55   O     O_R   0.713557 0.397311 0.072293 -0.325758
O56   O     O_R   0.640266 0.383572 0.032644 -0.330919
N21   N     N_R   0.581517 0.311180 0.954149 0.144930
O57   O     O_R   0.593089 0.287008 0.924190 -0.323571
O58   O     O_R   0.614294 0.357673 0.964309 -0.322019
N22   N     N_R   0.312791 0.413681 0.958633 0.129074
O59   O     O_R   0.302439 0.355448 0.963565 -0.309016
O60   O     O_R   0.338740 0.430963 0.930083 -0.307023
N23   N     N_R   0.418304 0.688800 0.954259 0.144920
O61   O     O_R   0.406582 0.712967 0.924318 -0.323490
O62   O     O_R   0.385591 0.642298 0.964471 -0.322332
N24   N     N_R   0.687242 0.586897 0.958949 0.129209
O63   O     O_R   0.698239 0.645024 0.963835 -0.308932
O64   O     O_R   0.660642 0.569908 0.930529 -0.307347
N25   N     N_R   0.086481 0.187215 0.541270 0.129145
O65   O     O_R   0.144685 0.197736 0.536344 -0.308928
O66   O     O_R   0.069282 0.161105 0.569790 -0.307140
N26   N     N_R   0.811190 0.081650 0.545773 0.144920
O67   O     O_R   0.787014 0.093332 0.575718 -0.323522
O68   O     O_R   0.857696 0.114375 0.535580 -0.322230
N27   N     N_R   0.913747 0.812785 0.541412 0.129122
O69   O     O_R   0.855506 0.802446 0.536503 -0.308989
O70   O     O_R   0.931071 0.838709 0.569961 -0.306998
N28   N     N_R   0.188796 0.918266 0.545720 0.144912
O71   O     O_R   0.212966 0.906512 0.575657 -0.323489
O72   O     O_R   0.142287 0.885570 0.535502 -0.322380
N29   N     N_R   0.086435 0.811444 0.456579 0.144054
O73   O     O_R   0.102030 0.786498 0.427394 -0.325682
O74   O     O_R   0.116333 0.859585 0.467102 -0.330590
N30   N     N_R   0.812854 0.914408 0.457257 0.144388
O75   O     O_R   0.790217 0.899578 0.427397 -0.321204
O76   O     O_R   0.858068 0.881944 0.469674 -0.345142
N31   N     N_R   0.913370 0.188560 0.456696 0.144070
O77   O     O_R   0.897513 0.213604 0.427580 -0.325760
O78   O     O_R   0.883654 0.140299 0.467209 -0.330761
N32   N     N_R   0.187152 0.085614 0.457266 0.144423
O79   O     O_R   0.209809 0.100473 0.427415 -0.321220
O80   O     O_R   0.141911 0.118049 0.469677 -0.345098

loop_
_geom_bond_atom_site_label_1
_geom_bond_atom_site_label_2
_geom_bond_distance
_ccdc_geom_bond_type
C73   C113  1.393477 A    
O25   C13   1.299218 A    
C86   C118  1.393483 A    
C87   C103  1.395318 A    
C100  N28   1.440021 S    
C5    C117  1.449691 S    
C99   C111  1.415315 A    
O18   Cu2   1.954895 S    
N4    C71   1.358120 A    
C42   H26   1.082960 S    
N23   O61   1.301462 A    
N3    N16   1.331899 A    
N24   O63   1.300921 A    
Cu1   Cu3   2.683317 S    
Cu2   Cu4   2.683308 S    
O3    C3    1.292247 A    
O35   C123  1.284364 A    
C104  N32   1.438768 S    
O41   C125  1.281662 A    
C102  C110  1.417973 A    
Cu5   Cu7   2.683317 S    
C29   C63   1.404437 A    
C30   C64   1.404430 A    
O5    Cu1   1.970294 S    
C105  C124  1.458944 S    
C22   C60   1.404431 A    
O17   C9    1.299214 A    
C20   H4    1.083058 S    
C95   C105  1.419955 A    
C89   N17   1.438764 S    
C109  C128  1.458256 S    
C78   C94   1.390954 A    
C93   C107  1.420005 A    
C14   C62   1.476308 S    
O36   C124  1.285891 A    
O45   C125  1.285918 A    
C19   C35   1.397430 A    
C98   C110  1.419977 A    
N22   O60   1.300655 A    
O26   Cu6   1.954895 S    
N32   O79   1.301379 A    
C73   H33   1.084012 S    
O27   C13   1.299219 A    
O8    Cu2   1.968848 S    
O31   C15   1.299226 A    
O36   Cu9   1.971976 S    
O32   C16   1.299213 A    
C19   C57   1.404431 A    
N1    C72   1.358126 A    
O46   Cu12  1.971962 S    
C91   N19   1.438738 S    
C37   C51   1.404983 A    
N19   O54   1.300952 A    
C83   C119  1.393520 A    
C29   C45   1.397418 A    
C12   C60   1.476308 S    
C13   C61   1.476304 S    
C88   C104  1.394317 A    
N30   O76   1.300952 A    
N28   O72   1.300176 A    
O9    C5    1.292918 A    
O4    C4    1.292191 A    
C11   C59   1.476308 S    
C101  N29   1.440546 S    
O16   Cu6   1.968848 S    
C82   C98   1.393843 A    
O38   C124  1.281685 A    
C92   C108  1.419524 A    
C86   C102  1.394314 A    
O6    Cu4   1.968846 S    
C75   C115  1.393466 A    
O34   Cu9   1.971978 S    
C27   H11   1.083053 S    
O44   C128  1.283097 A    
C78   H38   1.084202 S    
C98   N26   1.440021 S    
N31   O78   1.299995 A    
O21   Cu1   1.954895 S    
Cu9   Cu10  2.651701 S    
O23   C11   1.299226 A    
C44   C54   1.404983 A    
O11   C7    1.292909 A    
C46   C56   1.404979 A    
N17   O49   1.301378 A    
O34   C122  1.285950 A    
O13   C7    1.292178 A    
C17   H1    1.083058 S    
O2    Cu2   1.970301 S    
C82   C118  1.392953 A    
C36   H20   1.082959 S    
C21   H5    1.083054 S    
O7    C1    1.292409 A    
N18   O52   1.299990 A    
O28   C14   1.299225 A    
O26   C14   1.299225 A    
N12   C67   1.358121 A    
O29   C15   1.299227 A    
C47   C55   1.404980 A    
O30   C16   1.299209 A    
O35   Cu9   1.971965 S    
O29   Cu5   1.954895 S    
N25   O65   1.300888 A    
C107  C122  1.458983 S    
N8    N11   1.331899 A    
C55   C66   1.478018 S    
O19   Cu3   1.954900 S    
C4    C116  1.449747 S    
C20   C36   1.397418 A    
N2    N13   1.331888 A    
N7    N12   1.331891 A    
N26   O67   1.301471 A    
C24   C40   1.397433 A    
N14   C65   1.358120 A    
O15   Cu7   1.970296 S    
C28   C44   1.397418 A    
C102  N30   1.438754 S    
C36   C50   1.404980 A    
C90   C106  1.419459 A    
N29   O73   1.301515 A    
C87   C117  1.394466 A    
C73   C89   1.394310 A    
N21   O58   1.300164 A    
C7    C119  1.449652 S    
O32   Cu6   1.954892 S    
C75   H35   1.084011 S    
N1    N14   1.331895 A    
C2    C114  1.449675 S    
C29   H13   1.083055 S    
C18   H2    1.083057 S    
N7    C70   1.358124 A    
C39   C51   1.404984 A    
C31   C47   1.397422 A    
C88   C120  1.393484 A    
C15   C63   1.476320 S    
O47   Cu12  1.971987 S    
C16   C64   1.476304 S    
O23   Cu3   1.954886 S    
O42   Cu11  1.971978 S    
C76   C92   1.395277 A    
N20   O55   1.301539 A    
C100  C112  1.419949 A    
O1    C1    1.292251 A    
C103  N31   1.440616 S    
C26   C42   1.397417 A    
C45   C55   1.404979 A    
C90   N18   1.440557 S    
C110  C125  1.458952 S    
N24   O64   1.300766 A    
C93   N21   1.440018 S    
C94   C106  1.415305 A    
C74   H34   1.083987 S    
C21   C59   1.404433 A    
C99   N27   1.433357 S    
O40   Cu10  1.971965 S    
N16   C65   1.358128 A    
C35   C49   1.404979 A    
C33   H17   1.082957 S    
N27   O69   1.300878 A    
C79   C95   1.393846 A    
N8    C69   1.358126 A    
C41   H25   1.082956 S    
C79   C113  1.392963 A    
C37   H21   1.082959 S    
C74   C114  1.394490 A    
C44   H28   1.082959 S    
Cu11  Cu12  2.651701 S    
O10   C6    1.292402 A    
C6    C118  1.448907 S    
O18   C10   1.299223 A    
C17   C33   1.397434 A    
O40   C122  1.281647 A    
C108  C123  1.458178 S    
C43   H27   1.082959 S    
C21   C37   1.397418 A    
O2    C2    1.292180 A    
O33   C121  1.284378 A    
C23   C39   1.397422 A    
O47   C127  1.285888 A    
C84   C100  1.393850 A    
O22   Cu4   1.954892 S    
C97   N25   1.433403 S    
N9    C68   1.358125 A    
O31   Cu7   1.954886 S    
N10   C67   1.358127 A    
C24   C60   1.404431 A    
C49   C72   1.478026 S    
C50   C71   1.478018 S    
O45   Cu12  1.971981 S    
C23   C59   1.404433 A    
C76   H36   1.083956 S    
C53   C68   1.478022 S    
C27   C43   1.397434 A    
C54   C67   1.478026 S    
O21   C11   1.299227 A    
O48   C126  1.284386 A    
C24   H8    1.083058 S    
N6    N9    1.331895 A    
O22   C12   1.299213 A    
C95   N23   1.440020 S    
N32   O80   1.300938 A    
C22   H6    1.083053 S    
O13   Cu5   1.970294 S    
C28   H12   1.083058 S    
C34   H18   1.082960 S    
C41   C53   1.404980 A    
N31   O77   1.301572 A    
O3    Cu3   1.968839 S    
C32   C48   1.397433 A    
C38   H22   1.082960 S    
N13   C66   1.358120 A    
C94   N22   1.433354 S    
C84   C120  1.392968 A    
C35   H19   1.082959 S    
O37   C121  1.283119 A    
C25   H9    1.083058 S    
C75   C91   1.394310 A    
C52   C69   1.478018 S    
C82   H42   1.084115 S    
C96   C108  1.415440 A    
N11   C68   1.358122 A    
C18   C34   1.397417 A    
N4    N15   1.331887 A    
C97   C109  1.415353 A    
C56   C65   1.478026 S    
C86   H46   1.084011 S    
C31   H15   1.083057 S    
N3    C72   1.358124 A    
O48   Cu12  1.971965 S    
C22   C38   1.397434 A    
O9    Cu5   1.968841 S    
N6    C69   1.358123 A    
C85   C119  1.394488 A    
O11   Cu7   1.968839 S    
O41   Cu11  1.971975 S    
O12   C8    1.292410 A    
C80   C96   1.391011 A    
C106  C121  1.458292 S    
C30   C46   1.397434 A    
O5    C3    1.292393 A    
C45   H29   1.082960 S    
C81   H41   1.084206 S    
C28   C62   1.404434 A    
O7    Cu3   1.970296 S    
O42   C126  1.283120 A    
C87   H47   1.083978 S    
O14   C6    1.292252 A    
C33   C49   1.404979 A    
C18   C58   1.404436 A    
C96   N24   1.433554 S    
C83   C99   1.390950 A    
O17   Cu1   1.954892 S    
C32   C64   1.404429 A    
C81   C97   1.390954 A    
N5    C70   1.358119 A    
C42   C54   1.404981 A    
N22   O59   1.300877 A    
C101  C111  1.419451 A    
C111  C126  1.458307 S    
C85   C101  1.395308 A    
C48   H32   1.082958 S    
O14   Cu8   1.968846 S    
N27   O70   1.300651 A    
O43   Cu11  1.971965 S    
C43   C53   1.404975 A    
C23   H7    1.083057 S    
C112  C127  1.458933 S    
C40   H24   1.082959 S    
O8    C4    1.292938 A    
O4    Cu4   1.970303 S    
O28   Cu8   1.954894 S    
C17   C57   1.404431 A    
N30   O75   1.301377 A    
C27   C61   1.404430 A    
N26   O68   1.300164 A    
C77   C93   1.393835 A    
C31   C63   1.404438 A    
N28   O71   1.301461 A    
C88   H48   1.084011 S    
C26   H10   1.083055 S    
C103  C109  1.419523 A    
N15   C66   1.358123 A    
O20   C10   1.299223 A    
C81   C117  1.393511 A    
N2    C71   1.358123 A    
C79   H39   1.084116 S    
C80   H40   1.084211 S    
C48   C56   1.404981 A    
N21   O57   1.301478 A    
C78   C114  1.393529 A    
O37   Cu10  1.971981 S    
C46   H30   1.082961 S    
C76   C116  1.394444 A    
C104  C112  1.417985 A    
C26   C62   1.404433 A    
C34   C50   1.404982 A    
O43   C127  1.281683 A    
C32   H16   1.083058 S    
C8    C120  1.448924 S    
O25   Cu5   1.954892 S    
O6    C2    1.292915 A    
Cu6   Cu8   2.683308 S    
C40   C52   1.404978 A    
O27   Cu7   1.954900 S    
C20   C58   1.404439 A    
N17   O50   1.300937 A    
C77   C115  1.392928 A    
N20   O56   1.299971 A    
C80   C116  1.393511 A    
O39   C123  1.283078 A    
C91   C107  1.417982 A    
O19   C9    1.299215 A    
C89   C105  1.417988 A    
N18   O51   1.301525 A    
C74   C90   1.395314 A    
O24   C12   1.299217 A    
O30   Cu8   1.954892 S    
C10   C58   1.476324 S    
O24   Cu2   1.954892 S    
O12   Cu8   1.970303 S    
N5    N10   1.331891 A    
N25   O66   1.300671 A    
C3    C115  1.448865 S    
O44   Cu11  1.971976 S    
O46   C128  1.284380 A    
N19   O53   1.301380 A    
C30   H14   1.083052 S    
C19   H3    1.083052 S    
C1    C113  1.448906 S    
N23   O62   1.300175 A    
O33   Cu9   1.971975 S    
C47   H31   1.082957 S    
C51   C70   1.478026 S    
C83   H43   1.084204 S    
C77   H37   1.084117 S    
C92   N20   1.440587 S    
C25   C41   1.397434 A    
C39   H23   1.082956 S    
C9    C57   1.476300 S    
O20   Cu4   1.954894 S    
C84   H44   1.084115 S    
C85   H45   1.083992 S    
N29   O74   1.299990 A    
O10   Cu6   1.970301 S    
O15   C5    1.292191 A    
O16   C8    1.292253 A    
O38   Cu10  1.971962 S    
O39   Cu10  1.971987 S    
O1    Cu1   1.968841 S    
C25   C61   1.404431 A    
C38   C52   1.404979 A    
