data_mof_unit_35827.cif
_audit_creation_date              2012-12-10T16:51:16-0500
_audit_creation_method            fapswitch 2.2
_symmetry_space_group_name_H-M    P1
_symmetry_Int_Tables_number       1
_space_group_crystal_system       triclinic
_cell_length_a                    27.801067
_cell_length_b                    8.674158
_cell_length_c                    7.430099
_cell_angle_alpha                 102.983486
_cell_angle_beta                  94.173564
_cell_angle_gamma                 92.525028
_cell_volume                      1737.97065743

loop_
_atom_site_label
_atom_site_type_symbol
_atom_type_description
_atom_site_fract_x
_atom_site_fract_y
_atom_site_fract_z
_atom_type_partial_charge
C1    C     C_R   0.498536 0.199615 0.453167 0.876216
C2    C     C_R   0.501464 0.800385 0.546832 0.876205
C3    C     C_R   0.101690 0.496517 0.494086 -0.146534
C4    C     C_R   0.898312 0.503664 0.505908 -0.146536
C5    C     C_R   0.123771 0.352782 0.433766 -0.251792
C6    C     C_R   0.876230 0.647399 0.566211 -0.251789
C7    C     C_R   0.094617 0.214818 0.354575 0.587920
C8    C     C_R   0.905382 0.785367 0.645388 0.587905
C9    C     C_R   0.130695 0.639023 0.548780 -0.078138
C10   C     C_R   0.869308 0.361154 0.451235 -0.078142
C11   C     C_R   0.354411 0.497539 0.506340 -0.264758
C12   C     C_R   0.645589 0.502506 0.493661 -0.264744
C13   C     C_R   0.971011 0.354773 0.448794 0.014957
C14   C     C_R   0.028991 0.645412 0.551202 0.014954
C15   C     C_R   0.978299 0.645687 0.566984 -0.129661
C16   C     C_R   0.021702 0.354500 0.433002 -0.129656
C17   C     C_R   0.949381 0.501680 0.504753 -0.063543
C18   C     C_R   0.050621 0.498505 0.495239 -0.063542
C19   C     C_R   0.941140 0.213214 0.423812 0.718736
C20   C     C_R   0.058865 0.786970 0.576199 0.718738
C21   C     C_R   0.891181 0.217007 0.415753 -0.153298
C22   C     C_R   0.108823 0.783172 0.584271 -0.153307
C23   C     C_R   0.407430 0.499384 0.502455 0.874949
C24   C     C_R   0.592570 0.500622 0.497545 0.874951
C25   C     C_R   0.044532 0.217954 0.344631 0.664687
C26   C     C_R   0.955468 0.782234 0.655341 0.664698
C27   C     C_2   0.497836 0.031706 0.426734 -0.337265
C28   C     C_2   0.502164 0.968293 0.573266 -0.337263
C29   C     C_R   0.174547 0.353753 0.443462 0.723180
C30   C     C_R   0.825453 0.646423 0.556513 0.723195
C31   C     C_R   0.181102 0.634651 0.554485 0.660182
C32   C     C_R   0.818901 0.365520 0.445539 0.660175
C33   C     C_R   0.281978 0.512935 0.672611 -0.225299
C34   C     C_R   0.718022 0.487179 0.327392 -0.225308
C35   C     C_R   0.332240 0.515191 0.674074 0.604293
C36   C     C_R   0.667759 0.484861 0.325927 0.604291
C37   C     C_R   0.325214 0.477295 0.338840 -0.332263
C38   C     C_R   0.674789 0.522800 0.661160 -0.332282
C39   C     C_R   0.275116 0.474873 0.338218 0.699932
C40   C     C_R   0.724887 0.525280 0.661784 0.699933
C41   C     C_R   0.253382 0.492635 0.505064 0.105113
C42   C     C_R   0.746619 0.507525 0.494939 0.105125
Cu1   Cu    Cu3+1 0.505380 0.517380 0.684380 1.021075
Cu2   Cu    Cu3+1 0.494620 0.482620 0.315620 1.021075
H1    H     H_    0.341052 0.463489 0.207654 0.248521
H2    H     H_    0.658951 0.536599 0.792343 0.248506
H3    H     H_    0.462152 0.377969 0.948333 0.244174
H4    H     H_    0.537848 0.622031 0.051667 0.244174
H5    H     H_    0.734866 0.472995 0.198222 0.233945
H6    H     H_    0.265133 0.527118 0.801783 0.233958
H7    H     H_    0.869740 0.105695 0.390641 0.231536
H8    H     H_    0.130266 0.894483 0.609397 0.231527
H9    H     H_    0.493762 0.959959 0.285578 0.185105
H10   H     H_    0.506239 0.040041 0.714422 0.185106
N1    N     N_R   0.201875 0.493264 0.504311 -0.447914
N2    N     N_R   0.798126 0.506906 0.495690 -0.447914
N3    N     N_2   0.486510 0.456430 0.038510 -0.192614
N4    N     N_2   0.513490 0.543570 0.961490 -0.192613
O1    O     O_R   0.503500 0.286120 0.619780 -0.589389
O2    O     O_R   0.496500 0.713880 0.380220 -0.589393
O3    O     O_R   0.494410 0.256780 0.308360 -0.585433
O4    O     O_R   0.505590 0.743220 0.691640 -0.585436
O5    O     O_R   0.434810 0.514700 0.655690 -0.533665
O6    O     O_R   0.565190 0.485300 0.344310 -0.533662
O7    O     O_R   0.425720 0.485350 0.344280 -0.578813
O8    O     O_R   0.574280 0.514650 0.655720 -0.578809
O9    O     O_2   0.196596 0.217052 0.392756 -0.412578
O10   O     O_2   0.803403 0.783123 0.607193 -0.412572
O11   O     O_2   0.790809 0.229511 0.392267 -0.480210
O12   O     O_2   0.209195 0.770655 0.607788 -0.480215
F1    F     F_    0.247630 0.456800 0.175387 -0.625597
F2    F     F_    0.752375 0.543384 0.824614 -0.625598
F3    F     F_    0.114161 0.077990 0.274190 -0.554603
F4    F     F_    0.885838 0.922196 0.725759 -0.554610
F5    F     F_    0.641200 0.464939 0.160759 -0.641520
F6    F     F_    0.358797 0.535065 0.839240 -0.641524
F7    F     F_    0.959302 0.071778 0.429490 -0.552692
F8    F     F_    0.040705 0.928410 0.570524 -0.552690
F9    F     F_    0.019393 0.092881 0.227845 -0.516932
F10   F     F_    0.980605 0.907312 0.772124 -0.516919

loop_
_geom_bond_atom_site_label_1
_geom_bond_atom_site_label_2
_ccdc_geom_bond_type
C8    C26   A    
C14   C18   A    
C34   C42   A    
Cu1   O5    S    
C7    F3    S    
Cu2   O6    S    
C19   C21   A    
C1    O1    A    
C2    O2    A    
C9    C22   A    
C3    C18   A    
C19   F7    S    
C11   C23   S    
C11   C37   A    
C41   N1    S    
Cu1   N4    S    
C42   N2    S    
C29   O9    S    
C31   O12   S    
C12   C36   A    
Cu1   O1    S    
C40   C42   A    
C24   O6    A    
Cu2   O7    S    
C5    C29   A    
C10   C21   A    
C35   F6    S    
C13   C19   A    
C14   C20   A    
C4    C6    A    
C5    C7    A    
C28   H10   S    
C15   C26   A    
C6    C8    A    
C29   N1    A    
C33   H6    S    
C30   N2    A    
C26   F10   S    
Cu1   Cu2   S    
C3    C9    A    
C36   F5    S    
H3    N3    S    
Cu2   N3    S    
C8    F4    S    
C4    C17   A    
C6    C30   A    
C20   C22   A    
C37   H1    S    
C21   H7    S    
C22   H8    S    
C16   C25   A    
C15   C17   A    
C34   H5    S    
C40   F2    S    
C25   F9    S    
C3    C5    A    
C1    O3    A    
C27   H9    S    
H4    N4    S    
C32   O11   S    
C24   O8    A    
Cu2   O3    S    
C12   C24   S    
C7    C25   A    
C20   F8    S    
C33   C41   A    
C23   O7    A    
C11   C35   A    
C37   C39   A    
C38   C40   A    
N3    N4    D    
Cu2   O2    S    
Cu1   O8    S    
C23   O5    A    
C33   C35   A    
C34   C36   A    
C12   C38   A    
C38   H2    S    
C9    C31   A    
C13   C17   A    
C10   C32   A    
C39   C41   A    
C16   C18   A    
C13   C16   A    
C27   C28   D    
C1    C27   S    
C39   F1    S    
C14   C15   A    
C2    C28   S    
C31   N1    A    
C4    C10   A    
C32   N2    A    
C30   O10   S    
C2    O4    A    
Cu1   O4    S    
