data_mof_unit_16700.cif
_audit_creation_date              2012-12-11T14:49:47-0500
_audit_creation_method            fapswitch 2.2
_symmetry_space_group_name_H-M    P1
_symmetry_Int_Tables_number       1
_space_group_crystal_system       triclinic
_cell_length_a                    16.897438
_cell_length_b                    16.744427
_cell_length_c                    19.462258
_cell_angle_alpha                 117.867071
_cell_angle_beta                  62.184553
_cell_angle_gamma                 100.921548
_cell_volume                      4302.66689565

loop_
_atom_site_label
_atom_site_type_symbol
_atom_type_description
_atom_site_fract_x
_atom_site_fract_y
_atom_site_fract_z
_atom_type_partial_charge
C1    C     C_R   0.039685 0.759756 0.012267 -0.124821
C2    C     C_R   0.251708 0.520656 0.827719 -0.128368
C3    C     C_R   0.182893 0.490494 0.088233 -0.137109
C4    C     C_R   0.763962 0.418806 0.164298 -0.143726
C5    C     C_R   0.987163 0.341048 0.759785 -0.147609
C6    C     C_R   0.257021 0.541110 0.065794 0.068046
C7    C     C_R   0.937779 0.265135 0.759878 0.083851
C8    C     C_R   0.258498 0.459501 0.746082 0.073763
C9    C     C_R   0.032984 0.222268 0.998155 0.069502
C10   C     C_R   0.849885 0.133139 0.707455 -0.260118
C11   C     C_R   0.900012 0.207739 0.698612 0.114054
C12   C     C_R   0.767012 0.437536 0.240244 0.084867
C13   C     C_R   0.921208 0.222022 0.626327 -0.261688
C14   C     C_R   0.906199 0.155213 0.557046 0.142989
C15   C     C_R   0.866905 0.074694 0.561653 0.027790
C16   C     C_R   0.804689 0.560188 0.961294 -0.126279
C17   C     C_R   0.834067 0.065801 0.638880 0.142756
C18   C     C_R   0.938684 0.163515 0.480007 -0.208536
C19   C     C_R   0.941855 0.088676 0.405126 -0.199942
C20   C     C_R   0.912561 0.005352 0.407112 0.140166
C21   C     C_R   0.869984 0.999594 0.486500 0.026808
C22   C     C_R   0.839924 0.916179 0.489152 0.140665
C23   C     C_R   0.723296 0.548772 0.022415 0.059548
C24   C     C_R   0.797606 0.910907 0.568245 -0.204083
C25   C     C_R   0.794819 0.985588 0.642994 -0.205881
C26   C     C_R   0.934231 0.926219 0.330573 -0.254191
C27   C     C_R   0.916818 0.841996 0.333087 0.114867
C28   C     C_R   0.953410 0.672779 0.249061 -0.132077
C29   C     C_R   0.861976 0.837879 0.412093 -0.255213
C30   C     C_R   0.424489 0.435752 0.671554 -0.255678
C31   C     C_R   0.341369 0.415176 0.668266 0.115298
C32   C     C_R   0.338779 0.360818 0.588344 -0.256494
C33   C     C_R   0.416942 0.341155 0.511817 0.141178
C34   C     C_R   0.962864 0.759511 0.255431 0.075353
C35   C     C_R   0.498774 0.373555 0.515726 0.026187
C36   C     C_R   0.503275 0.416773 0.595666 0.140783
C37   C     C_R   0.413091 0.298048 0.432030 -0.203395
C38   C     C_R   0.487699 0.295614 0.357770 -0.210701
C39   C     C_R   0.566542 0.336286 0.362907 0.145047
C40   C     C_R   0.738373 0.483716 0.040427 -0.126577
C41   C     C_R   0.573754 0.371167 0.441086 0.028920
C42   C     C_R   0.652800 0.412126 0.446793 0.145856
C43   C     C_R   0.659476 0.446469 0.524761 -0.208199
C44   C     C_R   0.584931 0.448720 0.598990 -0.203051
C45   C     C_R   0.250060 0.569565 0.012481 -0.141599
C46   C     C_R   0.634579 0.350691 0.293906 -0.267319
C47   C     C_R   0.708263 0.401772 0.303148 0.112654
C48   C     C_R   0.720181 0.426094 0.377215 -0.266327
C49   C     C_R   0.636786 0.592950 0.058033 0.132987
C50   C     C_R   0.323743 0.568924 0.100173 0.129650
C51   C     C_R   0.402498 0.538384 0.162595 -0.223241
C52   C     C_R   0.024714 0.753080 0.174478 -0.127583
C53   C     C_R   0.326906 0.530126 0.149187 -0.174396
C54   C     C_R   0.391356 0.626403 0.075345 -0.280792
C55   C     C_R   0.469413 0.630093 0.083522 0.189974
C56   C     C_R   0.920045 0.262237 0.835714 -0.136727
C57   C     C_R   0.476402 0.582136 0.123928 0.187606
C58   C     C_R   0.559816 0.567972 0.114581 -0.276363
C59   C     C_R   0.628375 0.650913 0.027754 -0.171638
C60   C     C_R   0.544364 0.670759 0.041849 -0.227111
C61   C     C_R   0.837166 0.192956 0.172822 0.127550
C62   C     C_R   0.951426 0.865298 0.006561 0.061858
C63   C     C_R   0.820498 0.948260 0.046984 -0.226162
C64   C     C_R   0.842471 0.487449 0.240055 -0.148284
C65   C     C_R   0.867189 0.867088 0.008884 -0.183247
C66   C     C_R   0.990957 0.948926 0.039554 -0.034194
C67   C     C_R   0.172484 0.451036 0.751305 -0.130783
C68   C     C_R   0.940939 0.031487 0.083315 0.118850
C69   C     C_R   0.855187 0.030294 0.086478 0.174614
C70   C     C_R   0.804574 0.111247 0.130242 -0.265894
C71   C     C_R   0.920667 0.194962 0.171448 -0.162886
C72   C     C_R   0.972935 0.115371 0.126258 -0.219207
C73   C     C_R   0.962079 0.691146 0.935828 -0.141568
C74   C     C_R   0.988629 0.775904 0.980604 0.071269
C75   C     C_1   0.083207 0.950927 0.025505 0.003310
C76   C     C_R   0.054332 0.307411 0.048357 -0.132253
C77   C     C_R   0.975304 0.238553 0.972752 -0.115985
H1    H     H_    0.079348 0.807675 0.041884 0.103797
H2    H     H_    0.956505 0.280909 0.619783 0.116189
H3    H     H_    0.967494 0.225736 0.476192 0.127784
H4    H     H_    0.722794 0.370140 0.136465 0.084971
H5    H     H_    0.973128 0.094308 0.344731 0.131848
H6    H     H_    0.971587 0.930656 0.269810 0.121621
H7    H     H_    0.843345 0.773731 0.414997 0.118397
H8    H     H_    0.772806 0.847424 0.571191 0.129861
H9    H     H_    0.767834 0.978574 0.702439 0.128949
H10   H     H_    0.428184 0.473594 0.732638 0.118942
H11   H     H_    0.275705 0.340386 0.584633 0.118735
H12   H     H_    0.872500 0.220503 0.863746 0.085904
H13   H     H_    0.350910 0.271601 0.428001 0.129860
H14   H     H_    0.481864 0.267243 0.297662 0.127824
H15   H     H_    0.625693 0.328346 0.236175 0.115501
H16   H     H_    0.815880 0.601636 0.929288 0.083802
H17   H     H_    0.777974 0.462595 0.384420 0.115368
H18   H     H_    0.720410 0.476780 0.529596 0.127621
H19   H     H_    0.589568 0.480810 0.659873 0.129869
H20   H     H_    0.564492 0.527912 0.142952 0.118241
H21   H     H_    0.686333 0.675709 0.988052 0.110657
H22   H     H_    0.406560 0.502651 0.195160 0.127036
H23   H     H_    0.152046 0.408611 0.700788 0.096469
H24   H     H_    0.539451 0.709758 0.012450 0.125378
H25   H     H_    0.274470 0.487972 0.171907 0.114328
H26   H     H_    0.388704 0.660233 0.040833 0.116483
H27   H     H_    0.739212 0.111332 0.132701 0.123019
H28   H     H_    0.945309 0.258723 0.204821 0.116390
H29   H     H_    0.755143 0.946495 0.048741 0.130149
H30   H     H_    0.037504 0.119952 0.126625 0.136088
H31   H     H_    0.834690 0.805102 0.984475 0.122387
H32   H     H_    0.690938 0.456282 0.083896 0.094923
H33   H     H_    0.052333 0.808493 0.158427 0.089690
H34   H     H_    0.096321 0.320724 0.080463 0.097088
H35   H     H_    0.873499 0.501883 0.281976 0.084611
H36   H     H_    0.931643 0.676666 0.893535 0.087214
H37   H     H_    0.288339 0.620434 0.992311 0.088303
H38   H     H_    0.911383 0.651157 0.298763 0.095993
H39   H     H_    0.943777 0.187920 0.934431 0.099267
H40   H     H_    0.304696 0.542856 0.847953 0.095959
H41   H     H_    0.159404 0.468717 0.138586 0.083653
H42   H     H_    0.001493 0.372561 0.718051 0.087724
H43   H     H_    0.829917 0.122679 0.764056 0.117069
N1    N     N_R   0.036080 0.671900 0.995420 -0.041183
N2    N     N_R   0.867430 0.509300 0.948100 -0.038622
N3    N     N_R   0.003360 0.617250 0.167070 -0.040810
N4    N     N_R   0.825450 0.461270 0.995400 -0.040887
N5    N     N_R   0.045340 0.665280 0.119770 -0.040164
N6    N     N_R   0.883740 0.497640 0.167070 -0.037615
N7    N     N_R   0.987050 0.628910 0.948110 -0.037714
N8    N     N_R   0.174550 0.538730 0.004600 -0.038832
N9    N     N_1   0.157040 0.953073 0.014174 -0.097233
N10   N     N_R   0.954660 0.334720 0.880230 -0.039350
N11   N     N_R   0.116260 0.502360 0.832930 -0.041709
N12   N     N_R   0.012950 0.371090 0.051890 -0.041340
N13   N     N_R   0.963920 0.328100 0.004580 -0.042601
N14   N     N_R   0.165290 0.545350 0.880240 -0.041643
N15   N     N_R   0.132570 0.490700 0.051900 -0.037702
N16   N     N_R   0.996640 0.382750 0.832930 -0.038906
N17   N     N_R   0.834710 0.454650 0.119760 -0.037878
Ni1   Ni    Ni4+2 0.104370 0.604370 0.000010 0.216065
Ni2   Ni    Ni4+2 0.895630 0.395630 0.999990 0.209762
Ni3   Ni    Ni4+2 0.991920 0.505780 0.891500 0.213829
Ni4   Ni    Ni4+2 0.008080 0.494220 0.108500 0.208247

loop_
_geom_bond_atom_site_label_1
_geom_bond_atom_site_label_2
_ccdc_geom_bond_type
C61   C70   A    
C5    N16   A    
C66   C68   A    
C63   C65   A    
N6    N17   A    
C26   H6    S    
C6    C45   A    
C27   C29   A    
C11   C13   A    
C41   C42   A    
C14   C18   A    
N4    Ni2   S    
C35   C36   A    
N16   Ni3   S    
N11   N14   A    
C13   H2    S    
C28   N3    A    
C39   C41   A    
C7    C11   S    
N17   Ni2   S    
C16   H16   S    
C50   C54   A    
C48   H17   S    
C37   H13   S    
C5    H42   S    
C1    C74   A    
C22   C29   A    
N1    N7    A    
C30   C31   A    
C12   C64   A    
C70   H27   S    
C64   H35   S    
C46   H15   S    
C10   C17   A    
C23   C40   A    
C32   H11   S    
C73   H36   S    
C18   C19   A    
C73   C74   A    
C16   N2    A    
N8    Ni1   S    
N11   Ni3   S    
C4    N17   A    
C54   C55   A    
C45   H37   S    
C4    H4    S    
C63   C69   A    
C3    H41   S    
N12   N13   A    
C43   H18   S    
C51   C57   A    
C9    C76   A    
C4    C12   A    
C77   H39   S    
C24   H8    S    
C65   H31   S    
C55   C60   A    
C61   C71   A    
C28   C34   A    
C59   C60   A    
C13   C14   A    
C1    H1    S    
C58   H20   S    
C77   N13   A    
C7    C56   A    
C12   C47   S    
N10   Ni2   S    
C2    H40   S    
C27   C34   S    
C51   H22   S    
C40   N4    A    
N10   N16   A    
C50   C53   A    
C62   C66   A    
N15   Ni4   S    
C54   H26   S    
C10   H43   S    
C24   C25   A    
C29   H7    S    
N8    N15   A    
C5    C7    A    
C68   C69   A    
C42   C48   A    
C73   N7    A    
C38   H14   S    
C33   C37   A    
C49   C58   A    
C51   C53   A    
N1    Ni1   S    
C43   C44   A    
C37   C38   A    
C44   H19   S    
C28   H38   S    
C47   C48   A    
C72   H30   S    
C52   H33   S    
C53   H25   S    
C68   C72   A    
N3    Ni4   S    
C26   C27   A    
C9    C77   A    
C6    C50   S    
C63   H29   S    
C67   H23   S    
C39   C46   A    
C56   H12   S    
N13   Ni2   S    
C16   C23   A    
C64   N6    A    
C71   H28   S    
C22   C24   A    
C36   C44   A    
N7    Ni3   S    
N2    N4    A    
C60   H24   S    
C19   H5    S    
N12   Ni4   S    
C15   C17   A    
C46   C47   A    
C62   C65   A    
C8    C31   S    
C31   C32   A    
C67   N11   A    
N14   Ni1   S    
C52   N5    A    
C2    N14   A    
C40   H32   S    
N5    Ni1   S    
C23   C49   S    
N6    Ni4   S    
C34   C52   A    
C49   C59   A    
C30   C36   A    
C17   C25   A    
C32   C33   A    
C19   C20   A    
C55   C57   A    
N2    Ni3   S    
C71   C72   A    
C76   N12   A    
C57   C58   A    
C38   C39   A    
C20   C26   A    
C76   H34   S    
C66   C75   S    
C25   H9    S    
C33   C35   A    
C3    N15   A    
C69   C70   A    
C35   C41   A    
C1    N1    A    
N3    N5    A    
C10   C11   A    
C15   C21   A    
C20   C21   A    
C8    C67   A    
C18   H3    S    
C42   C43   A    
C3    C6    A    
C2    C8    A    
C59   H21   S    
C14   C15   A    
C62   C74   S    
C45   N8    A    
C30   H10   S    
C21   C22   A    
C56   N10   A    
C75   N9    T    
