data_mof_unit_24479.cif
_audit_creation_date              2012-12-10T18:09:51-0500
_audit_creation_method            fapswitch 2.2
_symmetry_space_group_name_H-M    P1
_symmetry_Int_Tables_number       1
_space_group_crystal_system       triclinic
_cell_length_a                    10.705485
_cell_length_b                    12.731036
_cell_length_c                    13.229841
_cell_angle_alpha                 81.536893
_cell_angle_beta                  96.359117
_cell_angle_gamma                 102.132081
_cell_volume                      1737.70153461

loop_
_atom_site_label
_atom_site_type_symbol
_atom_type_description
_atom_site_fract_x
_atom_site_fract_y
_atom_site_fract_z
_atom_type_partial_charge
C1    C     C_R   0.485578 0.439465 0.691249 0.972654
C2    C     C_R   0.450926 0.463296 0.964777 0.034074
C3    C     C_R   0.513380 0.473304 0.874534 -0.071475
C4    C     C_R   0.741887 0.500867 0.500685 0.943095
C5    C     C_R   0.494976 0.542531 0.032469 0.039035
C6    C     C_R   0.590025 0.635810 0.003775 0.004305
C7    C     C_R   0.657883 0.638578 0.918896 0.284292
C8    C     C_R   0.626713 0.551692 0.862009 0.304982
C9    C     C_R   0.457633 0.526437 0.132093 -0.176690
C10   C     C_R   0.590894 0.697649 0.167781 -0.180381
C11   C     C_R   0.463083 0.403305 0.799734 -0.036229
C12   C     C_3   0.121407 0.499873 0.498237 -0.060089
C13   C     C_R   0.388180 0.121711 0.303949 0.334363
C14   C     C_R   0.652849 0.795252 0.636182 0.058774
C15   C     C_R   0.700093 0.899796 0.659144 -0.186400
C16   C     C_R   0.509774 0.560428 0.309406 0.880369
C17   C     C_R   0.653152 0.985308 0.601064 -0.100951
C18   C     C_R   0.555922 0.966756 0.521073 0.014506
C19   C     C_R   0.520040 0.860532 0.492467 0.128663
C20   C     C_R   0.497581 0.051041 0.465092 -0.136603
C21   C     C_R   0.440843 0.038653 0.364323 -0.046934
C22   C     C_R   0.425848 0.939778 0.329112 -0.181531
C23   C     C_3   0.050255 0.478795 0.392022 -0.472510
C24   C     C_R   0.445091 0.849379 0.396124 0.338914
C25   C     C_R   0.485873 0.144621 0.505857 0.461575
C26   C     C_R   0.385855 0.213274 0.346748 -0.107931
C27   C     C_R   0.258171 0.499893 0.497663 0.936998
C28   C     C_3   0.916148 0.399770 0.571124 0.290854
C29   C     C_3   0.063118 0.410644 0.582981 0.164513
C30   C     C_3   0.909240 0.491193 0.390546 -0.577991
C31   C     C_3   0.962425 0.611067 0.529473 0.255890
C32   C     C_3   0.879028 0.501301 0.501056 -0.084485
C33   C     C_3   0.102622 0.612754 0.519390 -0.337163
C34   C     C_R   0.627204 0.717201 0.068504 -0.081867
C35   C     C_R   0.515263 0.597962 0.201266 -0.025605
C36   C     C_R   0.367941 0.311764 0.823873 -0.101528
C37   C     C_R   0.312512 0.296559 0.916349 -0.015338
C38   C     C_R   0.349201 0.373468 0.984324 -0.067089
Cl1   Cl    Cl    0.796712 0.739396 0.894192 -0.540772
Cl2   Cl    Cl    0.841884 0.359269 0.689025 -0.398207
Cl3   Cl    Cl    0.747380 0.523226 0.799000 -0.394375
Cl4   Cl    Cl    0.323231 0.115365 0.175823 -0.628149
Cl5   Cl    Cl    0.514495 0.156826 0.637690 -0.558456
Cl6   Cl    Cl    0.341002 0.737049 0.353345 -0.654020
Cl7   Cl    Cl    0.134044 0.438507 0.708702 -0.523300
Cl8   Cl    Cl    0.946555 0.643634 0.653303 -0.420376
H1    H     H_    0.877269 0.328169 0.529622 0.084540
H2    H     H_    0.235188 0.228130 0.932736 0.190808
H3    H     H_    0.348595 0.279337 0.301203 0.174533
H4    H     H_    0.378218 0.928497 0.253701 0.249963
H5    H     H_    0.699048 0.066186 0.615866 0.206296
H6    H     H_    0.053010 0.395641 0.376856 0.201365
H7    H     H_    0.690508 0.728549 0.679759 0.215538
H8    H     H_    0.774795 0.914982 0.720367 0.219531
H9    H     H_    0.085044 0.331397 0.572496 0.106677
H10   H     H_    0.844940 0.420032 0.360197 0.223765
H11   H     H_    0.933528 0.678569 0.474404 0.114591
H12   H     H_    0.133748 0.675262 0.454750 0.208257
H13   H     H_    0.162793 0.638958 0.588820 0.260315
H14   H     H_    0.893139 0.564156 0.337073 0.212071
H15   H     H_    0.097799 0.536900 0.329818 0.240596
H16   H     H_    0.631638 0.755841 0.220477 0.169439
H17   H     H_    0.693520 0.791794 0.046751 0.202372
H18   H     H_    0.395211 0.452886 0.161325 0.141428
H19   H     H_    0.328924 0.256743 0.767961 0.192394
H20   H     H_    0.294657 0.361138 0.050290 0.151752
N1    N     N_R   0.433240 0.222190 0.444680 -0.159315
N2    N     N_R   0.566070 0.776970 0.554790 -0.136485
O1    O     O_R   0.468120 0.366740 0.627160 -0.549224
O2    O     O_R   0.510770 0.544830 0.662520 -0.614227
O3    O     O_R   0.663880 0.410950 0.482330 -0.603404
O4    O     O_R   0.706530 0.589040 0.517700 -0.597421
O5    O     O_R   0.489230 0.455170 0.337480 -0.646940
O6    O     O_R   0.531880 0.633260 0.372840 -0.579772
O7    O     O_R   0.293470 0.410960 0.482300 -0.639837
O8    O     O_R   0.336120 0.589050 0.517670 -0.564887
Zn1   Zn    Zn3+2 0.471520 0.381090 0.476390 1.013094
Zn2   Zn    Zn3+2 0.528480 0.618910 0.523610 1.030780

loop_
_geom_bond_atom_site_label_1
_geom_bond_atom_site_label_2
_ccdc_geom_bond_type
C28   H1    S    
C33   H12   S    
C12   C29   S    
O2    Zn2   S    
C9    H18   S    
O1    Zn1   S    
N1    Zn1   S    
C4    O4    A    
C25   Cl5   S    
C7    C8    A    
C12   C23   S    
C28   C29   S    
C16   O6    A    
C26   N1    A    
C36   C37   A    
O8    Zn2   S    
C16   C35   S    
C5    C6    A    
C20   C25   A    
C28   Cl2   S    
C18   C19   A    
O5    Zn1   S    
O4    Zn2   S    
C38   H20   S    
C31   Cl8   S    
C30   H14   S    
C31   C33   S    
C10   C35   A    
C22   H4    S    
C33   H13   S    
C21   C22   A    
C17   H5    S    
C10   H16   S    
C27   O7    A    
C13   Cl4   S    
N2    Zn2   S    
C12   C27   S    
C16   O5    A    
C23   C30   S    
C28   C32   S    
C8    Cl3   S    
C3    C8    A    
C26   H3    S    
C36   H19   S    
C29   H9    S    
C30   H10   S    
C1    O1    A    
C6    C34   A    
C29   Cl7   S    
C25   N1    A    
C15   H8    S    
C5    C9    A    
C37   C38   A    
C2    C38   A    
C31   C32   S    
C17   C18   A    
C13   C21   A    
C19   N2    A    
C10   C34   A    
C37   H2    S    
O7    Zn1   S    
C4    C32   S    
C24   Cl6   S    
C22   C24   A    
C13   C26   A    
C2    C5    A    
C27   O8    A    
O3    Zn1   S    
C15   C17   A    
C11   C36   A    
C14   N2    A    
C6    C7    A    
C1    O2    A    
C31   H11   S    
C2    C3    A    
C30   C32   S    
C23   H6    S    
C34   H17   S    
C19   C24   A    
C18   C20   A    
C3    C11   A    
C23   H15   S    
C14   H7    S    
C20   C21   A    
O6    Zn2   S    
C9    C35   A    
C7    Cl1   S    
C14   C15   A    
C1    C11   S    
C12   C33   S    
C4    O3    A    
