data_mof_unit_68472.cif
_audit_creation_date              2012-12-11T19:51:56-0500
_audit_creation_method            fapswitch 2.2
_symmetry_space_group_name_H-M    P1
_symmetry_Int_Tables_number       1
_space_group_crystal_system       triclinic
_cell_length_a                    16.782421
_cell_length_b                    27.828123
_cell_length_c                    8.425585
_cell_angle_alpha                 90.000863
_cell_angle_beta                  104.561549
_cell_angle_gamma                 90.123044
_cell_volume                      3808.53707227

loop_
_atom_site_label
_atom_site_type_symbol
_atom_type_description
_atom_site_fract_x
_atom_site_fract_y
_atom_site_fract_z
_atom_type_partial_charge
Ba1   Ba    Ba6+2 0.000400 0.534870 0.845190 1.630855
Ba2   Ba    Ba6+2 0.000400 0.465130 0.345190 1.626707
Ba3   Ba    Ba6+2 0.500400 0.034870 0.845190 1.630814
Ba4   Ba    Ba6+2 0.500400 0.965130 0.345190 1.626584
C1    C     C_3   0.954632 0.772459 0.534099 0.212876
C2    C     C_2   0.751921 0.642345 0.409129 -0.144378
C3    C     C_3   0.436459 0.715510 0.936511 -0.377448
C4    C     C_3   0.888625 0.759509 0.625658 -0.277396
C5    C     C_3   0.831851 0.244841 0.081398 -0.467123
C6    C     C_3   0.388645 0.259566 0.625815 -0.277384
C7    C     C_3   0.332374 0.744311 0.080384 -0.466446
C8    C     C_3   0.024331 0.825418 0.772531 -0.212527
C9    C     C_3   0.016531 0.170092 0.238839 -0.210399
C10   C     C_3   0.524298 0.325481 0.772821 -0.212462
C11   C     C_3   0.514786 0.668782 0.236503 -0.212103
C12   C     C_3   0.695108 0.555109 0.857143 -0.278489
C13   C     C_2   0.243085 0.862454 0.894892 -0.157355
C14   C     C_3   0.687837 0.448045 0.345471 -0.282992
C15   C     C_3   0.194703 0.055011 0.856772 -0.278951
C16   C     C_3   0.187685 0.948002 0.345675 -0.283613
C17   C     C_2   0.252100 0.142422 0.409355 -0.143834
C18   C     C_2   0.810364 0.392701 0.900267 0.035102
C19   C     C_2   0.813175 0.608949 0.403367 0.041456
C20   C     C_2   0.310434 0.892672 0.900339 0.035123
C21   C     C_2   0.313257 0.108969 0.403444 0.041827
C22   C     C_2   0.839449 0.348806 0.670713 0.013541
C23   C     C_2   0.836827 0.650610 0.162098 -0.004199
C24   C     C_2   0.339503 0.848779 0.670728 0.013900
C25   C     C_3   0.924883 0.238560 0.098331 0.236044
C26   C     C_2   0.336900 0.150630 0.162159 -0.003986
C27   C     C_3   0.784236 0.312133 0.700577 -0.038783
C28   C     C_3   0.761180 0.677228 0.151017 -0.049773
C29   C     C_3   0.284382 0.812074 0.700709 -0.038981
C30   C     C_3   0.261324 0.177298 0.151256 -0.049617
C31   C     C_3   0.715402 0.331230 0.757029 -0.026163
C32   C     C_3   0.744699 0.685067 0.312213 0.003774
C33   C     C_3   0.215581 0.831113 0.757393 -0.026222
C34   C     C_3   0.245010 0.185167 0.312569 0.001974
C35   C     C_2   0.756882 0.275087 0.568960 -0.078994
C36   C     C_3   0.454672 0.272523 0.534318 0.212942
C37   C     C_2   0.757665 0.724576 0.060242 -0.100352
C38   C     C_2   0.256990 0.775043 0.569041 -0.079010
C39   C     C_2   0.257829 0.224639 0.060444 -0.100031
C40   C     C_2   0.239316 0.730735 0.611240 -0.101150
C41   C     C_2   0.192483 0.253593 0.035290 -0.108778
C42   C     C_2   0.739221 0.230781 0.611212 -0.101230
C43   C     C_2   0.692377 0.753570 0.035387 -0.109537
C44   C     C_R   0.251088 0.686675 0.352949 -0.019504
C45   C     C_R   0.236155 0.308706 0.828267 -0.018830
C46   C     C_R   0.750995 0.186710 0.352929 -0.020670
C47   C     C_3   0.425468 0.738443 0.097385 0.235784
C48   C     C_R   0.736117 0.808690 0.828354 -0.018911
C49   C     C_R   0.212476 0.692248 0.490216 -0.043256
C50   C     C_R   0.191614 0.301059 0.956151 -0.042674
C51   C     C_R   0.712413 0.192274 0.490232 -0.042782
C52   C     C_R   0.691539 0.801043 0.956196 -0.042670
C53   C     C_3   0.034135 0.705477 0.113003 0.378556
C54   C     C_3   0.014444 0.285243 0.626203 0.347703
C55   C     C_3   0.534134 0.205483 0.113163 0.378764
C56   C     C_3   0.515018 0.785393 0.625168 0.346826
C57   C     C_R   0.234760 0.643237 0.250560 -0.145527
C58   C     C_R   0.138814 0.615353 0.407364 -0.281456
C59   C     C_R   0.227460 0.354476 0.738369 -0.136045
C60   C     C_R   0.734708 0.143267 0.250550 -0.146162
C61   C     C_R   0.727448 0.854460 0.738428 -0.136501
C62   C     C_R   0.182025 0.609592 0.275305 0.073598
C63   C     C_R   0.177756 0.389173 0.767900 0.080431
C64   C     C_R   0.682014 0.109600 0.275330 0.073962
C65   C     C_R   0.677750 0.889168 0.767917 0.080187
C66   C     C_R   0.155114 0.654458 0.515435 -0.020604
C67   C     C_R   0.141544 0.341157 0.992647 -0.005822
C68   C     C_R   0.655080 0.154473 0.515465 -0.020606
C69   C     C_R   0.132352 0.382714 0.896101 -0.281209
C70   C     C_R   0.641525 0.841167 0.992679 -0.005611
C71   C     C_3   0.081003 0.753099 0.133245 -0.407732
C72   C     C_3   0.052764 0.235883 0.623194 -0.379529
C73   C     C_3   0.580991 0.253108 0.133429 -0.407640
C74   C     C_3   0.553351 0.736016 0.622370 -0.383038
C75   C     C_3   0.716785 0.501828 0.851464 0.335886
C76   C     C_3   0.713558 0.500918 0.348432 0.336608
C77   C     C_3   0.216792 0.001782 0.851290 0.335954
C78   C     C_3   0.213775 0.000812 0.348381 0.336602
C79   C     C_3   0.639555 0.473423 0.766336 -0.396857
C80   C     C_R   0.638810 0.115357 0.407416 -0.281388
C81   C     C_3   0.638374 0.531872 0.271160 -0.403889
C82   C     C_3   0.139833 0.973182 0.765947 -0.395879
C83   C     C_3   0.138901 0.031892 0.270233 -0.402696
C84   C     C_3   0.252228 0.472646 0.144607 0.309487
C85   C     C_3   0.257828 0.525312 0.645895 0.311435
C86   C     C_3   0.752216 0.972630 0.144810 0.309466
C87   C     C_3   0.757794 0.025332 0.645986 0.311487
C88   C     C_3   0.336148 0.446953 0.203718 -0.071951
C89   C     C_3   0.343342 0.549111 0.707920 -0.065306
C90   C     C_3   0.836151 0.946953 0.203876 -0.071801
C91   C     C_R   0.632348 0.882720 0.896118 -0.281039
C92   C     C_3   0.843244 0.049191 0.708298 -0.065598
C93   C     C_3   0.013479 0.729172 0.536500 0.360866
C94   C     C_3   0.965744 0.289227 0.120068 0.443766
C95   C     C_3   0.513505 0.229229 0.536676 0.360832
C96   C     C_3   0.465871 0.789210 0.119632 0.441713
C97   C     C_2   0.856956 0.386343 0.774478 -0.260991
C98   C     C_2   0.860378 0.616459 0.278840 -0.254508
C99   C     C_2   0.356958 0.886340 0.774420 -0.261146
C100  C     C_2   0.360421 0.116452 0.278829 -0.254571
C101  C     C_3   0.342423 0.402222 0.102740 -0.484411
C102  C     C_2   0.742900 0.362550 0.894589 -0.157795
C103  C     C_3   0.355341 0.592159 0.604156 -0.488215
C104  C     C_3   0.842295 0.902115 0.103285 -0.484117
C105  C     C_3   0.855314 0.092198 0.604411 -0.488483
C106  C     C_3   0.353839 0.433930 0.386184 -0.356620
C107  C     C_3   0.358705 0.563943 0.888524 -0.363324
C108  C     C_3   0.854032 0.934105 0.386522 -0.356283
C109  C     C_3   0.858347 0.064111 0.888780 -0.363204
C110  C     C_3   0.909908 0.782915 0.354902 -0.417962
C111  C     C_3   0.935460 0.215352 0.937574 -0.379165
C112  C     C_3   0.409975 0.283006 0.355131 -0.417993
H1    H     H_    0.977217 0.699534 0.462798 -0.054513
H2    H     H_    0.606422 0.517715 0.148303 0.099475
H3    H     H_    0.852953 0.966901 0.460609 0.127849
H4    H     H_    0.807789 0.908133 0.409036 0.150161
H5    H     H_    0.813424 0.091926 0.903909 0.137541
H6    H     H_    0.852515 0.032551 0.965374 0.136358
H7    H     H_    0.921573 0.078842 0.933973 0.095048
H8    H     H_    0.953916 0.795007 0.284508 0.108246
H9    H     H_    0.879346 0.750018 0.296916 0.102217
H10   H     H_    0.862903 0.811497 0.347169 0.144373
H11   H     H_    0.001338 0.212807 0.937216 0.100066
H12   H     H_    0.907520 0.178890 0.920283 0.116445
H13   H     H_    0.108731 0.990241 0.647415 0.101993
H14   H     H_    0.904432 0.237236 0.829785 0.104048
H15   H     H_    0.453998 0.295109 0.284789 0.108120
H16   H     H_    0.379423 0.250114 0.297100 0.102169
H17   H     H_    0.362970 0.311589 0.347401 0.144360
H18   H     H_    0.408783 0.678993 0.918463 0.116126
H19   H     H_    0.405378 0.737454 0.828917 0.103726
H20   H     H_    0.502400 0.713198 0.936514 0.099898
H21   H     H_    0.853079 0.727429 0.570256 0.102437
H22   H     H_    0.917039 0.750906 0.755339 0.176478
H23   H     H_    0.845327 0.789843 0.620567 0.097024
H24   H     H_    0.106599 0.017352 0.148053 0.099682
H25   H     H_    0.805302 0.270818 0.984350 0.108540
H26   H     H_    0.798942 0.210234 0.049890 0.140620
H27   H     H_    0.820140 0.258702 0.197002 0.147958
H28   H     H_    0.353154 0.227465 0.570466 0.102560
H29   H     H_    0.417033 0.250988 0.755525 0.176478
H30   H     H_    0.345308 0.289884 0.620604 0.096973
H31   H     H_    0.305522 0.770217 0.983298 0.108308
H32   H     H_    0.299941 0.709564 0.048937 0.141206
H33   H     H_    0.320438 0.758103 0.195885 0.146614
H34   H     H_    0.044387 0.826059 0.538790 0.187612
H35   H     H_    0.655759 0.436234 0.741211 0.078621
H36   H     H_    0.054280 0.861244 0.794891 0.088964
H37   H     H_    0.068895 0.797921 0.833238 0.144698
H38   H     H_    0.970184 0.826449 0.825490 0.108944
H39   H     H_    0.921561 0.202035 0.321078 0.217140
H40   H     H_    0.041915 0.155978 0.364621 0.086314
H41   H     H_    0.068778 0.183339 0.192642 0.127411
H42   H     H_    0.984694 0.140050 0.161435 0.091408
H43   H     H_    0.544460 0.326115 0.539148 0.187627
H44   H     H_    0.554238 0.361313 0.795196 0.089003
H45   H     H_    0.568846 0.297978 0.833597 0.144635
H46   H     H_    0.657214 0.569286 0.254939 0.071176
H47   H     H_    0.470112 0.326520 0.825690 0.108907
H48   H     H_    0.424032 0.703684 0.324083 0.219282
H49   H     H_    0.540734 0.654834 0.362311 0.086987
H50   H     H_    0.566920 0.680606 0.187307 0.125549
H51   H     H_    0.480522 0.639067 0.161258 0.092556
H52   H     H_    0.644162 0.560107 0.917884 0.071144
H53   H     H_    0.749406 0.575470 0.927906 0.106702
H54   H     H_    0.675954 0.570191 0.731192 0.086834
H55   H     H_    0.636629 0.443268 0.405910 0.073056
H56   H     H_    0.667490 0.434812 0.217122 0.088063
H57   H     H_    0.156592 0.936211 0.738933 0.078014
H58   H     H_    0.740528 0.425911 0.412634 0.116794
H59   H     H_    0.143507 0.059891 0.916970 0.071484
H60   H     H_    0.248787 0.075490 0.927889 0.106423
H61   H     H_    0.175703 0.070067 0.730768 0.086732
H62   H     H_    0.136245 0.943446 0.405554 0.073513
H63   H     H_    0.167539 0.934667 0.217433 0.087892
H64   H     H_    0.240148 0.925779 0.413409 0.116095
H65   H     H_    0.158254 0.069113 0.252247 0.070566
H66   H     H_    0.234893 0.474964 0.008943 0.008973
H67   H     H_    0.242066 0.522089 0.510399 0.010500
H68   H     H_    0.734810 0.974888 0.009128 0.008688
H69   H     H_    0.935123 0.312387 0.193604 0.090482
H70   H     H_    0.742142 0.022120 0.510491 0.010441
H71   H     H_    0.203710 0.452679 0.186319 0.046812
H72   H     H_    0.209892 0.546935 0.683280 0.035338
H73   H     H_    0.703742 0.952685 0.186743 0.047012
H74   H     H_    0.709758 0.046912 0.683203 0.035395
H75   H     H_    0.385354 0.472074 0.188278 0.119655
H76   H     H_    0.391106 0.522271 0.698843 0.120707
H77   H     H_    0.885316 0.972034 0.187937 0.119529
H78   H     H_    0.891106 0.022367 0.699636 0.120814
H79   H     H_    0.062493 0.740700 0.478021 -0.033760
H80   H     H_    0.477240 0.199610 0.462888 -0.054498
H81   H     H_    0.956180 0.306471 0.997314 -0.140577
H82   H     H_    0.562540 0.240763 0.478277 -0.033753
H83   H     H_    0.456428 0.806539 0.997035 -0.139615
H84   H     H_    0.116785 0.758011 0.261607 0.075867
H85   H     H_    0.104361 0.230723 0.732777 0.075300
H86   H     H_    0.616796 0.258005 0.261783 0.075847
H87   H     H_    0.605543 0.731102 0.730992 0.076942
H88   H     H_    0.704784 0.367641 0.979874 0.072930
H89   H     H_    0.712430 0.637243 0.491872 0.071771
H90   H     H_    0.204996 0.867538 0.980214 0.072966
H91   H     H_    0.434912 0.812210 0.193017 0.090024
H92   H     H_    0.212602 0.137342 0.492091 0.071645
H93   H     H_    0.268644 0.637827 0.158590 0.089796
H94   H     H_    0.262644 0.359898 0.648493 0.093906
H95   H     H_    0.768571 0.137891 0.158517 0.089712
H96   H     H_    0.762643 0.859871 0.648566 0.094017
H97   H     H_    0.901982 0.413184 0.761993 0.079654
H98   H     H_    0.914062 0.594358 0.283147 0.074982
H99   H     H_    0.401921 0.913206 0.761832 0.079761
H100  H     H_    0.414048 0.094312 0.283015 0.075036
H101  H     H_    0.096248 0.587687 0.423802 0.076239
H102  H     H_    0.595202 0.472437 0.844283 0.112685
H103  H     H_    0.095871 0.412246 0.922461 0.075188
H104  H     H_    0.596266 0.087680 0.423879 0.076205
H105  H     H_    0.595898 0.912265 0.922501 0.075131
H106  H     H_    0.747989 0.284572 0.440770 0.096136
H107  H     H_    0.810505 0.737413 0.021206 0.121729
H108  H     H_    0.248104 0.784534 0.440859 0.096240
H109  H     H_    0.310740 0.237522 0.021755 0.121470
H110  H     H_    0.242718 0.722928 0.738822 0.099747
H111  H     H_    0.139733 0.242284 0.076988 0.112869
H112  H     H_    0.742625 0.222995 0.738815 0.099753
H113  H     H_    0.594391 0.532023 0.349943 0.114114
H114  H     H_    0.639719 0.742282 0.077517 0.114401
H115  H     H_    0.066187 0.680324 0.047541 0.106032
H116  H     H_    0.059318 0.312435 0.605323 0.063510
H117  H     H_    0.566267 0.180311 0.047920 0.105873
H118  H     H_    0.559610 0.812536 0.602803 0.065299
H119  H     H_    0.035766 0.690644 0.235855 -0.070481
H120  H     H_    0.002371 0.290985 0.748574 -0.051555
H121  H     H_    0.535657 0.190680 0.236003 -0.070745
H122  H     H_    0.503571 0.791341 0.747963 -0.050821
H123  H     H_    0.125652 0.753316 0.055877 0.109102
H124  H     H_    0.095803 0.971481 0.844723 0.112607
H125  H     H_    0.077553 0.232689 0.513457 0.158324
H126  H     H_    0.625614 0.253341 0.056000 0.109118
H127  H     H_    0.577298 0.732527 0.511701 0.159381
H128  H     H_    0.038483 0.784023 0.099956 0.122721
H129  H     H_    0.006277 0.207282 0.621461 0.115916
H130  H     H_    0.538460 0.284029 0.100238 0.122663
H131  H     H_    0.507134 0.707421 0.622691 0.115170
H132  H     H_    0.763981 0.497990 0.782455 0.101860
H133  H     H_    0.760246 0.504719 0.278151 0.098402
H134  H     H_    0.264125 0.998094 0.782533 0.102134
H135  H     H_    0.095035 0.032715 0.349462 0.113918
H136  H     H_    0.260704 0.004365 0.278579 0.099155
H137  H     H_    0.333154 0.412020 0.971838 0.125657
H138  H     H_    0.404693 0.386094 0.144672 0.135186
H139  H     H_    0.296509 0.375091 0.117141 0.132003
H140  H     H_    0.343363 0.581746 0.473170 0.129817
H141  H     H_    0.314065 0.621653 0.619503 0.134411
H142  H     H_    0.419815 0.605387 0.644141 0.133001
H143  H     H_    0.832956 0.911801 0.972275 0.125414
H144  H     H_    0.904552 0.885970 0.145208 0.135157
H145  H     H_    0.796368 0.875038 0.118076 0.132034
H146  H     H_    0.609074 0.490146 0.646942 0.102166
H147  H     H_    0.843439 0.081738 0.473482 0.129759
H148  H     H_    0.813998 0.121701 0.619481 0.134523
H149  H     H_    0.919775 0.105439 0.644533 0.132986
H150  H     H_    0.415963 0.417612 0.428261 0.114355
H151  H     H_    0.352575 0.466635 0.460536 0.128010
H152  H     H_    0.307606 0.407878 0.408164 0.150185
H153  H     H_    0.313920 0.591791 0.904064 0.137215
H154  H     H_    0.352888 0.532359 0.965022 0.136256
H155  H     H_    0.422000 0.578596 0.933475 0.094854
H156  H     H_    0.916130 0.917747 0.428469 0.114270
N1    N     N_2   0.999979 0.816245 0.598089 -0.415206
N2    N     N_2   0.959068 0.208664 0.243370 -0.382199
N3    N     N_2   0.500023 0.316302 0.598377 -0.415236
N4    N     N_2   0.459972 0.708624 0.242397 -0.383247
O1    O     O_2   0.163830 0.569270 0.980510 -0.464159
O2    O     O_3   0.941016 0.287512 0.501849 -0.601757
O3    O     O_3   0.452191 0.212332 0.023178 -0.625086
O4    O     O_3   0.441141 0.787479 0.501937 -0.603410
O5    O     O_3   0.904940 0.476110 0.001150 -0.479390
O6    O     O_3   0.904940 0.523890 0.501150 -0.478011
O7    O     O_3   0.404940 0.976110 0.001150 -0.479401
O8    O     O_3   0.404940 0.023890 0.501150 -0.478184
O9    O     O_3   0.095420 0.524330 0.188510 -0.489085
O10   O     O_3   0.095420 0.475670 0.688510 -0.487963
O11   O     O_3   0.595420 0.024330 0.188510 -0.489164
O12   O     O_2   0.163830 0.430730 0.480510 -0.468879
O13   O     O_3   0.595420 0.975670 0.688510 -0.487941
O14   O     O_3   0.028940 0.612400 0.656050 -0.460156
O15   O     O_3   0.028940 0.387600 0.156050 -0.485508
O16   O     O_3   0.528940 0.112400 0.656050 -0.460151
O17   O     O_3   0.528940 0.887600 0.156050 -0.485355
O18   O     O_2   0.161556 0.651484 0.851130 -0.506001
O19   O     O_2   0.166487 0.348706 0.332794 -0.488936
O20   O     O_2   0.661544 0.151482 0.851144 -0.506011
O21   O     O_2   0.666559 0.848787 0.332849 -0.489123
O22   O     O_3   0.262448 0.519047 0.210727 -0.664362
O23   O     O_2   0.663830 0.069270 0.980510 -0.464152
O24   O     O_3   0.263957 0.479478 0.715796 -0.665188
O25   O     O_3   0.762460 0.019059 0.210702 -0.664353
O26   O     O_3   0.763954 0.979485 0.715807 -0.665084
O27   O     O_3   0.049817 0.712731 0.696385 -0.597904
O28   O     O_3   0.049732 0.286526 0.202166 -0.613068
O29   O     O_3   0.549798 0.212744 0.696520 -0.597799
O30   O     O_3   0.549790 0.786617 0.202378 -0.612214
O31   O     O_2   0.837400 0.570350 0.710350 -0.455743
O32   O     O_2   0.837400 0.429650 0.210350 -0.449485
O33   O     O_2   0.337400 0.070350 0.710350 -0.455701
O34   O     O_2   0.663830 0.930730 0.480510 -0.468946
O35   O     O_2   0.337400 0.929650 0.210350 -0.449639
O36   O     O_3   0.972820 0.612580 0.035550 -0.483829
O37   O     O_3   0.972820 0.387420 0.535550 -0.479855
O38   O     O_3   0.472820 0.112580 0.035550 -0.483789
O39   O     O_3   0.472820 0.887420 0.535550 -0.480003
O40   O     O_2   0.846941 0.654723 0.830803 -0.474959
O41   O     O_2   0.837060 0.350053 0.338908 -0.505399
O42   O     O_2   0.346921 0.154712 0.830820 -0.474889
O43   O     O_2   0.337139 0.850003 0.338925 -0.504965
O44   O     O_3   0.746257 0.514214 0.512053 -0.652258
O45   O     O_3   0.746682 0.485868 0.012924 -0.651553
O46   O     O_3   0.246243 0.014223 0.511970 -0.652392
O47   O     O_3   0.246674 0.985869 0.012814 -0.651702
O48   O     O_3   0.952145 0.712340 0.023299 -0.625149
P1    P     P_3+3 0.171820 0.553000 0.158080 0.966761
P2    P     P_3+3 0.896077 0.343754 0.510724 0.934381
P3    P     P_3+3 0.399412 0.157375 0.010214 0.949656
P4    P     P_3+3 0.396154 0.843716 0.510758 0.934314
P5    P     P_3+3 0.098390 0.340564 0.173024 0.947357
P6    P     P_3+3 0.101190 0.658458 0.680965 0.952301
P7    P     P_3+3 0.598455 0.840618 0.173115 0.947528
P8    P     P_3+3 0.601165 0.158471 0.681004 0.952345
P9    P     P_3+3 0.171820 0.447000 0.658080 0.966585
P10   P     P_3+3 0.671820 0.053000 0.158080 0.966761
P11   P     P_3+3 0.671820 0.947000 0.658080 0.966582
P12   P     P_3+3 0.829210 0.554130 0.532500 0.977310
P13   P     P_3+3 0.829210 0.445870 0.032500 0.973116
P14   P     P_3+3 0.329210 0.054130 0.532500 0.977079
P15   P     P_3+3 0.329210 0.945870 0.032500 0.972935
P16   P     P_3+3 0.899393 0.657368 0.010232 0.949395

loop_
_geom_bond_atom_site_label_1
_geom_bond_atom_site_label_2
_ccdc_geom_bond_type
O41   P2    D    
Ba3   O33   S    
C101  H137  S    
C73   H86   S    
C5    H27   S    
C71   H84   S    
O23   P10   D    
C47   N4    S    
C103  H142  S    
C13   H90   S    
C55   H121  S    
C21   P14   S    
C22   P2    S    
O38   P3    S    
C53   O48   S    
C78   C83   S    
Ba4   O7    S    
C58   C66   A    
C6    C36   S    
C10   H47   S    
C15   H60   S    
C2    H89   S    
C87   C92   S    
C40   C49   S    
C109  H6    S    
C87   O26   S    
C97   H97   S    
C42   C51   S    
C82   H124  S    
C11   H50   S    
C93   O27   S    
C94   O28   S    
C77   C82   S    
O39   P4    S    
Ba2   P9    S    
C81   H46   S    
C38   C40   D    
Ba1   O10   S    
C53   H119  S    
Ba2   O5    S    
O48   P16   S    
Ba3   O38   S    
C81   H113  S    
C100  H100  S    
C108  H4    S    
Ba1   P12   S    
C58   C62   S    
O13   P11   S    
C112  H17   S    
Ba3   P10   S    
Ba1   O1    S    
O3    P3    S    
C84   H66   S    
O29   P8    S    
Ba4   O17   S    
Ba3   O23   S    
C68   C80   A    
O14   P6    S    
C87   H70   S    
C24   C29   A    
C85   H72   S    
C78   O46   S    
C1    N1    S    
C101  H139  S    
C59   H94   S    
C89   H76   S    
C8    H38   S    
C65   C91   S    
C8    N1    S    
C1    C4    S    
C19   P12   S    
C77   O47   S    
C92   C105  S    
C74   H127  S    
C82   H57   S    
C10   H45   S    
O7    P15   S    
C72   H125  S    
O30   P7    S    
Ba1   O5    S    
C86   O25   S    
C93   H79   S    
C95   O29   S    
C93   H1    S    
C54   H116  S    
C18   P13   S    
C107  H154  S    
C48   C61   S    
C16   C78   S    
C8    H36   S    
C75   O45   S    
C83   H24   S    
Ba3   P14   S    
C54   C72   S    
C83   H135  S    
C69   H103  S    
C29   C38   S    
C60   C64   D    
C78   H136  S    
C94   H69   S    
Ba4   O35   S    
O26   P11   S    
C110  H10   S    
C7    H32   S    
C41   H111  S    
O16   P8    S    
C12   H53   S    
C17   C34   A    
O42   P3    D    
C28   C37   S    
C35   H106  S    
C15   H61   S    
C88   H75   S    
O17   P7    S    
C11   H51   S    
C55   H117  S    
Ba4   P15   S    
Ba3   O16   S    
H39   N2    S    
C38   H108  S    
C9    H41   S    
C7    H33   S    
C16   H63   S    
O9    P1    S    
C44   C49   S    
Ba4   O11   S    
C26   C30   A    
C58   H101  S    
C74   H87   S    
C105  H149  S    
C72   H85   S    
O22   P1    S    
C111  H12   S    
O20   P8    D    
C9    H40   S    
O46   P14   S    
C112  H16   S    
C68   P8    S    
C37   C43   D    
C6    H28   S    
C105  H148  S    
C39   C41   D    
C6    H30   S    
Ba2   O9    S    
C14   H58   S    
Ba3   O8    S    
Ba1   O36   S    
C1    C93   S    
C62   P1    S    
C84   O22   S    
O35   P15   D    
Ba3   Ba4   S    
O34   P11   D    
C47   C96   S    
C17   C21   A    
O15   P5    S    
C94   H81   S    
C30   C39   S    
O27   P6    S    
C66   P6    S    
C5    H26   S    
C28   C32   A    
C21   C100  S    
C23   C98   D    
C103  H141  S    
C20   C99   S    
C53   C71   S    
C3    H20   S    
O40   P16   D    
C88   C106  S    
C95   H82   S    
C90   C108  S    
Ba4   O8    S    
C2    C32   A    
C85   C89   S    
C15   H59   S    
C70   P7    S    
C109  H5    S    
Ba4   P11   S    
C11   H49   S    
C104  H143  S    
C15   C77   S    
C40   H110  S    
C43   C52   S    
C111  H14   S    
C55   O3    S    
C71   H123  S    
C72   H129  S    
C107  H155  S    
C77   H134  S    
C106  H152  S    
Ba2   O6    S    
C43   H114  S    
C14   H55   S    
Ba1   O31   S    
C91   H105  S    
C18   C97   S    
Ba2   O32   S    
C25   C94   S    
C17   H92   S    
O24   P9    S    
C54   H120  S    
C73   H130  S    
O31   P12   D    
C106  H151  S    
C61   H96   S    
C71   H128  S    
Ba4   O34   S    
C98   H98   S    
C84   H71   S    
C50   C67   S    
C85   H67   S    
O25   P10   S    
C63   C69   S    
C92   H78   S    
O5    P13   S    
C55   C73   S    
C101  H138  S    
C49   C66   S    
C70   C91   A    
Ba4   O39   S    
C96   H91   S    
C86   C90   S    
C79   H35   S    
C52   C70   S    
C64   C80   S    
C56   H118  S    
C3    H18   S    
C4    H22   S    
C16   H62   S    
C36   N3    S    
C95   H80   S    
C29   C33   A    
O1    P1    D    
C4    H21   S    
C83   H65   S    
C76   C81   S    
C63   P9    S    
C56   C74   S    
C26   P3    S    
Ba2   O37   S    
C104  H145  S    
C57   H93   S    
C9    N2    S    
C89   C107  S    
C23   P16   S    
C86   H68   S    
C27   C31   A    
C92   C109  S    
C107  H153  S    
C99   H99   S    
C106  H150  S    
Ba2   O12   S    
O18   P6    D    
C79   H102  S    
C23   C28   A    
H48   N4    S    
Ba2   P13   S    
C108  H3    S    
C12   C75   S    
C3    C47   S    
C75   C79   S    
C24   C99   D    
C7    H31   S    
C61   C65   D    
Ba1   O14   S    
O19   P5    D    
C81   H2    S    
O6    P12   S    
C102  H88   S    
C12   H54   S    
C88   C101  S    
C56   O4    S    
C67   P5    S    
C42   H112  S    
O33   P14   D    
O2    P2    S    
C85   O24   S    
O47   P15   S    
C45   C59   S    
C1    C110  S    
C90   H77   S    
C46   C60   S    
H34   N1    S    
C8    H37   S    
C108  H156  S    
C36   C95   S    
C16   H64   S    
C24   P4    S    
C90   C104  S    
C4    H23   S    
C22   C97   D    
Ba1   O6    S    
C53   H115  S    
C65   P11   S    
C19   C98   S    
C45   C50   S    
C111  H11   S    
Ba1   Ba2   S    
O12   P9    D    
O10   P9    S    
C57   C62   D    
C84   C88   S    
C109  H7    S    
C60   H95   S    
O37   P2    S    
C105  H147  S    
C80   H104  S    
C51   C68   S    
C5    C25   S    
C96   O30   S    
Ba3   O7    S    
C22   C27   A    
O44   P12   S    
C10   N3    S    
O36   P16   S    
C87   H74   S    
C59   C63   D    
C13   C20   A    
O8    P14   S    
C73   H126  S    
C54   O2    S    
C110  H9    S    
C5    H25   S    
C18   C102  A    
C10   H44   S    
Ba2   O15   S    
C3    H19   S    
O21   P7    D    
O45   P13   S    
C74   H131  S    
C13   C33   A    
C76   O44   S    
C37   H107  S    
C35   C42   D    
C20   P15   S    
C41   C50   S    
C76   H133  S    
C104  H144  S    
C56   H122  S    
Ba3   O13   S    
C26   C100  D    
C9    H42   S    
O4    P4    S    
O11   P10   S    
C25   N2    S    
C30   C34   A    
O28   P5    S    
C82   H13   S    
C14   H56   S    
C46   C51   S    
H43   N3    S    
C75   H132  S    
C110  H8    S    
C31   C102  A    
C89   C103  S    
C44   C57   S    
C36   C112  S    
C112  H15   S    
C12   H52   S    
C2    C19   A    
C25   C111  S    
C27   C35   S    
C103  H140  S    
C64   P10   S    
O32   P13   D    
C7    C47   S    
C6    H29   S    
C96   H83   S    
C39   H109  S    
O43   P4    D    
C14   C76   S    
C67   C69   A    
C11   N4    S    
C79   H146  S    
Ba1   P1    S    
C48   C52   S    
C86   H73   S    
