data_mof_unit_53764.cif
_audit_creation_date              2012-12-10T16:50:08-0500
_audit_creation_method            fapswitch 2.2
_symmetry_space_group_name_H-M    P1
_symmetry_Int_Tables_number       1
_space_group_crystal_system       triclinic
_cell_length_a                    7.832247
_cell_length_b                    8.577195
_cell_length_c                    10.598229
_cell_angle_alpha                 93.05329
_cell_angle_beta                  82.261413
_cell_angle_gamma                 93.970973
_cell_volume                      703.101866943

loop_
_atom_site_label
_atom_site_type_symbol
_atom_type_description
_atom_site_fract_x
_atom_site_fract_y
_atom_site_fract_z
_atom_type_partial_charge
C1    C     C_R   0.545651 0.794492 0.500744 0.856747
C2    C     C_R   0.407837 0.356160 0.940933 -0.076101
C3    C     C_R   0.477103 0.490376 0.874217 -0.177063
C4    C     C_R   0.554378 0.619816 0.934931 0.648354
C5    C     C_R   0.564007 0.617580 0.062870 -0.168547
C6    C     C_R   0.515425 0.480076 0.125311 -0.119868
C7    C     C_2   0.570501 0.957647 0.509944 0.520023
C8    C     C_2   0.431694 0.042304 0.514532 -0.464261
C9    C     C_R   0.493259 0.491403 0.739836 0.937722
C10   C     C_R   0.454370 0.205765 0.508509 0.999413
C11   C     C_R   0.502936 0.490840 0.259807 0.932655
C12   C     C_R   0.297229 0.232941 0.894622 0.191411
C13   C     C_R   0.276246 0.089772 0.953571 -0.237138
C14   C     C_R   0.363570 0.066099 0.055717 0.672464
C15   C     C_R   0.458053 0.190664 0.108912 0.148571
C16   C     C_R   0.460274 0.341793 0.060740 -0.082854
H1    H     H_    0.986621 0.623468 0.594418 0.192463
H2    H     H_    0.192577 0.995588 0.919332 0.216254
H3    H     H_    0.611162 0.721855 0.113137 0.209663
H4    H     H_    0.300598 0.990837 0.515999 0.194440
N1    N     N_2   0.950330 0.457950 0.466250 0.074729
N2    N     N_2   0.049670 0.542050 0.533750 -0.097902
O1    O     O_R   0.389250 0.738570 0.508280 -0.658979
O2    O     O_R   0.678390 0.711630 0.486650 -0.587460
O3    O     O_R   0.355400 0.513470 0.694050 -0.591431
O4    O     O_R   0.644540 0.486530 0.672420 -0.611872
O5    O     O_R   0.321610 0.288370 0.513350 -0.573493
O6    O     O_R   0.610750 0.261430 0.491720 -0.516828
O7    O     O_R   0.355460 0.513470 0.327580 -0.579480
O8    O     O_R   0.644600 0.486530 0.305950 -0.590297
Zn1   Zn    Zn3+2 0.306930 0.517990 0.514440 1.077066
Zn2   Zn    Zn3+2 0.693070 0.482010 0.485560 1.125246
F1    F     F_    0.614739 0.749685 0.870736 -0.643126
Br1   Br    Br    0.127895 0.259401 0.783969 -0.401031
F2    F     F_    0.354834 0.921878 0.103695 -0.637333
Br2   Br    Br    0.627657 0.136724 0.210192 -0.375725
F3    F     F_    0.735318 0.019584 0.512660 -0.580801
Br3   Br    Br    0.043013 0.299769 0.353448 -0.225631

loop_
_geom_bond_atom_site_label_1
_geom_bond_atom_site_label_2
_ccdc_geom_bond_type
C10   O5    A    
O3    Zn1   S    
O2    Zn2   S    
O4    Zn2   S    
C3    C9    S    
C6    C16   A    
C2    C16   A    
H1    N2    S    
C14   C15   A    
C2    C12   A    
C2    C3    A    
C7    F3    S    
C9    O3    A    
C7    C8    D    
O7    Zn1   S    
C13   C14   A    
O8    Zn2   S    
C8    H4    S    
C13   H2    S    
C5    H3    S    
N1    N2    D    
C9    O4    A    
C1    O1    A    
C5    C6    A    
N1    Zn2   S    
N2    Zn1   S    
O5    Zn1   S    
C3    C4    A    
C15   Br2   S    
O6    Zn2   S    
C12   C13   A    
C11   O7    A    
C1    O2    A    
C8    C10   S    
C10   O6    A    
C6    C11   S    
C4    F1    S    
C1    C7    S    
C12   Br1   S    
C14   F2    S    
N1    Br3   S    
C15   C16   A    
C11   O8    A    
C4    C5    A    
O1    Zn1   S    
