data_mof_unit_43419.cif
_audit_creation_date              2012-12-10T18:06:00-0500
_audit_creation_method            fapswitch 2.2
_symmetry_space_group_name_H-M    P1
_symmetry_Int_Tables_number       1
_space_group_crystal_system       triclinic
_cell_length_a                    12.598655
_cell_length_b                    13.183422
_cell_length_c                    14.923703
_cell_angle_alpha                 89.88691
_cell_angle_beta                  102.105572
_cell_angle_gamma                 83.486019
_cell_volume                      2407.11511398

loop_
_atom_site_label
_atom_site_type_symbol
_atom_type_description
_atom_site_fract_x
_atom_site_fract_y
_atom_site_fract_z
_atom_type_partial_charge
C1    C     C_R   0.440060 0.690954 0.483937 0.931293
C2    C     C_R   0.420480 0.574392 0.799478 -0.066631
C3    C     C_R   0.499828 0.507818 0.768336 -0.135070
C4    C     C_R   0.499949 0.501765 0.672630 0.930167
C5    C     C_R   0.580400 0.445088 0.827991 -0.266276
C6    C     C_R   0.717532 0.064253 0.458477 -0.182536
C7    C     C_R   0.594282 0.200298 0.501762 -0.056913
C8    C     C_R   0.298696 0.837490 0.475563 -0.159265
C9    C     C_R   0.262230 0.940563 0.461011 -0.195999
C10   C     C_R   0.333491 0.008559 0.443837 -0.025271
C11   C     C_R   0.445482 0.972464 0.449400 0.039363
C12   C     C_R   0.583378 0.439909 0.107487 0.120792
C13   C     C_R   0.473860 0.867349 0.440480 -0.040439
C14   C     C_R   0.530165 0.036365 0.463085 0.116247
C15   C     C_R   0.634534 0.999840 0.447399 0.151483
C16   C     C_R   0.560203 0.308650 0.509649 0.848995
C17   C     C_R   0.652567 0.901278 0.416531 -0.266965
C18   C     C_R   0.571130 0.836048 0.408389 -0.113503
C19   C     C_R   0.515165 0.133744 0.497483 -0.193936
C20   C     C_R   0.696785 0.165048 0.483957 -0.205489
C21   C     C_R   0.403347 0.799388 0.463814 -0.112550
C22   C     C_R   0.080017 0.369212 0.354265 -0.037837
C23   C     C_R   0.333583 0.621761 0.020790 -0.208471
C24   C     C_R   0.801898 0.628225 0.609080 0.029411
C25   C     C_R   0.907069 0.656320 0.630215 -0.234031
C26   C     C_R   0.986866 0.607979 0.587882 -0.173022
C27   C     C_R   0.962353 0.530331 0.524583 0.020669
C28   C     C_R   0.500525 0.496957 0.327482 0.913667
C29   C     C_R   0.853456 0.505713 0.504308 0.265598
C30   C     C_R   0.040542 0.478676 0.478813 -0.030093
C31   C     C_R   0.005799 0.411414 0.406863 0.132507
C32   C     C_R   0.898059 0.387904 0.389283 -0.265408
C33   C     C_R   0.824741 0.431838 0.439262 -0.188317
C34   C     C_R   0.336560 0.629911 0.928735 -0.172018
C35   C     C_R   0.152468 0.491059 0.501469 -0.056405
C36   C     C_R   0.188264 0.389059 0.378095 0.014546
C37   C     C_R   0.584480 0.439849 0.200624 -0.244558
C38   C     C_R   0.499142 0.495371 0.231753 -0.006494
C39   C     C_R   0.412540 0.551349 0.171909 -0.174474
C40   C     C_R   0.413785 0.557433 0.079676 0.113662
C41   C     C_R   0.498338 0.500262 0.046655 0.065544
C42   C     C_2   0.284646 0.107465 0.398154 0.879412
C43   C     C_2   0.580122 0.747860 0.348014 0.985599
C44   C     C_1   0.047360 0.308167 0.275000 0.170485
C45   C     C_R   0.416949 0.569711 0.892949 0.040791
C46   C     C_2   0.349514 0.653190 0.735537 0.886619
C47   C     C_R   0.498433 0.504158 0.953183 0.050897
C48   C     C_R   0.581591 0.443873 0.920645 0.125526
C49   C     C_R   0.664486 0.382800 0.981050 -0.198803
C50   C     C_R   0.666077 0.381713 0.074404 -0.197122
H1    H     H_    0.650189 0.395780 0.248681 0.131886
H2    H     H_    0.186504 0.537122 0.557389 0.157147
H3    H     H_    0.739281 0.665763 0.641304 0.149728
H4    H     H_    0.065737 0.634780 0.603424 0.166844
H5    H     H_    0.926478 0.716084 0.678501 0.162194
H6    H     H_    0.745453 0.407136 0.424406 0.198454
H7    H     H_    0.269764 0.667529 0.046342 0.153606
H8    H     H_    0.274895 0.683468 0.886890 0.195700
H9    H     H_    0.641794 0.396493 0.801653 0.152937
H10   H     H_    0.728554 0.336692 0.956130 0.155377
H11   H     H_    0.731425 0.335154 0.120576 0.156603
H12   H     H_    0.728293 0.876773 0.394981 0.172714
H13   H     H_    0.759107 0.215836 0.486672 0.161239
H14   H     H_    0.281122 0.204218 0.292206 0.334069
H15   H     H_    0.421535 0.773518 0.280906 0.293764
H16   H     H_    0.198996 0.723833 0.684591 0.326923
H17   H     H_    0.796949 0.037683 0.444591 0.146056
H18   H     H_    0.440249 0.159754 0.519235 0.154693
H19   H     H_    0.243329 0.786956 0.492595 0.167071
H20   H     H_    0.177187 0.966502 0.459799 0.175179
H21   H     H_    0.246332 0.361629 0.337333 0.132386
H22   H     H_    0.869787 0.334022 0.337477 0.156582
H23   H     H_    0.347191 0.594069 0.198112 0.157341
N1    N     N_R   0.222190 0.444670 0.452360 -0.116060
N2    N     N_R   0.776970 0.554790 0.547140 -0.128279
N3    N     N_1   0.021265 0.259299 0.211563 -0.201359
O1    O     O_R   0.366740 0.627160 0.477250 -0.617619
O2    O     O_R   0.329438 0.145228 0.328474 -0.797393
O3    O     O_2   0.669064 0.698977 0.350292 -0.570601
O4    O     O_R   0.489539 0.723645 0.283715 -0.818356
O5    O     O_2   0.391151 0.709410 0.691127 -0.643262
O6    O     O_R   0.236175 0.663169 0.725699 -0.841033
O7    O     O_R   0.544830 0.662520 0.507680 -0.616496
O8    O     O_R   0.410940 0.482340 0.616930 -0.615371
O9    O     O_R   0.589030 0.517700 0.647360 -0.615810
O10   O     O_R   0.455170 0.337480 0.492320 -0.600876
O11   O     O_R   0.633260 0.372840 0.522750 -0.654188
O12   O     O_R   0.410970 0.482300 0.352640 -0.643363
O13   O     O_R   0.589060 0.517660 0.383070 -0.597945
O14   O     O_2   0.202416 0.152571 0.417301 -0.643797
Zn1   Zn    Zn3+2 0.381090 0.476390 0.479680 0.967001
Zn2   Zn    Zn3+2 0.618910 0.523610 0.520320 0.970936

loop_
_geom_bond_atom_site_label_1
_geom_bond_atom_site_label_2
_ccdc_geom_bond_type
C35   N1    A    
C1    C21   S    
C10   C42   S    
C1    O1    A    
C32   H22   S    
C2    C46   S    
O7    Zn2   S    
C8    H19   S    
C37   C38   A    
C49   H10   S    
C13   C18   A    
O10   Zn1   S    
C30   C31   A    
C37   H1    S    
C11   C14   A    
C27   C29   A    
C43   O3    D    
C23   C40   A    
C29   C33   A    
C23   H7    S    
C12   C37   A    
C44   N3    T    
C6    C15   A    
C46   O6    S    
O1    Zn1   S    
C47   C48   A    
C8    C9    A    
C28   O12   A    
C16   O11   A    
C28   O13   A    
O8    Zn1   S    
C9    C10   A    
C36   H21   S    
C33   H6    S    
H15   O4    S    
O11   Zn2   S    
C27   C30   A    
C16   O10   A    
C26   H4    S    
O9    Zn2   S    
C8    C21   A    
C45   C47   A    
C2    C45   A    
C5    C48   A    
C22   C44   S    
C22   C31   A    
C5    H9    S    
C24   C25   A    
C39   C40   A    
C4    O9    A    
C25   C26   A    
C42   O14   D    
N1    Zn1   S    
C12   C41   A    
C17   H12   S    
H16   O6    S    
C46   O5    D    
C31   C32   A    
C4    O8    A    
O12   Zn1   S    
C28   C38   S    
C23   C34   A    
C17   C18   A    
C41   C47   A    
C13   C21   A    
C19   H18   S    
C34   C45   A    
C9    H20   S    
O13   Zn2   S    
C36   N1    A    
N2    Zn2   S    
C30   C35   A    
C7    C16   S    
C42   O2    S    
C7    C19   A    
C26   C27   A    
C49   C50   A    
C3    C4    S    
C6    C20   A    
C15   C17   A    
C48   C49   A    
H14   O2    S    
C14   C19   A    
C25   H5    S    
C3    C5    A    
C12   C50   A    
C24   N2    A    
C29   N2    A    
C1    O7    A    
C22   C36   A    
C32   C33   A    
C20   H13   S    
C2    C3    A    
C24   H3    S    
C6    H17   S    
C18   C43   S    
C11   C13   A    
C38   C39   A    
C43   O4    S    
C39   H23   S    
C10   C11   A    
C7    C20   A    
C35   H2    S    
C34   H8    S    
C50   H11   S    
C14   C15   A    
C40   C41   A    
