data_mof_unit_17323.cif
_audit_creation_date              2012-12-10T18:48:41-0500
_audit_creation_method            fapswitch 2.2
_symmetry_space_group_name_H-M    P1
_symmetry_Int_Tables_number       1
_space_group_crystal_system       triclinic
_cell_length_a                    15.903696
_cell_length_b                    14.367506
_cell_length_c                    10.086397
_cell_angle_alpha                 90.000725
_cell_angle_beta                  89.99902
_cell_angle_gamma                 89.99985
_cell_volume                      2304.70588408

loop_
_atom_site_label
_atom_site_type_symbol
_atom_type_description
_atom_site_fract_x
_atom_site_fract_y
_atom_site_fract_z
_atom_type_partial_charge
C1    C     C_R   0.124650 0.386203 0.501651 0.910835
C2    C     C_R   0.990237 0.418356 0.930114 0.203697
C3    C     C_R   0.003676 0.417937 0.071610 0.172892
C4    C     C_R   0.003657 0.582062 0.928391 0.172949
C5    C     C_R   0.503672 0.082062 0.071611 0.172910
C6    C     C_R   0.503660 0.917937 0.928388 0.172917
C7    C     C_R   0.490217 0.918361 0.069881 0.203673
C8    C     C_R   0.490230 0.081641 0.930118 0.203686
C9    C     C_R   0.790093 0.268666 0.381083 0.122081
C10   C     C_R   0.245787 0.686707 0.605248 0.101216
C11   C     C_R   0.211302 0.729340 0.378669 0.136674
C12   C     C_R   0.875473 0.614060 0.501345 0.924424
C13   C     C_R   0.755857 0.311151 0.608060 0.094153
C14   C     C_R   0.211346 0.270725 0.621346 0.136757
C15   C     C_R   0.755839 0.688821 0.391952 0.094105
C16   C     C_R   0.790077 0.731313 0.618918 0.122077
C17   C     C_R   0.245821 0.313346 0.394763 0.101209
C18   C     C_R   0.255832 0.811191 0.391953 0.094164
C19   C     C_R   0.711333 0.229297 0.621341 0.136729
C20   C     C_R   0.745807 0.186671 0.394755 0.101213
C21   C     C_R   0.290069 0.768702 0.618921 0.122090
C22   C     C_R   0.745795 0.813309 0.605247 0.101221
C23   C     C_R   0.875476 0.385934 0.498655 0.924348
C24   C     C_R   0.290104 0.231348 0.381090 0.122075
C25   C     C_R   0.255864 0.188868 0.608065 0.094093
C26   C     C_R   0.711316 0.770676 0.378666 0.136699
C27   C     C_R   0.198182 0.672952 0.491264 -0.195268
C28   C     C_R   0.802701 0.325609 0.493104 -0.183812
C29   C     C_R   0.802689 0.674372 0.506899 -0.183844
C30   C     C_R   0.198212 0.327096 0.508742 -0.195241
C31   C     C_R   0.698201 0.172922 0.508738 -0.195269
C32   C     C_R   0.302684 0.825637 0.506900 -0.183837
C33   C     C_R   0.302707 0.174403 0.493109 -0.183814
C34   C     C_R   0.124641 0.613812 0.498348 0.910876
C35   C     C_R   0.698191 0.827062 0.491262 -0.195259
C36   C     C_3   0.936782 0.660570 0.125113 -0.339365
C37   C     C_3   0.982086 0.737377 0.201035 -0.713250
C38   C     C_3   0.936873 0.339374 0.874857 -0.339265
C39   C     C_3   0.982244 0.262615 0.798929 -0.713245
C40   C     C_3   0.014540 0.325495 0.144408 -0.384562
C41   C     C_3   0.102423 0.285795 0.130874 -0.697578
C42   C     C_3   0.014501 0.674508 0.855601 -0.384602
C43   C     C_3   0.102370 0.714243 0.869170 -0.697472
C44   C     C_3   0.514531 0.174506 0.144407 -0.384566
C45   C     C_R   0.624644 0.886193 0.498348 0.910869
C46   C     C_3   0.602407 0.214221 0.130846 -0.697468
C47   C     C_3   0.514505 0.825492 0.855591 -0.384563
C48   C     C_3   0.602373 0.785753 0.869163 -0.697488
C49   C     C_3   0.436809 0.839414 0.125123 -0.339304
C50   C     C_3   0.482136 0.762629 0.201056 -0.713314
C51   C     C_3   0.436839 0.160602 0.874875 -0.339309
C52   C     C_3   0.482179 0.237381 0.798951 -0.713349
C53   C     C_R   0.375477 0.114068 0.498656 0.924388
C54   C     C_R   0.375472 0.885943 0.501345 0.924390
C55   C     C_R   0.624646 0.113803 0.501651 0.910850
C56   C     C_R   0.990211 0.581638 0.069882 0.203667
H1    H     H_    0.012588 0.711210 0.291227 0.282685
H2    H     H_    0.884560 0.368764 0.820261 0.257756
H3    H     H_    0.148641 0.341609 0.112489 0.303121
H4    H     H_    0.118936 0.247887 0.223056 0.259058
H5    H     H_    0.105464 0.234978 0.048642 0.269816
H6    H     H_    0.000255 0.332980 0.249293 0.271203
H7    H     H_    0.970667 0.270204 0.114095 0.212899
H8    H     H_    0.148611 0.658441 0.887549 0.303115
H9    H     H_    0.118881 0.752175 0.776999 0.259038
H10   H     H_    0.105379 0.765048 0.951433 0.269850
H11   H     H_    0.000242 0.667021 0.750707 0.271203
H12   H     H_    0.028853 0.772513 0.137427 0.262241
H13   H     H_    0.970601 0.729777 0.885915 0.212887
H14   H     H_    0.618931 0.252124 0.223036 0.259045
H15   H     H_    0.648635 0.158412 0.112426 0.303110
H16   H     H_    0.605424 0.265048 0.048615 0.269822
H17   H     H_    0.470646 0.229787 0.114096 0.212889
H18   H     H_    0.500258 0.167023 0.249296 0.271195
H19   H     H_    0.618892 0.747839 0.776979 0.259046
H20   H     H_    0.648613 0.841550 0.887575 0.303113
H21   H     H_    0.605375 0.734931 0.951403 0.269826
H22   H     H_    0.470603 0.770222 0.885891 0.212884
H23   H     H_    0.935372 0.790442 0.232549 0.251601
H24   H     H_    0.500246 0.832981 0.750697 0.271200
H25   H     H_    0.529026 0.727628 0.137544 0.262297
H26   H     H_    0.512485 0.788775 0.291383 0.282630
H27   H     H_    0.435470 0.709456 0.232344 0.251606
H28   H     H_    0.384514 0.868848 0.179716 0.257767
H29   H     H_    0.399471 0.804866 0.048114 0.208510
H30   H     H_    0.529094 0.272347 0.862453 0.262316
H31   H     H_    0.512499 0.211241 0.708595 0.282612
H32   H     H_    0.435528 0.290582 0.767711 0.251617
H33   H     H_    0.384540 0.131182 0.820277 0.257773
H34   H     H_    0.899432 0.695099 0.048104 0.208548
H35   H     H_    0.399503 0.195153 0.951884 0.208513
H36   H     H_    0.884499 0.631117 0.179712 0.257777
H37   H     H_    0.012394 0.288740 0.708403 0.282539
H38   H     H_    0.029313 0.227805 0.862344 0.262365
H39   H     H_    0.935634 0.209278 0.767952 0.251612
H40   H     H_    0.899548 0.304806 0.951865 0.208463
I1    I     I_    0.798078 0.321253 0.184516 -0.344336
I2    I     I_    0.700610 0.177984 0.818639 -0.298358
I3    I     I_    0.775728 0.072605 0.268075 -0.243661
I4    I     I_    0.298024 0.821314 0.815475 -0.344303
I5    I     I_    0.775717 0.927364 0.731944 -0.243682
I6    I     I_    0.298069 0.178752 0.184530 -0.344364
I7    I     I_    0.224251 0.075534 0.735537 -0.269068
I8    I     I_    0.700580 0.821967 0.181360 -0.298389
I9    I     I_    0.275728 0.572650 0.731926 -0.243674
I10   I     I_    0.200532 0.678064 0.181356 -0.298396
I11   I     I_    0.724274 0.424487 0.735554 -0.268988
I12   I     I_    0.200655 0.322063 0.818638 -0.298344
I13   I     I_    0.724229 0.575463 0.264518 -0.269023
I14   I     I_    0.798025 0.678701 0.815468 -0.344322
I15   I     I_    0.275747 0.427415 0.268096 -0.243675
I16   I     I_    0.224245 0.924548 0.264504 -0.268969
N1    N     N_R   0.000000 0.500000 0.857200 -0.123502
N2    N     N_R   0.000000 0.500000 0.142800 -0.123524
N3    N     N_R   0.500000 0.000000 0.857200 -0.123515
N4    N     N_R   0.500000 0.000000 0.142800 -0.123512
O1    O     O_R   0.091610 0.408380 0.614620 -0.590461
O2    O     O_R   0.408390 0.091620 0.385380 -0.613689
O3    O     O_R   0.408390 0.091620 0.614620 -0.621176
O4    O     O_R   0.591610 0.908380 0.385380 -0.590495
O5    O     O_R   0.408390 0.908380 0.385380 -0.621185
O6    O     O_R   0.591610 0.091620 0.614620 -0.590494
O7    O     O_R   0.591610 0.091620 0.385380 -0.611545
O8    O     O_R   0.408390 0.908380 0.614620 -0.613704
O9    O     O_R   0.908390 0.591620 0.385380 -0.621157
O10   O     O_R   0.908390 0.591620 0.614620 -0.613696
O11   O     O_R   0.091610 0.408380 0.385380 -0.611550
O12   O     O_R   0.908390 0.408380 0.385380 -0.613692
O13   O     O_R   0.091610 0.591620 0.614620 -0.611535
O14   O     O_R   0.091610 0.591620 0.385380 -0.590538
O15   O     O_R   0.908390 0.408380 0.614620 -0.621214
O16   O     O_R   0.591610 0.908380 0.614620 -0.611541
Zn1   Zn    Zn3+2 0.000000 0.500000 0.653120 0.984728
Zn2   Zn    Zn3+2 0.000000 0.500000 0.346880 0.984695
Zn3   Zn    Zn3+2 0.500000 0.000000 0.653120 0.984717
Zn4   Zn    Zn3+2 0.500000 0.000000 0.346880 0.984712

loop_
_geom_bond_atom_site_label_1
_geom_bond_atom_site_label_2
_ccdc_geom_bond_type
C10   C27   A    
C7    N4    A    
C11   C18   A    
C12   C29   S    
C15   I13   S    
O11   Zn2   S    
C41   H5    S    
C13   I11   S    
C19   C31   A    
C16   I14   S    
C22   C35   A    
C37   H23   S    
C40   H7    S    
N3    Zn3   S    
C49   H28   S    
C36   C37   S    
C18   I16   S    
O16   Zn3   S    
C38   C39   S    
C2    N1    A    
C12   O10   A    
C37   H12   S    
C40   H6    S    
C54   O5    A    
C48   H20   S    
C39   H37   S    
C8    N3    A    
C51   H35   S    
C38   H2    S    
O10   Zn1   S    
C43   H8    S    
C9    I1    S    
C13   C28   A    
C46   H16   S    
C26   I8    S    
C36   H36   S    
C14   I12   S    
C55   O6    A    
O1    Zn1   S    
C10   C21   A    
N1    Zn1   S    
C4    C56   A    
C17   C30   A    
C48   H19   S    
O14   Zn2   S    
C47   H24   S    
C14   C30   A    
C17   I15   S    
C32   C54   S    
C19   I2    S    
C44   C46   S    
C50   H27   S    
C15   C29   A    
C27   C34   S    
C33   C53   S    
O6    Zn3   S    
C21   C32   A    
C55   O7    A    
C17   C24   A    
C6    C47   S    
C13   C19   A    
C51   C52   S    
C49   H29   S    
C4    N1    A    
C52   H32   S    
C41   H3    S    
C21   I4    S    
C53   O2    A    
C25   I7    S    
C15   C26   A    
C12   O9    A    
C16   C29   A    
C42   H13   S    
O3    Zn3   S    
O4    Zn4   S    
C48   H21   S    
C39   H38   S    
C36   C56   S    
O12   Zn2   S    
C2    C38   S    
C9    C20   A    
C47   C48   S    
C11   C27   A    
C43   H9    S    
C39   H39   S    
C11   I10   S    
N2    Zn2   S    
C23   O15   A    
C1    O1    A    
C23   C28   S    
C44   H18   S    
C22   I5    S    
C8    C51   S    
C7    C49   S    
C46   H15   S    
O13   Zn1   S    
C45   O4    A    
C40   C41   S    
C5    C44   S    
C3    C40   S    
C5    N4    A    
C42   H11   S    
C18   C32   A    
C42   C43   S    
C35   C45   S    
O2    Zn4   S    
C50   H26   S    
C50   H25   S    
C36   H34   S    
C54   O8    A    
C16   C22   A    
O8    Zn3   S    
C34   O13   A    
C52   H31   S    
C1    O11   A    
C41   H4    S    
O15   Zn1   S    
C3    N2    A    
C5    C8    A    
C53   O3    A    
C6    C7    A    
N4    Zn4   S    
C24   C33   A    
O7    Zn4   S    
C52   H30   S    
C2    C3    A    
O9    Zn2   S    
C14   C25   A    
C51   H33   S    
C20   I3    S    
C4    C42   S    
C43   H10   S    
C1    C30   S    
C24   I6    S    
O5    Zn4   S    
C44   H17   S    
C6    N3    A    
C46   H14   S    
C26   C35   A    
C34   O14   A    
C45   O16   A    
C49   C50   S    
C38   H40   S    
C56   N2    A    
C10   I9    S    
C47   H22   S    
C31   C55   S    
C37   H1    S    
C9    C28   A    
C25   C33   A    
C23   O12   A    
C20   C31   A    
