data_mof_unit_18654.cif
_audit_creation_date              2012-12-10T19:47:23-0500
_audit_creation_method            fapswitch 2.2
_symmetry_space_group_name_H-M    P1
_symmetry_Int_Tables_number       1
_space_group_crystal_system       triclinic
_cell_length_a                    10.887248
_cell_length_b                    10.769154
_cell_length_c                    12.769756
_cell_angle_alpha                 92.996007
_cell_angle_beta                  91.407689
_cell_angle_gamma                 89.61229
_cell_volume                      1494.6883694

loop_
_atom_site_label
_atom_site_type_symbol
_atom_type_description
_atom_site_fract_x
_atom_site_fract_y
_atom_site_fract_z
_atom_type_partial_charge
C1    C     C_R   0.261966 0.500005 0.501966 0.802454
C2    C     C_R   0.738034 0.499997 0.498034 0.802459
C3    C     C_R   0.497053 0.871491 0.498623 -0.074131
C4    C     C_R   0.502946 0.128510 0.501380 -0.074123
C5    C     C_R   0.408721 0.935398 0.439213 0.018905
C6    C     C_R   0.591283 0.064602 0.560787 0.018911
C7    C     C_R   0.208051 0.504481 0.863829 -0.208175
C8    C     C_R   0.791977 0.495565 0.136159 -0.208191
C9    C     C_R   0.163803 0.473091 0.762700 -0.119689
C10   C     C_R   0.836252 0.526952 0.237282 -0.119755
C11   C     C_R   0.120078 0.566057 0.698622 0.060224
C12   C     C_R   0.879914 0.433974 0.301377 0.060249
C13   C     C_R   0.119603 0.690372 0.737097 -0.215381
C14   C     C_R   0.880291 0.309648 0.262930 -0.215356
C15   C     C_R   0.163605 0.723715 0.838576 0.558982
C16   C     C_R   0.836277 0.276318 0.161453 0.558903
C17   C     C_R   0.209839 0.628600 0.901476 -0.227621
C18   C     C_R   0.790106 0.371438 0.098535 -0.227526
C19   C     C_R   0.935185 0.534033 0.589484 -0.241160
C20   C     C_R   0.064813 0.465976 0.410515 -0.241171
C21   C     C_R   0.871664 0.501421 0.495471 -0.082527
C22   C     C_R   0.128335 0.498585 0.504529 -0.082530
C23   C     C_R   0.502559 0.262168 0.500465 0.797622
C24   C     C_R   0.497443 0.737832 0.499535 0.797617
C25   C     C_R   0.937635 0.467872 0.404477 0.012701
C26   C     C_R   0.062363 0.532145 0.595522 0.012715
C27   C     C_2   0.487493 0.452667 0.032295 0.087313
C28   C     C_2   0.512507 0.547330 0.967705 0.087344
C29   C     C_1   0.517577 0.529687 0.852202 0.203632
C30   C     C_1   0.482423 0.470311 0.147798 0.203668
C31   C     C_R   0.903389 0.205552 0.632612 -0.109691
C32   C     C_R   0.096688 0.794347 0.367283 -0.109678
C33   C     C_R   0.811508 0.136957 0.576630 0.187154
C34   C     C_R   0.188526 0.862960 0.423303 0.187146
C35   C     C_R   0.693124 0.129705 0.619312 0.082385
C36   C     C_R   0.306916 0.870287 0.380649 0.082418
C37   C     C_R   0.670314 0.188003 0.717796 -0.129279
C38   C     C_R   0.329778 0.812039 0.282157 -0.129268
C39   C     C_R   0.761760 0.257502 0.771367 -0.146473
C40   C     C_R   0.238379 0.742514 0.228552 -0.146505
C41   C     C_R   0.878117 0.265902 0.729237 -0.157013
C42   C     C_R   0.122013 0.734043 0.270650 -0.157095
C43   C     C_R   0.586805 0.935834 0.559368 -0.224709
C44   C     C_R   0.413192 0.064167 0.440638 -0.224725
Cu1   Cu    Cu3+1 0.492140 0.492110 0.395880 0.977964
Cu2   Cu    Cu3+1 0.507860 0.507890 0.604120 0.977930
H1    H     H_    0.948577 0.319540 0.771619 0.134475
H2    H     H_    0.051588 0.680384 0.228240 0.134477
H3    H     H_    0.082303 0.761594 0.688612 0.147536
H4    H     H_    0.917529 0.238413 0.311431 0.147516
H5    H     H_    0.885689 0.560523 0.659980 0.169805
H6    H     H_    0.114307 0.439486 0.340018 0.169799
H7    H     H_    0.994402 0.213301 0.601234 0.130701
H8    H     H_    0.005670 0.786542 0.398639 0.130714
H9    H     H_    0.580377 0.182425 0.751643 0.138451
H10   H     H_    0.419723 0.817669 0.248333 0.138440
H11   H     H_    0.741885 0.305807 0.845185 0.121224
H12   H     H_    0.258301 0.694241 0.154732 0.121228
H13   H     H_    0.655050 0.885392 0.603976 0.144909
H14   H     H_    0.344949 0.114607 0.396026 0.144897
H15   H     H_    0.248069 0.648834 0.978998 0.129874
H16   H     H_    0.751857 0.351182 0.021020 0.129936
H17   H     H_    0.241298 0.432376 0.913177 0.163103
H18   H     H_    0.758770 0.567677 0.086801 0.163113
H19   H     H_    0.162771 0.376480 0.734477 0.126332
H20   H     H_    0.837346 0.623569 0.265490 0.126336
N1    N     N_1   0.480320 0.480250 0.239400 -0.168055
N2    N     N_1   0.519680 0.519750 0.760600 -0.168068
O1    O     O_R   0.313000 0.493330 0.412070 -0.578470
O2    O     O_R   0.687000 0.506670 0.587930 -0.578477
O3    O     O_R   0.326280 0.506660 0.587930 -0.570225
O4    O     O_R   0.673720 0.493340 0.412070 -0.570208
O5    O     O_R   0.493370 0.312980 0.412070 -0.572783
O6    O     O_R   0.506630 0.687020 0.587930 -0.572791
O7    O     O_R   0.506650 0.326310 0.587930 -0.580611
O8    O     O_R   0.493350 0.673690 0.412070 -0.580585
O9    O     O_3   0.163572 0.850045 0.868673 -0.587597
C45   C     C_3   0.158452 0.873089 0.978268 -0.334683
H21   H     H_    0.250621 0.860268 0.015499 0.167305
H22   H     H_    0.088148 0.814852 0.013987 0.157436
H23   H     H_    0.131475 0.971657 0.994243 0.199784
O10   O     O_3   0.836168 0.149994 0.131364 -0.587588
C46   C     C_3   0.841887 0.126973 0.021800 -0.334627
H24   H     H_    0.912390 0.185228 0.986360 0.157332
H25   H     H_    0.749911 0.139783 0.984215 0.167362
H26   H     H_    0.868951 0.028415 0.005917 0.199866
C47   C     C_3   0.533280 0.679097 0.010531 -0.919561
H27   H     H_    0.461977 0.741063 0.977515 0.243433
H28   H     H_    0.530078 0.689640 0.097229 0.229475
H29   H     H_    0.624660 0.711091 0.986589 0.234993
C48   C     C_3   0.466722 0.320899 0.989468 -0.919577
H30   H     H_    0.538034 0.258934 0.022473 0.243542
H31   H     H_    0.375347 0.288901 0.013420 0.234960
H32   H     H_    0.469907 0.310361 0.902769 0.229466
C49   C     C_3   0.840154 0.073050 0.472356 -0.894633
H33   H     H_    0.777088 0.107630 0.410601 0.250333
H34   H     H_    0.936184 0.090254 0.449832 0.231322
H35   H     H_    0.828441 0.971124 0.476385 0.232571
C50   C     C_3   0.159830 0.926799 0.527593 -0.894633
H36   H     H_    0.222884 0.892196 0.589345 0.250306
H37   H     H_    0.171521 0.028734 0.523608 0.232576
H38   H     H_    0.063796 0.909555 0.550084 0.231320

loop_
_geom_bond_atom_site_label_1
_geom_bond_atom_site_label_2
_ccdc_geom_bond_type
C47   H27   S    
C49   H33   S    
C49   H35   S    
C39   C41   A    
C15   O9    S    
Cu1   Cu2   S    
C3    C43   A    
C1    O3    A    
C2    C21   S    
Cu1   O8    S    
C28   C29   S    
C19   C21   A    
C45   H22   S    
C20   C25   A    
C39   H11   S    
C5    C36   S    
C6    C35   S    
Cu1   O5    S    
C19   C26   A    
C17   H15   S    
C50   H36   S    
C7    C17   A    
Cu1   N1    S    
C31   C33   A    
C27   C48   S    
C30   N1    T    
C43   H13   S    
C40   C42   A    
C1    C22   S    
Cu1   O4    S    
C3    C24   S    
C23   O5    A    
C2    O4    A    
C33   C49   S    
C32   H8    S    
Cu2   O7    S    
C9    H19   S    
C10   H20   S    
C40   H12   S    
Cu1   O1    S    
C4    C6    A    
C23   O7    A    
C48   H30   S    
C4    C23   S    
C45   H21   S    
C24   O8    A    
C4    C44   A    
C11   C26   S    
O9    C45   S    
C1    O1    A    
C32   C34   A    
Cu2   N2    S    
C48   H31   S    
C29   N2    T    
C46   H24   S    
C46   H26   S    
C28   C47   S    
C16   O10   S    
C34   C50   S    
C41   H1    S    
C42   H2    S    
C31   H7    S    
C9    C11   A    
C7    H17   S    
Cu2   O3    S    
C10   C12   A    
C8    H18   S    
C13   H3    S    
C16   C18   A    
C46   H25   S    
C5    C44   A    
C20   C22   A    
C6    C43   A    
C13   C15   A    
C14   C16   A    
Cu2   O6    S    
C7    C9    A    
C21   C25   A    
C31   C41   A    
C35   C37   A    
C18   H16   S    
C12   C14   A    
C3    C5    A    
C49   H34   S    
C15   C17   A    
C12   C25   S    
C20   H6    S    
C36   C38   A    
C37   C39   A    
C48   H32   S    
C38   C40   A    
C11   C13   A    
C45   H23   S    
C24   O6    A    
C14   H4    S    
C44   H14   S    
C33   C35   A    
C34   C36   A    
C8    C18   A    
Cu2   O2    S    
C37   H9    S    
C19   H5    S    
C50   H38   S    
C38   H10   S    
C8    C10   A    
O10   C46   S    
C22   C26   A    
C47   H29   S    
C27   C28   D    
C47   H28   S    
C32   C42   A    
C2    O2    A    
C50   H37   S    
C27   C30   S    
