data_mof_unit_25402.cif
_audit_creation_date              2012-12-11T17:06:35-0500
_audit_creation_method            fapswitch 2.2
_symmetry_space_group_name_H-M    P1
_symmetry_Int_Tables_number       1
_space_group_crystal_system       triclinic
_cell_length_a                    6.966603
_cell_length_b                    14.576274
_cell_length_c                    15.936822
_cell_angle_alpha                 90.557948
_cell_angle_beta                  89.882353
_cell_angle_gamma                 90.076775
_cell_volume                      1618.25672964

loop_
_atom_site_label
_atom_site_type_symbol
_atom_type_description
_atom_site_fract_x
_atom_site_fract_y
_atom_site_fract_z
_atom_type_partial_charge
O1    O     O_R   0.494400 0.415450 0.412630 -0.545661
O2    O     O_R   0.823940 0.405730 0.586760 -0.513103
O3    O     O_R   0.994240 0.584550 0.587370 -0.533608
C1    C     C_R   0.654978 0.383252 0.614814 0.791482
O4    O     O_R   0.824110 0.404430 0.413240 -0.543227
O5    O     O_R   0.994420 0.583240 0.412620 -0.548296
C2    C     C_R   0.655169 0.381198 0.385101 0.678729
O6    O     O_R   0.494230 0.416760 0.587380 -0.543193
O7    O     O_3   0.660800 0.558670 0.500000 -0.368777
V1    V     V_3+5 0.935650 0.489120 0.500000 1.469892
O8    O     O_R   0.324140 0.594270 0.413240 -0.545899
C3    C     C_R   0.156078 0.613763 0.382329 0.657424
O9    O     O_R   0.323960 0.595570 0.586760 -0.514784
C4    C     C_R   0.155108 0.617435 0.615705 0.713974
V2    V     V_3+5 0.435660 0.510880 0.500000 1.460699
O10   O     O_3   0.160640 0.441330 0.500000 -0.366265
C5    C     C_3   0.060352 0.667346 0.773836 -0.212014
C6    C     C_3   0.233881 0.717532 0.814720 -0.217780
H1    H     H_    0.318158 0.693122 0.869144 0.121809
H2    H     H_    0.999711 0.600728 0.794318 0.128758
C7    C     C_3   0.122345 0.808740 0.810438 -0.110988
C8    C     C_3   0.948801 0.759306 0.770580 -0.028571
C9    C     C_3   0.033068 0.778002 0.682159 -0.187163
C10   C     C_3   0.206542 0.828469 0.722802 -0.237990
C11   C     C_3   0.314804 0.736545 0.726498 0.683161
C12   C     C_3   0.144208 0.686790 0.686092 -0.091945
H3    H     H_    0.797485 0.769649 0.790195 0.179093
H4    H     H_    0.949956 0.802062 0.627262 0.145318
H5    H     H_    0.268799 0.894722 0.702233 0.128706
C13   C     C_R   0.280805 0.809739 0.234972 0.050232
C14   C     C_R   0.119016 0.815401 0.183029 -0.080892
C15   C     C_R   0.967882 0.753629 0.198327 -0.179892
H6    H     H_    0.843643 0.753783 0.158116 0.129226
C16   C     C_R   0.981472 0.687254 0.261882 -0.186569
H7    H     H_    0.867088 0.638657 0.270012 0.138315
C17   C     C_R   0.147077 0.679267 0.311217 -0.076989
C18   C     C_R   0.298671 0.738806 0.293033 0.093325
C19   C     C_3   0.497796 0.717483 0.262619 0.113858
C20   C     C_3   0.484459 0.802244 0.208147 -0.440099
H8    H     H_    0.607842 0.722111 0.312759 0.108185
H9    H     H_    0.500708 0.789123 0.139613 0.185366
H10   H     H_    0.571650 0.860737 0.232238 0.144096
C21   C     C_R   0.516109 0.321727 0.748476 0.009891
C22   C     C_R   0.647872 0.314587 0.682449 -0.274736
C23   C     C_R   0.780916 0.241786 0.684816 0.575653
C24   C     C_R   0.770167 0.173867 0.747370 0.170500
C25   C     C_R   0.626579 0.179352 0.811276 -0.239670
C26   C     C_R   0.506355 0.256350 0.811196 0.052645
C27   C     C_3   0.292705 0.262940 0.816032 -0.364480
C28   C     C_3   0.303768 0.334612 0.747448 -0.347857
H11   H     H_    0.243018 0.291308 0.877303 0.158717
H12   H     H_    0.220566 0.198625 0.795495 0.190572
H13   H     H_    0.261145 0.404332 0.769312 0.152558
H14   H     H_    0.237520 0.311722 0.687385 0.228335
C29   C     C_R   0.490733 0.312679 0.258848 0.085360
C30   C     C_R   0.646740 0.314764 0.314178 -0.102367
C31   C     C_R   0.799183 0.253929 0.297523 -0.164269
H15   H     H_    0.922199 0.252725 0.338601 0.146795
C32   C     C_R   0.788262 0.189547 0.231180 -0.180741
H16   H     H_    0.903875 0.140875 0.222931 0.130674
C33   C     C_R   0.624240 0.183905 0.179670 -0.110886
C34   C     C_R   0.479678 0.248959 0.193274 0.106745
C35   C     C_3   0.270224 0.234556 0.206752 -0.406763
C36   C     C_3   0.282221 0.304290 0.277960 -0.397846
H17   H     H_    0.237737 0.163925 0.228341 0.168173
H18   H     H_    0.183360 0.258526 0.152817 0.175144
H19   H     H_    0.256261 0.274328 0.340863 0.181755
H20   H     H_    0.202438 0.368593 0.265076 0.161937
O11   O     O_R   0.771650 0.079500 0.908680 -0.543271
O12   O     O_R   0.441690 0.091800 0.082800 -0.539370
O13   O     O_R   0.271460 0.912980 0.083410 -0.537499
C37   C     C_R   0.610649 0.113661 0.112071 0.698076
O14   O     O_R   0.441930 0.090510 0.909280 -0.541295
O15   O     O_R   0.271690 0.911670 0.908660 -0.536626
C38   C     C_R   0.611331 0.110813 0.879275 0.746139
O16   O     O_R   0.771410 0.080810 0.083440 -0.540232
O17   O     O_3   0.605100 0.937580 0.996050 -0.371826
V3    V     V_3+5 0.330220 0.007110 0.996030 1.395117
O18   O     O_R   0.941980 0.900620 0.909250 -0.543831
C39   C     C_R   0.110988 0.878502 0.880511 0.712831
O19   O     O_R   0.941740 0.901920 0.082770 -0.545773
C40   C     C_R   0.110354 0.880768 0.112205 0.692021
V4    V     V_3+5 0.830220 0.985300 0.996000 1.387466
O20   O     O_3   0.105210 0.054870 0.996020 -0.373462
F1    F     F_    0.913223 0.232134 0.622589 -0.681276
N1    N     N_2   0.893382 0.096584 0.738793 -0.484140
H21   H     H_    0.975924 0.081637 0.790331 0.256861
C41   C     C_3   0.805376 0.017031 0.699971 -0.461991
H22   H     H_    0.917297 0.965123 0.686361 0.187243
H23   H     H_    0.696642 0.986582 0.742561 0.168310
H24   H     H_    0.736438 0.035908 0.639735 0.212463
F2    F     F_    0.504004 0.724455 0.702766 -0.715717
N2    N     N_2   0.507790 0.635330 0.209549 -0.504217
H25   H     H_    0.606446 0.639869 0.161432 0.250849
C42   C     C_3   0.516258 0.547687 0.250777 -0.489143
H26   H     H_    0.583903 0.496126 0.208337 0.162387
H27   H     H_    0.369262 0.523222 0.264653 0.196982
H28   H     H_    0.602721 0.552299 0.309015 0.189143

loop_
_geom_bond_atom_site_label_1
_geom_bond_atom_site_label_2
_ccdc_geom_bond_type
C19   H8    S    
C29   C30   A    
C35   H17   S    
N2    H25   S    
O12   V3    S    
C6    C7    S    
C23   F1    S    
C42   H26   S    
C1    O6    A    
O19   C40   A    
C42   H28   S    
C20   H9    S    
C23   C24   A    
C28   H14   S    
C14   C40   S    
C5    C12   S    
C36   H20   S    
C17   C18   A    
C18   C19   S    
C16   H7    S    
O5    C3    A    
C19   C20   S    
N1    C41   S    
C31   C32   A    
O17   V4    S    
V2    O10   S    
C29   C34   A    
C5    H2    S    
C30   C31   A    
C19   N2    S    
C6    H1    S    
C9    C12   S    
C10   H5    S    
O8    V2    S    
V4    O20   S    
C27   H11   S    
C9    C10   S    
O1    V2    S    
C3    C17   S    
C21   C26   A    
C37   O16   A    
O13   C40   A    
C35   H18   S    
C32   H16   S    
N2    C42   S    
O15   C39   A    
O9    C4    A    
O14   C38   A    
C6    C11   S    
C2    C30   S    
O16   V4    S    
O19   V4    S    
C20   H10   S    
C32   C33   A    
C28   H13   S    
C36   H19   S    
C10   C11   S    
O4    C2    A    
N1    H21   S    
C1    C22   S    
C11   C12   S    
O17   V3    S    
O18   C39   A    
C13   C18   A    
C15   C16   A    
O2    C1    A    
C21   C22   A    
C34   C35   S    
O11   V4    S    
C25   C26   A    
C41   H24   S    
O14   V3    S    
C27   H12   S    
C29   C36   S    
C5    C6    S    
C9    H4    S    
C4    C12   S    
O3    C4    A    
C33   C37   S    
C26   C27   S    
C41   H23   S    
O6    V2    S    
C8    H3    S    
O9    V2    S    
O2    V1    S    
C22   C23   A    
O7    V1    S    
C24   C25   A    
C11   F2    S    
O1    C2    A    
C14   C15   A    
O5    V1    S    
O8    C3    A    
C42   H27   S    
C21   C28   S    
C5    C8    S    
C15   H6    S    
O7    V2    S    
C25   C38   S    
O4    V1    S    
O3    V1    S    
V1    O10   S    
O18   V4    S    
C31   H15   S    
C13   C14   A    
C7    C39   S    
C13   C20   S    
O11   C38   A    
C16   C17   A    
C33   C34   A    
C35   C36   S    
V3    O20   S    
C41   H22   S    
C27   C28   S    
O15   V3    S    
C7    C10   S    
C8    C9    S    
O12   C37   A    
C7    C8    S    
O13   V3    S    
C24   N1    S    
