data_mof_unit_67042.cif
_audit_creation_date              2013-03-05T15:58:15-0500
_audit_creation_method            fapswitch 2.2
_symmetry_space_group_name_H-M    P1
_symmetry_Int_Tables_number       1
_space_group_crystal_system       triclinic
_cell_length_a                    8.224999
_cell_length_b                    12.732783
_cell_length_c                    14.176454
_cell_angle_alpha                 92.276578
_cell_angle_beta                  90.577272
_cell_angle_gamma                 98.432658
_cell_volume                      1467.25947477

loop_
_atom_site_label
_atom_site_type_symbol
_atom_site_description
_atom_site_fract_x
_atom_site_fract_y
_atom_site_fract_z
_atom_type_partial_charge
P1    P     P_3+3 0.054400 0.427280 0.286870 0.457291
O1    O     O_2   0.887370 0.460630 0.272300 -0.371763
O2    O     O_3   0.129410 0.451380 0.388510 -0.409876
O3    O     O_3   0.670210 0.653170 0.329170 -0.392522
O4    O     O_2   0.805210 0.605350 0.164468 -0.364492
O5    O     O_3   0.010326 0.289673 0.270380 -0.573362
O6    O     O_3   0.666143 0.778607 0.170410 -0.530773
H1    H     H_    0.645466 0.854604 0.300705 0.086597
C1    C     C_3   0.542541 0.938489 0.190697 -0.826139
H2    H     H_    0.470768 0.982321 0.240330 0.250249
H3    H     H_    0.657321 0.991745 0.176701 0.226195
P2    P     P_3+3 0.668300 0.742890 0.573060 0.451200
P3    P     P_3+3 0.143041 0.841902 0.369792 0.411047
O7    O     O_2   0.845380 0.761330 0.544970 -0.383647
O8    O     O_3   0.088930 0.704860 0.376040 -0.371934
O9    O     O_2   0.995262 0.896408 0.402208 -0.425880
O10   O     O_3   0.680736 0.761714 0.696117 -0.577808
O11   O     O_3   0.186553 0.874706 0.252109 -0.635946
C2    C     C_3   0.052930 0.843625 0.189912 1.087972
H4    H     H_    0.968425 0.776024 0.216122 0.074009
C3    C     C_3   0.964418 0.937906 0.174997 -0.949350
H5    H     H_    0.881010 0.923650 0.112275 0.272327
H6    H     H_    0.891800 0.948809 0.238302 0.225042
C4    C     C_3   0.226604 0.764466 0.661034 0.384024
H7    H     H_    0.352054 0.747824 0.646509 0.096506
H8    H     H_    0.145301 0.742782 0.598107 0.134312
C5    C     C_3   0.232094 0.882455 0.683937 -0.919381
H9    H     H_    0.307348 0.905112 0.748644 0.234610
H10   H     H_    0.287069 0.929765 0.625449 0.230986
H11   H     H_    0.105852 0.900630 0.696025 0.278256
Ba1   Ba    Ba6+2 0.855630 0.555280 0.454520 1.551790
C6    C     C_3   0.966659 0.245233 0.356698 0.425931
H12   H     H_    0.855611 0.274747 0.383284 0.098019
H13   H     H_    0.066965 0.263378 0.410037 0.150730
C7    C     C_3   0.933587 0.126517 0.340333 -0.984306
H14   H     H_    0.828033 0.106281 0.290374 0.265613
H15   H     H_    0.904473 0.086076 0.406472 0.252485
H16   H     H_    0.046156 0.099293 0.311961 0.277829
C8    C     C_3   0.714539 0.669286 0.737400 0.379569
H17   H     H_    0.831126 0.647755 0.710207 0.107940
H18   H     H_    0.613286 0.602588 0.723130 0.133970
C9    C     C_3   0.731231 0.691076 0.843632 -0.895463
H19   H     H_    0.835541 0.755371 0.859727 0.293071
H20   H     H_    0.753712 0.618730 0.879485 0.227242
H21   H     H_    0.616447 0.716092 0.871449 0.248416
P4    P     P_3+3 0.135310 0.572810 0.713130 0.460338
O12   O     O_2   0.302330 0.539400 0.727760 -0.382909
O13   O     O_3   0.060300 0.548700 0.611500 -0.405858
O14   O     O_3   0.519500 0.346920 0.670840 -0.368548
O15   O     O_3   0.168226 0.709536 0.739947 -0.558344
P5    P     P_3+3 0.057325 0.156722 0.630034 0.442369
O16   O     O_3   0.614310 0.373510 0.452640 -0.393986
O17   O     O_3   0.100780 0.295230 0.623970 -0.387244
O18   O     O_2   0.183843 0.110522 0.566927 -0.379559
O19   O     O_3   0.104277 0.120439 0.743899 -0.523218
Ba2   Ba    Ba6+2 0.334200 0.444810 0.545490 1.539710
P6    P     P_3+3 0.652542 0.647382 0.205886 0.467867
C10   C     C_3   0.575101 0.834877 0.233406 0.398049
H22   H     H_    0.454303 0.787881 0.249274 0.125286
H23   H     H_    0.473716 0.922225 0.122913 0.310721
O20   O     O_3   0.575400 0.626570 0.547370 -0.397692
C11   C     C_3   0.474045 0.297950 0.257820 0.418564
H24   H     H_    0.351634 0.313401 0.282305 0.098017
H25   H     H_    0.566050 0.370544 0.269834 0.109720
C12   C     C_3   0.461598 0.270478 0.152292 -0.970802
H26   H     H_    0.368187 0.199121 0.138002 0.280602
H27   H     H_    0.424868 0.337753 0.113912 0.208876
H28   H     H_    0.582409 0.253988 0.125898 0.270248
P7    P     P_3+3 0.527903 0.240758 0.426103 0.418828
O21   O     O_2   0.344320 0.238700 0.455090 -0.381611
O22   O     O_3   0.522883 0.212188 0.304212 -0.575127
H29   H     H_    0.053553 0.010657 0.164000 0.266864
C13   C     C_3   0.055805 0.195068 0.809512 0.434303
H30   H     H_    0.134038 0.273363 0.803911 0.142092
H31   H     H_    0.925215 0.204493 0.798430 0.053206
C14   C     C_3   0.075146 0.157138 0.908952 -0.823253
H32   H     H_    0.206010 0.152174 0.924937 0.277924
H33   H     H_    0.031147 0.213550 0.961102 0.215149
H34   H     H_    0.002393 0.077250 0.915729 0.278659
P8    P     P_3+3 0.535296 0.344625 0.793484 0.460819
C15   C     C_3   0.541478 0.142464 0.774522 0.462522
H35   H     H_    0.662531 0.176404 0.746360 -0.006856
O23   O     O_2   0.409527 0.411361 0.835200 -0.417524
O24   O     O_3   0.465207 0.216041 0.828384 -0.509941
H36   H     H_    0.459742 0.111282 0.713753 0.053206
C16   C     C_3   0.567533 0.050890 0.836208 -0.062694
H37   H     H_    0.619909 0.989548 0.792849 0.102141
H38   H     H_    0.447420 0.015200 0.864726 0.146335
C17   C     C_R   0.987193 0.436110 0.060638 -0.122204
C18   C     C_R   0.186978 0.487714 0.193909 0.270203
C19   C     C_R   0.343726 0.533804 0.223573 -0.512491
C20   C     C_R   0.460186 0.573153 0.159260 0.266072
C21   C     C_R   0.419897 0.570753 0.062988 -0.194016
C22   C     C_R   0.259086 0.530546 0.031242 0.096325
C23   C     C_R   0.142825 0.483373 0.095976 0.004121
H39   H     H_    0.376465 0.538615 0.297945 0.174132
C24   C     C_R   0.056883 0.494121 0.900724 -0.018607
C25   C     C_R   0.944037 0.440661 0.964528 0.052941
C26   C     C_R   0.009830 0.496503 0.803276 0.260657
C27   C     C_R   0.856110 0.444047 0.773007 -0.544609
C28   C     C_R   0.743082 0.397261 0.836875 0.255778
C29   C     C_R   0.786673 0.394443 0.932060 -0.274189
C30   C     C_R   0.212369 0.541218 0.936643 -0.010451
H40   H     H_    0.510114 0.606756 0.014266 0.149877
H41   H     H_    0.697557 0.356750 0.980578 0.164109
H42   H     H_    0.819917 0.445128 0.699496 0.177998
H43   H     H_    0.897864 0.395260 0.107009 0.159983
H44   H     H_    0.299792 0.586336 0.892047 0.155383
C31   C     C_R   0.754749 0.177093 0.548702 -0.506524
C32   C     C_R   0.425080 0.815092 0.470088 -0.559409
C33   C     C_R   0.398133 0.996191 0.440339 -0.207392
C34   C     C_R   0.333674 0.888883 0.435783 0.267718
C35   C     C_R   0.574067 0.847595 0.517864 0.299619
C36   C     C_R   0.636687 0.957862 0.530160 -0.061656
C37   C     C_R   0.548321 0.032690 0.488267 -0.068799
C38   C     C_R   0.612339 0.142009 0.495524 0.294596
C39   C     C_R   0.846563 0.105068 0.586664 0.192436
C40   C     C_R   0.786416 0.995928 0.579553 -0.213663
H45   H     H_    0.328221 0.049620 0.406219 0.194013
H46   H     H_    0.859954 0.942499 0.610546 0.182625
H47   H     H_    0.802509 0.261025 0.553262 0.167667
H48   H     H_    0.377378 0.731345 0.461655 0.182468
O25   O     O_3   0.675135 0.088474 0.911235 -0.709194
H49   H     H_    0.685154 0.026087 0.949542 0.344166
S1    S     S_3+6 0.127345 0.804314 0.077870 -0.059789
O26   O     O_2   0.277580 0.753592 0.093100 -0.351593
O27   O     O_2   0.997586 0.726294 0.027344 -0.305636
O28   O     O_3   0.176369 0.910659 0.011407 -0.562064
H50   H     H_    0.212618 0.881493 0.950603 0.371561

loop_
_geom_bond_atom_site_label_1
_geom_bond_atom_site_label_2
_geom_bond_distance
_ccdc_geom_bond_type
O5    C6    1.396728 S    
P4    C26   1.863729 S    
P7    C38   1.836424 S    
P1    C18   1.838851 S    
P6    C20   1.823206 S    
C5    H10   1.105521 S    
C13   H30   1.110564 S    
Ba1   O20   2.906703 S    
C33   C34   1.389943 A    
C4    C5    1.518384 S    
Ba1   O16   2.818453 S    
P8    O24   1.746684 S    
O28   H50   0.990986 S    
C36   C37   1.424106 A    
C31   C39   1.391075 A    
O25   H49   0.992607 S    
C8    H18   1.109618 S    
C21   C22   1.408968 A    
P3    O11   1.763354 S    
C2    C3    1.513009 S    
C4    H8    1.110619 S    
C1    C10   1.530547 S    
P3    C34   1.828223 S    
C16   H38   1.112168 S    
C37   C38   1.413471 A    
P1    Ba1   3.395547 S    
C29   H41   1.083460 S    
C33   H45   1.078293 S    
P1    O1    1.510867 D    
O10   C8    1.397225 S    
P7    O22   1.750481 S    
C20   C21   1.399283 A    
C11   H25   1.111655 S    
O16   P7    1.759399 S    
C31   C38   1.393508 A    
H1    C10   1.111517 S    
C19   H39   1.082686 S    
C7    H14   1.108704 S    
C12   H27   1.109368 S    
P2    O10   1.751343 S    
S1    O28   1.683072 S    
C14   H34   1.110136 S    
C30   H44   1.078710 S    
Ba1   Ba2   4.560845 S    
C1    H2    1.108536 S    
O7    Ba1   2.886921 S    
O6    C10   1.411250 S    
C15   C16   1.523390 S    
C3    H5    1.110219 S    
C5    H11   1.109947 S    
C13   H31   1.108457 S    
P7    O21   1.565666 D    
C9    H20   1.107398 S    
P8    O23   1.540155 D    
C21   H40   1.083306 S    
C24   C26   1.433579 A    
C24   C25   1.422497 A    
C8    C9    1.521608 S    
C32   C34   1.385866 A    
C4    O15   1.394888 S    
P4    O13   1.562705 S    
C3    H29   1.111056 S    
P1    O5    1.742248 S    
C28   C29   1.395911 A    
C18   C23   1.428385 A    
C7    H16   1.108936 S    
C14   H32   1.109086 S    
C19   C20   1.383089 A    
C16   H37   1.113248 S    
O11   C2    1.402554 S    
C10   H22   1.112054 S    
C25   C29   1.405881 A    
C17   C25   1.410077 A    
C2    S1    1.787271 S    
C15   H35   1.110404 S    
O1    Ba1   2.837638 S    
P1    O2    1.562821 S    
C9    H21   1.110865 S    
C6    H13   1.106100 S    
C17   C23   1.410287 A    
C6    C7    1.504330 S    
C11   H24   1.110237 S    
O2    Ba2   2.788776 S    
C26   C27   1.395500 A    
C12   H28   1.110810 S    
C17   H43   1.080430 S    
C24   C30   1.411418 A    
C4    H7    1.103135 S    
O2    Ba1   2.917958 S    
C1    H3    1.103246 S    
C32   C35   1.394249 A    
C36   C40   1.422139 A    
P2    O7    1.501288 D    
C22   C30   1.408551 A    
Ba2   O21   2.887136 S    
Ba1   O13   2.788202 S    
P3    O8    1.742416 S    
P2    Ba1   3.423033 S    
S1    O26   1.493448 D    
C13   C14   1.522472 S    
C9    H19   1.110651 S    
C8    H17   1.104299 S    
C15   O24   1.406932 S    
C35   C36   1.426027 A    
O17   Ba2   2.773098 S    
O13   Ba2   2.918719 S    
P4    O12   1.511227 D    
C11   C12   1.521746 S    
C7    H15   1.099241 S    
C14   H33   1.110368 S    
O8    Ba1   2.772510 S    
O14   Ba2   2.777182 S    
P4    O15   1.748044 S    
C27   H42   1.082101 S    
O14   P8    1.743918 S    
O4    P6    1.547561 D    
P8    C28   1.832626 S    
C1    H23   1.107069 S    
C6    H12   1.101761 S    
P5    O18   1.544588 D    
C2    H4    1.103267 S    
C3    H6    1.098477 S    
C39   C40   1.404378 A    
C32   H48   1.082364 S    
P2    O20   1.590503 S    
C31   H47   1.082338 S    
C18   C19   1.389596 A    
C27   C28   1.391510 A    
P5    C39   1.851393 S    
C11   O22   1.402399 S    
P2    C35   1.834149 S    
P5    O19   1.751351 S    
C22   C23   1.417868 A    
C40   H46   1.077390 S    
O3    Ba1   2.777783 S    
O19   C13   1.405511 S    
C12   H26   1.111012 S    
P3    O9    1.550335 D    
P4    Ba2   3.396002 S    
C16   O25   1.399984 S    
S1    O27   1.502026 D    
Ba2   O20   2.817786 S    
C33   C37   1.411807 A    
P5    O17   1.753053 S    
O6    P6    1.752233 S    
C15   H36   1.111134 S    
O16   Ba2   2.905923 S    
O3    P6    1.750028 S    
O12   Ba2   2.838138 S    
C5    H9    1.105878 S    
