data_mof_unit_36519.cif
_audit_creation_date              2012-12-10T19:07:01-0500
_audit_creation_method            fapswitch 2.2
_symmetry_space_group_name_H-M    P1
_symmetry_Int_Tables_number       1
_space_group_crystal_system       triclinic
_cell_length_a                    27.784426
_cell_length_b                    10.842497
_cell_length_c                    9.558979
_cell_angle_alpha                 90.747268
_cell_angle_beta                  89.400883
_cell_angle_gamma                 90.880776
_cell_volume                      2878.93024269

loop_
_atom_site_label
_atom_site_type_symbol
_atom_type_description
_atom_site_fract_x
_atom_site_fract_y
_atom_site_fract_z
_atom_type_partial_charge
C1    C     C_R   0.498638 0.262487 0.499134 0.823599
C2    C     C_R   0.278753 0.489528 0.376767 -0.090099
C3    C     C_R   0.253396 0.502105 0.503378 0.344023
C4    C     C_R   0.101605 0.502854 0.509071 -0.046979
C5    C     C_R   0.126505 0.402073 0.562756 -0.026734
C6    C     C_R   0.100511 0.301870 0.617240 -0.126430
C7    C     C_R   0.127743 0.601988 0.450228 -0.026070
C8    C     C_R   0.354423 0.501115 0.501663 -0.045379
C9    C     C_R   0.645560 0.500577 0.498715 -0.037643
C10   C     C_R   0.973680 0.395343 0.547014 0.050585
C11   C     C_R   0.975324 0.615937 0.485028 -0.021266
C12   C     C_R   0.407452 0.500324 0.500560 0.826837
C13   C     C_R   0.949230 0.505042 0.513180 0.038566
C14   C     C_R   0.946360 0.285650 0.565905 -0.183130
C15   C     C_R   0.896471 0.284861 0.556903 -0.124409
C16   C     C_R   0.871957 0.393505 0.530068 -0.016828
C17   C     C_R   0.898217 0.504013 0.508980 -0.046940
C18   C     C_R   0.873358 0.613602 0.484686 -0.076743
C19   C     C_R   0.822840 0.610469 0.480018 0.557791
C20   C     C_R   0.821510 0.394437 0.524212 0.539273
C21   C     C_R   0.720810 0.491675 0.624871 -0.102416
C22   C     C_R   0.670661 0.491487 0.625056 -0.219478
C23   C     C_R   0.499022 0.737879 0.500522 0.800015
C24   C     C_R   0.671616 0.510197 0.372307 -0.214698
C25   C     C_R   0.721849 0.510993 0.372546 -0.099594
C26   C     C_R   0.746535 0.501492 0.498788 0.356675
C27   C     C_R   0.024526 0.398578 0.559234 0.040682
C28   C     C_R   0.050563 0.503976 0.512772 0.071512
C29   C     C_R   0.026041 0.609690 0.467289 0.055878
C30   C     C_R   0.050452 0.299500 0.614626 -0.185726
C31   C     C_R   0.102904 0.699174 0.390722 -0.136769
C32   C     C_R   0.949258 0.727900 0.478389 0.231304
C33   C     C_R   0.899132 0.724759 0.473149 -0.147983
C34   C     C_R   0.592540 0.500211 0.499455 0.793450
C35   C     C_R   0.052880 0.701584 0.396759 -0.140643
C36   C     C_R   0.488121 0.066089 0.622503 0.184556
C37   C     C_R   0.492996 0.129608 0.497356 -0.107439
C38   C     C_R   0.490848 0.062676 0.370688 -0.206070
C39   C     C_R   0.491201 0.933984 0.371937 -0.199108
C40   C     C_R   0.493823 0.871184 0.499787 -0.103846
C41   C     C_R   0.488452 0.939087 0.624075 0.135760
C42   C     C_3   0.517022 0.939329 0.755545 -0.507590
C43   C     C_3   0.516446 0.078825 0.753469 -0.435098
C44   C     C_R   0.539352 0.541362 0.072968 0.245449
C45   C     C_R   0.177036 0.403931 0.560265 0.544404
C46   C     C_R   0.464912 0.440490 0.075988 -0.107166
C47   C     C_R   0.465256 0.437632 0.927681 0.313887
C48   C     C_R   0.539499 0.540621 0.926011 0.204306
C49   C     C_3   0.563313 0.663967 0.921031 -0.500737
C50   C     C_3   0.562764 0.665620 0.080098 -0.476263
C51   C     C_R   0.178242 0.599738 0.448990 0.544779
C52   C     C_R   0.278551 0.514526 0.629070 -0.096247
C53   C     C_R   0.328738 0.514287 0.628335 -0.170420
C54   C     C_R   0.328940 0.489017 0.375759 -0.207510
Cu1   Cu    Cu3+1 0.500000 0.499980 0.640670 0.983677
Cu2   Cu    Cu3+1 0.500000 0.500020 0.359330 0.952750
H1    H     H_    0.347715 0.478668 0.276532 0.166184
H2    H     H_    0.259142 0.524859 0.727254 0.148895
H3    H     H_    0.121981 0.773243 0.337812 0.195352
H4    H     H_    0.653263 0.517372 0.273453 0.151692
H5    H     H_    0.880237 0.811106 0.466008 0.216306
H6    H     H_    0.741628 0.518525 0.274746 0.140250
H7    H     H_    0.035549 0.773212 0.339480 0.193467
H8    H     H_    0.491574 0.109041 0.270983 0.172897
H9    H     H_    0.491891 0.884673 0.272776 0.163234
H10   H     H_    0.495788 0.901553 0.844812 0.205517
H11   H     H_    0.259501 0.479592 0.279251 0.149153
H12   H     H_    0.553719 0.901799 0.739343 0.204239
H13   H     H_    0.495120 0.119778 0.840923 0.229348
H14   H     H_    0.552634 0.121538 0.736083 0.198216
H15   H     H_    0.436528 0.393063 0.133086 0.171411
H16   H     H_    0.600103 0.660204 0.874519 0.198781
H17   H     H_    0.539382 0.732233 0.875890 0.214805
H18   H     H_    0.599340 0.662690 0.125749 0.194370
H19   H     H_    0.538850 0.737033 0.125904 0.209330
H20   H     H_    0.118778 0.223884 0.660939 0.195917
H21   H     H_    0.651615 0.483878 0.724072 0.154765
H22   H     H_    0.739774 0.484557 0.722759 0.139614
H23   H     H_    0.877153 0.198363 0.571714 0.201116
H24   H     H_    0.962718 0.197773 0.583670 0.180948
H25   H     H_    0.032910 0.219954 0.660120 0.163377
H26   H     H_    0.347335 0.525049 0.726780 0.188593
N1    N     N_R   0.201770 0.502034 0.504414 -0.469567
N2    N     N_R   0.798110 0.501909 0.499481 -0.469719
N3    N     N_R   0.500300 0.500930 0.147930 -0.206789
N4    N     N_R   0.500310 0.500890 0.852020 -0.207489
O1    O     O_R   0.500000 0.319640 0.618810 -0.548834
O2    O     O_2   0.795997 0.288899 0.543039 -0.527243
O3    O     O_2   0.203655 0.694875 0.394118 -0.526276
O4    O     O_2   0.798573 0.715181 0.457709 -0.526967
O5    O     O_R   0.500010 0.319680 0.381230 -0.588562
O6    O     O_R   0.430260 0.500000 0.618780 -0.540165
O7    O     O_R   0.430270 0.500040 0.381190 -0.593879
O8    O     O_R   0.499990 0.680320 0.618770 -0.578983
O9    O     O_R   0.500000 0.680360 0.381190 -0.584160
O10   O     O_R   0.569730 0.499960 0.618810 -0.586284
O11   O     O_R   0.569740 0.500000 0.381220 -0.581315
O12   O     O_2   0.201288 0.308030 0.611982 -0.519917
Br1   Br    Br    0.976858 0.889989 0.511274 -0.560516
Br2   Br    Br    0.417654 0.331729 0.843525 -0.537426

loop_
_geom_bond_atom_site_label_1
_geom_bond_atom_site_label_2
_ccdc_geom_bond_type
C10   C27   A    
C1    O1    A    
Cu2   O9    S    
C21   C26   A    
C40   C41   A    
C41   C42   S    
Cu1   Cu2   S    
C49   H17   S    
Cu1   O6    S    
C16   C20   A    
C34   O10   A    
C45   O12   S    
C4    C7    A    
C5    C6    A    
C9    C22   A    
C23   C40   S    
C19   N2    A    
C34   O11   A    
C18   C19   A    
C31   H3    S    
Cu2   O5    S    
C15   H23   S    
C16   C17   A    
C49   H16   S    
C21   H22   S    
C36   C37   A    
C14   H24   S    
C1    C37   S    
C46   N3    A    
C1    O5    A    
C21   C22   A    
C27   C30   A    
C42   H12   S    
C39   H9    S    
C36   C41   A    
C45   N1    A    
Cu2   O11   S    
Cu1   O8    S    
C4    C28   A    
C38   H8    S    
Cu2   O7    S    
C7    C31   A    
C47   N4    A    
C24   C25   A    
C2    H11   S    
C10   C14   A    
C8    C54   A    
C39   C40   A    
C4    C5    A    
C25   C26   A    
C5    C45   A    
C47   Br2   S    
C53   H26   S    
C37   C38   A    
C8    C12   S    
C17   C18   A    
C46   H15   S    
C52   H2    S    
C48   C49   S    
C6    C30   A    
C11   C32   A    
C43   H14   S    
C20   N2    A    
C2    C54   A    
C9    C34   S    
C31   C35   A    
C12   O7    A    
C42   C43   S    
C44   N3    A    
C51   N1    A    
C52   C53   A    
C44   C50   S    
C46   C47   A    
C28   C29   A    
C26   N2    S    
C12   O6    A    
C22   H21   S    
Cu1   O10   S    
C10   C13   A    
C8    C53   A    
C3    C52   A    
C23   O8    A    
C9    C24   A    
C6    H20   S    
C29   C35   A    
C32   Br1   S    
C13   C17   A    
C32   C33   A    
C30   H25   S    
C50   H18   S    
C2    C3    A    
C7    C51   A    
C19   O4    S    
C50   H19   S    
C51   O3    S    
C3    N1    S    
C11   C13   A    
Cu2   N3    S    
C38   C39   A    
Cu1   N4    S    
C20   O2    S    
C23   O9    A    
C48   N4    A    
C25   H6    S    
Cu1   O1    S    
C18   C33   A    
C44   C48   A    
C11   C29   A    
C33   H5    S    
C49   C50   S    
C27   C28   A    
C42   H10   S    
C14   C15   A    
C36   C43   S    
C35   H7    S    
C24   H4    S    
C43   H13   S    
C15   C16   A    
C54   H1    S    
