data_mof_unit_13264.cif
_audit_creation_date              2012-12-11T20:51:02-0500
_audit_creation_method            fapswitch 2.2
_symmetry_space_group_name_H-M    P1
_symmetry_Int_Tables_number       1
_space_group_crystal_system       triclinic
_cell_length_a                    30.49591
_cell_length_b                    33.832876
_cell_length_c                    8.398986
_cell_angle_alpha                 89.999976
_cell_angle_beta                  90.031628
_cell_angle_gamma                 90.000028
_cell_volume                      8665.77293956

loop_
_atom_site_label
_atom_site_type_symbol
_atom_type_description
_atom_site_fract_x
_atom_site_fract_y
_atom_site_fract_z
_atom_type_partial_charge
Ba1   Ba    Ba6+2 0.999930 0.472870 0.844940 1.668081
Ba2   Ba    Ba6+2 0.999930 0.527130 0.344940 1.668075
Ba3   Ba    Ba6+2 0.499930 0.972870 0.844940 1.668050
Ba4   Ba    Ba6+2 0.499930 0.027130 0.344940 1.668056
C1    C     C_3   0.015221 0.277877 0.573543 -0.320034
C2    C     C_R   0.213921 0.331378 0.492182 0.590810
C3    C     C_R   0.403641 0.088164 0.690407 0.044824
C4    C     C_R   0.871283 0.383671 0.149614 -0.081455
C5    C     C_R   0.871278 0.616327 0.649619 -0.081456
C6    C     C_R   0.371282 0.883672 0.149612 -0.081448
C7    C     C_R   0.371286 0.116330 0.649605 -0.081446
C8    C     C_R   0.863410 0.349662 0.244441 0.229487
C9    C     C_R   0.863405 0.650335 0.744449 0.229500
C10   C     C_R   0.363402 0.849668 0.244460 0.229402
C11   C     C_R   0.363407 0.150334 0.744452 0.229381
C12   C     C_2   0.068136 0.596346 0.879385 -0.266259
C13   C     C_R   0.713919 0.168636 0.992001 0.590830
C14   C     C_2   0.068142 0.403658 0.379362 -0.266261
C15   C     C_2   0.568125 0.096353 0.879420 -0.266246
C16   C     C_2   0.568119 0.903643 0.379441 -0.266246
C17   C     C_3   0.123569 0.473777 0.173005 0.296604
C18   C     C_3   0.123569 0.526223 0.673016 0.296589
C19   C     C_3   0.623569 0.973780 0.173043 0.296562
C20   C     C_3   0.623569 0.026221 0.673028 0.296571
C21   C     C_3   0.163839 0.447279 0.177067 -0.334126
C22   C     C_3   0.163838 0.552720 0.677082 -0.334089
C23   C     C_3   0.663837 0.947281 0.177112 -0.334031
C24   C     C_R   0.713917 0.831358 0.491952 0.590837
C25   C     C_3   0.663838 0.052720 0.677099 -0.334063
C26   C     C_3   0.874677 0.526208 0.018371 0.294256
C27   C     C_3   0.874681 0.473789 0.518373 0.294260
C28   C     C_3   0.374672 0.026206 0.018361 0.294274
C29   C     C_3   0.374669 0.973795 0.518361 0.294266
C30   C     C_3   0.833868 0.552069 0.020695 -0.347519
C31   C     C_3   0.833874 0.447927 0.520687 -0.347515
C32   C     C_3   0.333861 0.052064 0.020677 -0.347573
C33   C     C_3   0.333857 0.947939 0.520685 -0.347574
C34   C     C_3   0.001693 0.320921 0.557760 0.346393
C35   C     C_R   0.158015 0.718189 0.017648 0.589601
C36   C     C_3   0.001730 0.679048 0.057760 0.346739
C37   C     C_3   0.501856 0.821051 0.557781 0.347913
C38   C     C_3   0.501819 0.178978 0.057778 0.347577
C39   C     C_R   0.928372 0.406726 0.320341 -0.294408
C40   C     C_R   0.928366 0.593271 0.820352 -0.294428
C41   C     C_R   0.428354 0.906738 0.320389 -0.294456
C42   C     C_R   0.428359 0.093264 0.820380 -0.294441
C43   C     C_R   0.158022 0.281806 0.517544 0.589588
C44   C     C_R   0.658007 0.218183 0.017808 0.589624
C45   C     C_R   0.658000 0.781821 0.517896 0.589640
C46   C     C_R   0.189787 0.746847 0.059057 -0.020677
C47   C     C_R   0.189794 0.253149 0.558955 -0.020674
C48   C     C_R   0.689780 0.246840 0.059207 -0.020683
C49   C     C_3   0.015189 0.722117 0.073213 -0.320131
C50   C     C_R   0.689773 0.753162 0.559290 -0.020690
C51   C     C_R   0.234307 0.735943 0.067455 -0.052313
C52   C     C_R   0.234310 0.264059 0.567441 -0.052314
C53   C     C_R   0.734304 0.235943 0.067468 -0.052312
C54   C     C_R   0.734300 0.764055 0.567483 -0.052310
C55   C     C_R   0.291219 0.686247 0.042748 -0.072005
C56   C     C_R   0.291217 0.313765 0.542905 -0.072008
C57   C     C_R   0.791222 0.186260 0.042510 -0.072009
C58   C     C_R   0.791223 0.813729 0.542396 -0.072006
C59   C     C_R   0.823000 0.214270 0.084189 -0.075836
C60   C     C_3   0.515087 0.777903 0.572143 -0.320470
C61   C     C_R   0.823000 0.785719 0.584076 -0.075833
C62   C     C_R   0.322996 0.714259 0.084428 -0.075830
C63   C     C_R   0.322993 0.285754 0.584583 -0.075834
C64   C     C_R   0.811207 0.253596 0.118766 -0.024368
C65   C     C_R   0.811205 0.746397 0.618716 -0.024376
C66   C     C_R   0.311205 0.753591 0.118884 -0.024383
C67   C     C_R   0.311206 0.246416 0.618956 -0.024376
C68   C     C_R   0.766657 0.264472 0.110088 -0.051841
C69   C     C_R   0.766653 0.735525 0.610100 -0.051837
C70   C     C_R   0.266658 0.764473 0.110081 -0.051844
C71   C     C_3   0.515126 0.222104 0.072507 -0.320294
C72   C     C_R   0.266662 0.235529 0.610069 -0.051846
C73   C     C_R   0.177968 0.786179 0.093178 -0.075865
C74   C     C_R   0.177978 0.213812 0.592991 -0.075871
C75   C     C_R   0.677960 0.286165 0.093451 -0.075853
C76   C     C_R   0.677950 0.713841 0.593597 -0.075847
C77   C     C_3   0.007634 0.313352 0.086131 0.327748
C78   C     C_3   0.007635 0.686646 0.586043 0.327806
C79   C     C_3   0.507644 0.813355 0.085847 0.327873
C80   C     C_3   0.507643 0.186648 0.585934 0.327834
C81   C     C_R   0.709677 0.314141 0.135210 -0.073487
C82   C     C_R   0.246564 0.696613 0.033919 -0.026777
C83   C     C_R   0.709668 0.685865 0.635350 -0.073487
C84   C     C_R   0.209683 0.814155 0.134953 -0.073489
C85   C     C_R   0.209694 0.185837 0.634771 -0.073488
C86   C     C_R   0.754295 0.303744 0.144257 -0.025647
C87   C     C_R   0.754288 0.696257 0.644330 -0.025649
C88   C     C_R   0.254297 0.803752 0.144131 -0.025644
C89   C     C_R   0.254305 0.196245 0.644036 -0.025642
C90   C     C_R   0.786745 0.331647 0.187756 0.586981
C91   C     C_R   0.786739 0.668354 0.687823 0.586983
C92   C     C_R   0.286745 0.831655 0.187647 0.586977
C93   C     C_R   0.246565 0.303394 0.533991 -0.026774
C94   C     C_R   0.286752 0.168343 0.687559 0.586976
C95   C     C_R   0.842900 0.282252 0.161975 0.591879
C96   C     C_R   0.842898 0.717741 0.661926 0.591891
C97   C     C_R   0.342896 0.782250 0.162091 0.591887
C98   C     C_R   0.342897 0.217758 0.662160 0.591874
C99   C     C_2   0.107886 0.656597 0.813159 -0.085149
C100  C     C_2   0.107894 0.343409 0.313130 -0.085107
C101  C     C_2   0.607870 0.156608 0.813205 -0.085274
C102  C     C_2   0.607864 0.843387 0.313229 -0.085321
C103  C     C_3   0.069588 0.632353 0.789412 -0.104722
C104  C     C_R   0.746564 0.196620 0.033807 -0.026782
C105  C     C_3   0.069594 0.367650 0.289395 -0.104801
C106  C     C_3   0.569577 0.132359 0.789438 -0.104585
C107  C     C_3   0.569572 0.867638 0.289451 -0.104498
C108  C     C_1   0.096777 0.588367 0.002930 0.029716
C109  C     C_1   0.096777 0.411633 0.502928 0.029764
C110  C     C_1   0.596774 0.088368 0.002932 0.029611
C111  C     C_1   0.596773 0.911631 0.502935 0.029562
C112  C     C_2   0.129887 0.614472 0.041766 -0.095300
C113  C     C_2   0.129884 0.385525 0.541779 -0.095257
C114  C     C_2   0.629891 0.114469 0.041746 -0.095387
C115  C     C_R   0.746562 0.803374 0.533758 -0.026785
C116  C     C_2   0.629893 0.885533 0.541740 -0.095424
C117  C     C_2   0.136672 0.650431 0.942622 0.229603
C118  C     C_2   0.136675 0.349570 0.442615 0.229585
C119  C     C_2   0.636666 0.150434 0.942637 0.229635
C120  C     C_2   0.636664 0.849564 0.442646 0.229649
C121  C     C_R   0.885895 0.344676 0.381893 -0.097876
C122  C     C_R   0.885889 0.655321 0.881905 -0.097900
C123  C     C_R   0.385875 0.844690 0.381945 -0.097958
C124  C     C_R   0.385880 0.155312 0.881935 -0.097930
C125  C     C_3   0.989677 0.275890 0.010268 -0.312911
C126  C     C_R   0.213921 0.668628 0.992110 0.590816
C127  C     C_3   0.989710 0.724119 0.510164 -0.312971
C128  C     C_3   0.489751 0.775877 0.009903 -0.313183
C129  C     C_3   0.489726 0.224119 0.510000 -0.313137
C130  C     C_R   0.919083 0.374199 0.429918 -0.056511
C131  C     C_R   0.919074 0.625796 0.929934 -0.056371
C132  C     C_R   0.419053 0.874219 0.429986 -0.055926
C133  C     C_R   0.419060 0.125784 0.929972 -0.056064
C134  C     C_R   0.903642 0.411834 0.190399 0.044863
C135  C     C_R   0.903639 0.588165 0.690404 0.044842
C136  C     C_R   0.403638 0.911837 0.190411 0.044806
H1    H     H_    0.031132 0.339869 0.573210 0.050241
H2    H     H_    0.154763 0.582663 0.719121 0.079497
H3    H     H_    0.479507 0.167467 0.620421 0.018849
H4    H     H_    0.026087 0.304065 0.193889 -0.034084
H5    H     H_    0.026069 0.695922 0.693867 -0.034130
H6    H     H_    0.526052 0.804082 0.193716 -0.034060
H7    H     H_    0.526070 0.195930 0.693757 -0.034035
H8    H     H_    0.967475 0.283244 0.910153 0.165852
H9    H     H_    0.967523 0.716780 0.409980 0.165835
H10   H     H_    0.467581 0.783211 0.909659 0.165788
H11   H     H_    0.467545 0.216775 0.409798 0.165792
H12   H     H_    0.017027 0.257142 0.966613 0.102880
H13   H     H_    0.654762 0.917340 0.219172 0.079566
H14   H     H_    0.017079 0.742861 0.466595 0.102914
H15   H     H_    0.517138 0.757147 0.966401 0.103048
H16   H     H_    0.517101 0.242856 0.466440 0.103007
H17   H     H_    0.110619 0.476867 0.295198 0.002259
H18   H     H_    0.110619 0.523130 0.795209 0.002260
H19   H     H_    0.610622 0.976876 0.295239 0.002281
H20   H     H_    0.610620 0.023127 0.795222 0.002278
H21   H     H_    0.098486 0.459797 0.095690 0.082740
H22   H     H_    0.098485 0.540202 0.595706 0.082755
H23   H     H_    0.598483 0.959799 0.095751 0.082779
H24   H     H_    0.654762 0.082662 0.719146 0.079548
H25   H     H_    0.598485 0.040202 0.595724 0.082773
H26   H     H_    0.178058 0.444723 0.055779 0.135477
H27   H     H_    0.178057 0.555278 0.555793 0.135484
H28   H     H_    0.678053 0.944718 0.055820 0.135495
H29   H     H_    0.678056 0.055280 0.555810 0.135488
H30   H     H_    0.885893 0.522944 0.894018 0.011251
H31   H     H_    0.885901 0.477053 0.394022 0.011245
H32   H     H_    0.385888 0.022940 0.894008 0.011294
H33   H     H_    0.031190 0.660140 0.073551 0.050499
H34   H     H_    0.385882 0.977062 0.394004 0.011300
H35   H     H_    0.900470 0.540676 0.091378 0.060651
H36   H     H_    0.900473 0.459323 0.591389 0.060687
H37   H     H_    0.400464 0.040678 0.091363 0.060582
H38   H     H_    0.400462 0.959323 0.591355 0.060551
H39   H     H_    0.807675 0.538400 0.947090 0.142619
H40   H     H_    0.807682 0.461594 0.447066 0.142613
H41   H     H_    0.307668 0.038389 0.947090 0.142636
H42   H     H_    0.307662 0.961615 0.447110 0.142643
H43   H     H_    0.841303 0.581735 0.972093 0.073331
H44   H     H_    0.531379 0.839820 0.574679 0.051312
H45   H     H_    0.841312 0.418261 0.472096 0.073327
H46   H     H_    0.341291 0.081728 0.972049 0.073266
H47   H     H_    0.341285 0.918275 0.472048 0.073274
H48   H     H_    0.821920 0.555469 0.144854 0.129386
H49   H     H_    0.821922 0.444529 0.644841 0.129392
H50   H     H_    0.321915 0.055468 0.144837 0.129373
H51   H     H_    0.321914 0.944533 0.644848 0.129366
H52   H     H_    0.988043 0.324823 0.435984 -0.085206
H53   H     H_    0.988142 0.675060 0.935935 -0.085587
H54   H     H_    0.488469 0.825322 0.435820 -0.086824
H55   H     H_    0.531322 0.160159 0.074332 0.051030
H56   H     H_    0.488368 0.174799 0.935841 -0.086452
H57   H     H_    0.035413 0.269161 0.469478 0.124012
H58   H     H_    0.035424 0.730795 0.969205 0.124018
H59   H     H_    0.535468 0.769352 0.468342 0.124033
H60   H     H_    0.535457 0.230694 0.968622 0.124020
H61   H     H_    0.034621 0.273574 0.684014 0.148653
H62   H     H_    0.034523 0.726510 0.183780 0.148542
H63   H     H_    0.534200 0.773211 0.683010 0.148144
H64   H     H_    0.534317 0.226696 0.183289 0.148271
H65   H     H_    0.970771 0.258887 0.100080 0.114532
H66   H     H_    0.188806 0.459829 0.259039 0.136466
H67   H     H_    0.970794 0.741124 0.599946 0.114503
H68   H     H_    0.470821 0.758866 0.099628 0.114444
H69   H     H_    0.470803 0.241128 0.599750 0.114472
H70   H     H_    0.699063 0.344028 0.160752 0.124923
H71   H     H_    0.699052 0.655981 0.660940 0.124922
H72   H     H_    0.199071 0.844048 0.160400 0.124924
H73   H     H_    0.199084 0.155940 0.660152 0.124926
H74   H     H_    0.144018 0.795508 0.087861 0.120292
H75   H     H_    0.144031 0.204479 0.587605 0.120294
H76   H     H_    0.644006 0.295489 0.088240 0.120297
H77   H     H_    0.188806 0.540170 0.759050 0.136458
H78   H     H_    0.643996 0.704521 0.588439 0.120298
H79   H     H_    0.856951 0.204951 0.089567 0.119432
H80   H     H_    0.856953 0.795035 0.589404 0.119431
H81   H     H_    0.356944 0.704935 0.089903 0.119445
H82   H     H_    0.356939 0.295082 0.590125 0.119447
H83   H     H_    0.879403 0.319524 0.458013 0.090769
H84   H     H_    0.879396 0.680472 0.958024 0.090751
H85   H     H_    0.379379 0.819542 0.458076 0.090812
H86   H     H_    0.379384 0.180460 0.958069 0.090837
H87   H     H_    0.301797 0.656334 0.017537 0.124617
H88   H     H_    0.688807 0.959833 0.259064 0.136438
H89   H     H_    0.301792 0.343683 0.517761 0.124618
H90   H     H_    0.801802 0.156352 0.017201 0.124611
H91   H     H_    0.801804 0.843634 0.517037 0.124610
H92   H     H_    0.150226 0.609394 0.145888 0.104588
H93   H     H_    0.150215 0.390598 0.645923 0.104604
H94   H     H_    0.650240 0.109383 0.145834 0.104570
H95   H     H_    0.650247 0.890622 0.645812 0.104562
H96   H     H_    0.111825 0.682896 0.740499 0.092724
H97   H     H_    0.111839 0.317115 0.240446 0.092756
H98   H     H_    0.611802 0.182915 0.740581 0.092665
H99   H     H_    0.688806 0.040168 0.759062 0.136446
H100  H     H_    0.611791 0.817077 0.240624 0.092638
H101  H     H_    0.851898 0.388245 0.043160 0.102006
H102  H     H_    0.851894 0.611754 0.543164 0.101982
H103  H     H_    0.351907 0.888240 0.043133 0.102057
H104  H     H_    0.351911 0.111761 0.543126 0.102091
H105  H     H_    0.952881 0.428347 0.353292 0.071705
H106  H     H_    0.952875 0.571650 0.853302 0.071703
H107  H     H_    0.452860 0.928362 0.353347 0.071700
H108  H     H_    0.452864 0.071640 0.853340 0.071702
H109  H     H_    0.985707 0.258663 0.577178 0.108898
H110  H     H_    0.154764 0.417336 0.219100 0.079471
H111  H     H_    0.985645 0.741300 0.076450 0.108912
H112  H     H_    0.485448 0.758831 0.574054 0.109012
H113  H     H_    0.485516 0.241217 0.074862 0.108989
H114  H     H_    0.039533 0.577679 0.863529 0.072765
H115  H     H_    0.039541 0.422326 0.363498 0.072752
H116  H     H_    0.539520 0.077688 0.863578 0.072797
H117  H     H_    0.539513 0.922307 0.363606 0.072810
H118  H     H_    0.979516 0.332543 0.120722 0.018634
H119  H     H_    0.979502 0.667460 0.620538 0.018766
H120  H     H_    0.479499 0.832532 0.120250 0.018972
N1    N     N_R   0.170148 0.679559 0.983980 -0.425916
N2    N     N_R   0.170152 0.320442 0.483966 -0.425915
N3    N     N_R   0.670143 0.179561 0.984000 -0.425914
N4    N     N_R   0.670139 0.820437 0.484016 -0.425914
N5    N     N_R   0.830515 0.320779 0.196560 -0.426883
N6    N     N_R   0.830511 0.679218 0.696568 -0.426886
N7    N     N_R   0.330512 0.820782 0.196570 -0.426876
N8    N     N_R   0.330516 0.179221 0.696561 -0.426872
O1    O     O_2   0.914200 0.445720 0.903420 -0.457448
O2    O     O_3   0.035576 0.666929 0.478727 -0.558957
O3    O     O_3   0.535606 0.833081 0.978643 -0.559027
O4    O     O_3   0.535591 0.166923 0.478675 -0.559001
O5    O     O_3   0.049930 0.518940 0.045960 -0.497760
O6    O     O_3   0.049930 0.481060 0.545960 -0.497759
O7    O     O_3   0.549930 0.018940 0.045960 -0.497748
O8    O     O_3   0.549930 0.981060 0.545960 -0.497750
O9    O     O_2   0.224541 0.634638 0.961554 -0.592604
O10   O     O_2   0.224539 0.365373 0.461699 -0.592612
O11   O     O_2   0.724540 0.134652 0.961333 -0.592601
O12   O     O_2   0.914200 0.554280 0.403420 -0.457453
O13   O     O_2   0.724540 0.865338 0.461229 -0.592595
O14   O     O_2   0.119382 0.727575 0.013444 -0.621586
O15   O     O_2   0.119392 0.272415 0.513257 -0.621607
O16   O     O_2   0.619370 0.227561 0.013742 -0.621545
O17   O     O_2   0.619362 0.772448 0.513899 -0.621517
O18   O     O_2   0.775967 0.365534 0.219564 -0.593579
O19   O     O_2   0.775959 0.634470 0.719675 -0.593574
O20   O     O_2   0.275966 0.865548 0.219364 -0.593583
O21   O     O_2   0.275975 0.134446 0.719213 -0.593591
O22   O     O_2   0.881587 0.272959 0.168031 -0.611754
O23   O     O_2   0.414200 0.945720 0.903420 -0.457498
O24   O     O_2   0.881586 0.727031 0.667932 -0.611729
O25   O     O_2   0.381580 0.772952 0.168240 -0.611692
O26   O     O_2   0.381579 0.227061 0.668374 -0.611710
O27   O     O_3   0.950020 0.480960 0.143730 -0.494761
O28   O     O_3   0.950020 0.519040 0.643730 -0.494760
O29   O     O_3   0.450020 0.980960 0.143730 -0.494744
O30   O     O_3   0.450020 0.019040 0.643730 -0.494746
O31   O     O_3   0.985090 0.412220 0.642040 -0.475376
O32   O     O_3   0.985090 0.587780 0.142040 -0.475413
O33   O     O_3   0.485090 0.912220 0.642040 -0.475519
O34   O     O_2   0.414200 0.054280 0.403420 -0.457490
O35   O     O_3   0.485090 0.087780 0.142040 -0.475486
O36   O     O_2   0.911315 0.380944 0.759629 -0.473619
O37   O     O_2   0.911321 0.619064 0.259666 -0.473622
O38   O     O_2   0.411343 0.880909 0.759783 -0.473690
O39   O     O_2   0.411337 0.119082 0.259748 -0.473686
O40   O     O_3   0.863814 0.489162 0.080334 -0.627317
O41   O     O_3   0.863815 0.510836 0.580328 -0.627321
O42   O     O_3   0.363813 0.989161 0.080338 -0.627311
O43   O     O_3   0.363812 0.010840 0.580343 -0.627305
O44   O     O_3   0.970718 0.329888 0.676037 -0.576442
O45   O     O_3   0.135689 0.489183 0.613368 -0.626752
O46   O     O_3   0.970720 0.670114 0.175960 -0.576537
O47   O     O_3   0.470733 0.829879 0.675728 -0.576839
O48   O     O_3   0.470729 0.170119 0.175801 -0.576747
O49   O     O_2   0.085560 0.445380 0.786390 -0.451564
O50   O     O_2   0.085560 0.554620 0.286390 -0.451555
O51   O     O_2   0.585560 0.945380 0.786390 -0.451540
O52   O     O_2   0.585560 0.054620 0.286390 -0.451555
O53   O     O_3   0.014550 0.412170 0.047860 -0.465520
O54   O     O_3   0.014550 0.587830 0.547860 -0.465541
O55   O     O_3   0.514550 0.912170 0.047860 -0.465575
O56   O     O_3   0.135690 0.510818 0.113367 -0.626754
O57   O     O_3   0.514550 0.087830 0.547860 -0.465555
O58   O     O_2   0.095575 0.388190 0.976164 -0.481616
O59   O     O_2   0.095583 0.611799 0.476214 -0.481622
O60   O     O_2   0.595598 0.888224 0.976322 -0.481645
O61   O     O_2   0.595591 0.111786 0.476279 -0.481639
O62   O     O_3   0.635689 0.989182 0.613370 -0.626756
O63   O     O_3   0.635689 0.010817 0.113370 -0.626755
O64   O     O_3   0.035559 0.333067 0.978762 -0.558928
P1    P     P_3+3 0.909970 0.458430 0.077330 0.997956
P2    P     P_3+3 0.054888 0.624270 0.573933 0.967405
P3    P     P_3+3 0.554894 0.875735 0.073954 0.967370
P4    P     P_3+3 0.554890 0.124268 0.573947 0.967385
P5    P     P_3+3 0.945673 0.625364 0.126749 0.977701
P6    P     P_3+3 0.945675 0.374634 0.626747 0.977672
P7    P     P_3+3 0.445672 0.125362 0.126758 0.977743
P8    P     P_3+3 0.445672 0.874638 0.626760 0.977775
P9    P     P_3+3 0.909970 0.541570 0.577330 0.997950
P10   P     P_3+3 0.409970 0.958430 0.077330 0.997952
P11   P     P_3+3 0.409970 0.041570 0.577330 0.997959
P12   P     P_3+3 0.089830 0.458070 0.612460 0.993515
P13   P     P_3+3 0.089830 0.541930 0.112460 0.993503
P14   P     P_3+3 0.589830 0.958070 0.612460 0.993467
P15   P     P_3+3 0.589830 0.041930 0.112460 0.993479
P16   P     P_3+3 0.054885 0.375727 0.073924 0.967422

loop_
_geom_bond_atom_site_label_1
_geom_bond_atom_site_label_2
_ccdc_geom_bond_type
Ba2   P13   S    
C101  C106  A    
C111  P14   S    
C99   H96   S    
C83   C87   A    
O53   P16   S    
C128  H10   S    
C129  H11   S    
C136  P10   S    
C44   O16   D    
O38   P8    D    
Ba3   O8    S    
C71   H60   S    
C38   C71   S    
O27   P1    S    
C55   C62   A    
O48   P7    S    
C120  N4    S    
C128  H15   S    
C101  C119  A    
C4    C134  A    
C49   H111  S    
C70   C88   A    
C57   C59   A    
C26   O40   S    
C51   C70   A    
C7    C11   A    
C73   C84   A    
Ba1   O49   S    
C66   C70   A    
Ba3   O51   S    
C102  C107  A    
C40   C131  S    
C28   H32   S    
C30   H39   S    
C6    C136  A    
C73   H74   S    
C3    P11   S    
C74   C85   A    
O1    P1    D    
C80   C129  S    
C112  C117  S    
C56   H89   S    
C2    C93   A    
C94   O21   D    
C34   O44   S    
C123  C132  S    
C125  H12   S    
C11   N8    S    
C35   N1    Am   
O46   P5    S    
C118  N2    S    
C91   N6    Am   
O8    P14   S    
Ba4   O35   S    
Ba2   O6    S    
C16   C107  A    
C77   C125  S    
C64   C68   A    
O56   P13   S    
C79   H120  S    
C58   C115  A    
C25   H99   S    
C67   C98   A    
C77   O64   S    
C127  H9    S    
C21   H66   S    
C99   C117  A    
C46   C73   A    
C75   C81   A    
C78   H5    S    
C80   H7    S    
Ba1   O28   S    
Ba2   O27   S    
O58   P16   D    
C6    H103  S    
C81   C86   A    
C21   H26   S    
O45   P12   S    
C51   C82   A    
C20   H25   S    
C47   C74   A    
C42   H108  S    
C17   O56   S    
C97   O25   D    
C33   H47   S    
C96   N6    Am   
C133  P7    S    
O51   P14   D    
C28   O42   S    
C54   C115  A    
O61   P4    D    
O2    P2    S    
C38   H55   S    
C126  N1    Am   
O7    P15   S    
C65   C96   A    
C44   C48   A    
C124  H86   S    
C84   H72   S    
C102  C120  A    
C103  P2    S    
C99   C103  A    
C32   H41   S    
C25   H29   S    
C78   C127  S    
O59   P2    D    
C129  H69   S    
C14   C105  A    
C127  H67   S    
C9    N6    S    
C66   C97   A    
C62   C66   A    
C135  P9    S    
C32   H50   S    
C28   C32   S    
O60   P3    D    
Ba2   O12   S    
C100  C118  A    
C59   H79   S    
C88   C92   A    
C68   C86   A    
C5    C9    A    
C109  P12   S    
C60   H112  S    
Ba3   O55   S    
C56   C63   A    
C19   O63   S    
C19   H19   S    
C37   H44   S    
O35   P7    S    
C48   C75   A    
Ba4   O52   S    
C16   H117  S    
C112  H92   S    
C20   O62   S    
C52   C93   A    
C14   C109  A    
C45   N4    Am   
C27   H36   S    
C22   H27   S    
C26   C30   S    
C3    C42   D    
C6    C10   A    
C82   C126  A    
C1    H57   S    
Ba2   O50   S    
C29   O43   S    
C113  C118  S    
O49   P12   D    
Ba1   P1    S    
C113  H93   S    
C4    C8    A    
C18   O45   S    
C30   H43   S    
C2    N2    Am   
Ba4   O34   S    
C29   H34   S    
Ba1   O6    S    
C43   O15   D    
O64   P16   S    
C42   C133  S    
C109  C113  A    
C75   H76   S    
C34   H1    S    
O33   P8    S    
C38   O48   S    
Ba3   Ba4   S    
C108  C112  A    
C10   N7    S    
C90   N5    Am   
C17   C21   S    
C59   C64   A    
Ba4   O7    S    
C83   H71   S    
C127  H14   S    
C71   H113  S    
C74   H75   S    
C16   C111  A    
C111  C116  A    
Ba3   O7    S    
C23   H28   S    
C44   N3    Am   
O62   P14   S    
C126  O9    D    
C27   H31   S    
C4    H101  S    
C39   H105  S    
C91   O19   D    
C131  P5    S    
C85   C89   A    
C87   C91   A    
C53   C104  A    
C37   O47   S    
O31   P6    S    
O57   P4    S    
O52   P15   D    
C121  C130  S    
C129  H16   S    
C98   O26   D    
C27   O41   S    
C77   H118  S    
C116  H95   S    
C67   C72   A    
C18   H22   S    
O23   P10   D    
C35   O14   D    
C39   C134  D    
C20   C25   S    
C26   H30   S    
C12   C103  A    
C12   H114  S    
C77   H4    S    
O3    P3    S    
C65   C69   A    
C95   O22   D    
C55   H87   S    
O12   P9    D    
C40   H106  S    
C110  P15   S    
C31   H49   S    
C102  H100  S    
C1    C34   S    
C22   H77   S    
C25   H24   S    
C24   O13   D    
C62   H81   S    
C86   C90   A    
C50   C76   A    
C121  H83   S    
C43   N2    Am   
C100  H97   S    
C36   H53   S    
C107  P3    S    
O55   P3    S    
O47   P8    S    
O32   P5    S    
C13   C104  A    
O42   P10   S    
C43   C47   A    
C8    C121  D    
C18   H18   S    
C15   C110  A    
C41   C136  D    
C29   C33   S    
C10   C123  D    
O4    P4    S    
C39   C130  S    
C108  P13   S    
C37   H54   S    
C1    H109  S    
C72   C89   A    
C79   H6    S    
C125  H65   S    
C21   H110  S    
O5    P13   S    
Ba4   P11   S    
C79   O3    S    
C13   O11   D    
Ba3   P14   S    
C9    C122  D    
C60   H63   S    
C122  C131  S    
C56   C93   A    
C11   C124  D    
C27   C31   S    
C28   H37   S    
Ba4   O29   S    
O40   P1    S    
O39   P7    D    
C26   H35   S    
C12   C108  A    
C85   H73   S    
O34   P11   D    
C78   H119  S    
Ba1   O31   S    
Ba2   O32   S    
Ba1   O53   S    
O44   P6    S    
C14   H115  S    
C49   H62   S    
C79   C128  S    
Ba2   O5    S    
C1    H61   S    
C5    C135  A    
C100  C105  A    
C61   C65   A    
C33   H42   S    
Ba4   O57   S    
C92   O20   D    
C63   C67   A    
C114  C119  S    
C53   C68   A    
O43   P11   S    
C55   C82   A    
C36   O46   S    
C48   C53   A    
C15   H116  S    
Ba1   O1    S    
C58   H91   S    
C18   C22   S    
C60   H59   S    
C123  H85   S    
O41   P9    S    
C37   C60   S    
C132  P8    S    
C23   H13   S    
C52   C72   A    
Ba3   O23   S    
C81   H70   S    
C41   H107  S    
C90   O18   D    
C105  P16   S    
C3    C7    A    
O29   P10   S    
C45   O17   D    
C49   H58   S    
Ba1   Ba2   S    
C76   C83   A    
C76   H78   S    
C36   H33   S    
C122  H84   S    
C23   H88   S    
C45   C50   A    
O50   P13   D    
C47   C52   A    
O37   P5    D    
C57   C104  A    
C8    N5    S    
C125  H8    S    
C117  N1    S    
C84   C88   A    
C119  N3    S    
Ba2   O54   S    
C106  P4    S    
C101  H98   S    
C130  P6    S    
C19   C23   S    
Ba1   O5    S    
O63   P15   S    
C92   N7    Am   
C97   N7    Am   
C98   N8    Am   
C96   O24   D    
C7    H104  S    
C5    H102  S    
C57   H90   S    
C19   H23   S    
O54   P2    S    
C17   H21   S    
C80   O4    S    
Ba4   O8    S    
C69   C87   A    
C94   N8    Am   
C80   H3    S    
C24   N4    Am   
O6    P12   S    
O28   P9    S    
C13   N3    Am   
C63   H82   S    
C38   H56   S    
C124  C133  S    
Ba3   O30   S    
C114  H94   S    
C31   H45   S    
C30   H48   S    
C110  C114  A    
C33   H51   S    
C128  H68   S    
C34   H52   S    
Ba2   P9    S    
C50   C54   A    
C15   C106  A    
C31   H40   S    
C95   N5    Am   
C41   C132  S    
C58   C61   A    
C29   H38   S    
C17   H17   S    
C134  P1    S    
C24   C115  A    
C61   H80   S    
C71   H64   S    
C20   H20   S    
C40   C135  D    
C46   C51   A    
C78   O2    S    
Ba4   P15   S    
Ba1   P12   S    
C64   C95   A    
Ba3   P10   S    
O36   P6    D    
C32   H46   S    
C35   C46   A    
C36   C49   S    
O30   P11   S    
C22   H2    S    
C89   C94   A    
Ba3   O33   S    
C116  C120  S    
C54   C69   A    
C2    O10   D    
