data_mof_unit_20438.cif
_audit_creation_date              2012-12-11T14:44:27-0500
_audit_creation_method            fapswitch 2.2
_symmetry_space_group_name_H-M    P1
_symmetry_Int_Tables_number       1
_space_group_crystal_system       triclinic
_cell_length_a                    19.744895
_cell_length_b                    7.21068
_cell_length_c                    20.04083
_cell_angle_alpha                 89.930622
_cell_angle_beta                  98.041067
_cell_angle_gamma                 91.843395
_cell_volume                      2823.76439693

loop_
_atom_site_label
_atom_site_type_symbol
_atom_type_description
_atom_site_fract_x
_atom_site_fract_y
_atom_site_fract_z
_atom_type_partial_charge
O1    O     O_R   0.673210 0.377390 0.686390 -0.552694
O2    O     O_R   0.326790 0.622610 0.313610 -0.547354
O3    O     O_R   0.826790 0.877390 0.813610 -0.523712
O4    O     O_R   0.173210 0.122610 0.186390 -0.523318
O5    O     O_R   0.810750 0.706450 0.681250 -0.504970
O6    O     O_R   0.189250 0.293550 0.318750 -0.507584
O7    O     O_R   0.689250 0.206450 0.818750 -0.544716
O8    O     O_R   0.310750 0.793550 0.181250 -0.545166
C1    C     C_R   0.831739 0.540516 0.666094 0.770906
C2    C     C_R   0.168141 0.459451 0.333806 0.771181
C3    C     C_R   0.668118 0.036444 0.833634 0.771290
C4    C     C_R   0.331873 0.963565 0.166355 0.771622
O9    O     O_R   0.672750 0.707060 0.678240 -0.517810
O10   O     O_R   0.327250 0.292940 0.321760 -0.521345
O11   O     O_R   0.827250 0.207060 0.821760 -0.540524
O12   O     O_R   0.172750 0.792940 0.178240 -0.540815
O13   O     O_R   0.687800 0.877990 0.810580 -0.514055
O14   O     O_R   0.312200 0.122010 0.189420 -0.513839
O15   O     O_R   0.812200 0.377990 0.689420 -0.550045
O16   O     O_R   0.187800 0.622010 0.310580 -0.546639
C5    C     C_R   0.648324 0.535645 0.661486 0.776574
C6    C     C_R   0.351787 0.464350 0.338400 0.776782
C7    C     C_R   0.851275 0.040642 0.839158 0.770201
C8    C     C_R   0.148727 0.959362 0.160844 0.771446
O17   O     O_3   0.755100 0.544060 0.793420 -0.378654
O18   O     O_3   0.244900 0.455940 0.206580 -0.379240
O19   O     O_3   0.744900 0.044060 0.706580 -0.381232
O20   O     O_3   0.255100 0.955940 0.293420 -0.380007
V1    V     V_3+5 0.749050 0.818670 0.741950 1.663513
V2    V     V_3+5 0.250950 0.181330 0.258050 1.656286
V3    V     V_3+5 0.750950 0.318670 0.758050 1.561978
V4    V     V_3+5 0.249050 0.681330 0.241950 1.572971
C9    C     C_R   0.086885 0.959894 0.107750 -0.223319
C10   C     C_R   0.913107 0.040132 0.892270 -0.223247
C11   C     C_R   0.414177 0.486414 0.390342 -0.229220
C12   C     C_R   0.586147 0.513585 0.609321 -0.240955
C13   C     C_R   0.029273 0.156047 0.933936 0.379780
C14   C     C_R   0.970703 0.844064 0.066106 0.379738
C15   C     C_R   0.474320 0.362757 0.571902 0.388932
C16   C     C_R   0.525976 0.637795 0.427630 0.383465
C17   C     C_R   0.970079 0.158653 0.885555 -0.088063
C18   C     C_R   0.029896 0.841463 0.114495 -0.087157
C19   C     C_R   0.532753 0.386512 0.620465 -0.087208
C20   C     C_R   0.467417 0.613962 0.379176 -0.076631
C21   C     C_R   0.915807 0.921712 0.949118 -0.051849
C22   C     C_R   0.084188 0.078305 0.050903 -0.052127
C23   C     C_R   0.580626 0.612109 0.547650 -0.052974
C24   C     C_R   0.420056 0.387343 0.451835 -0.052962
C25   C     C_R   0.971220 0.940086 0.003770 -0.027350
C26   C     C_R   0.028769 0.059965 0.996259 -0.027362
C27   C     C_R   0.527154 0.563885 0.493700 -0.032796
C28   C     C_R   0.473400 0.436106 0.505818 -0.032371
C29   C     C_R   0.562617 0.891340 0.873161 0.348360
C30   C     C_R   0.437340 0.108807 0.126789 0.348651
C31   C     C_R   0.940712 0.652470 0.623612 0.346268
C32   C     C_R   0.058410 0.348086 0.375280 0.356669
C33   C     C_R   0.618161 0.020702 0.882419 -0.177112
C34   C     C_R   0.381821 0.979350 0.117555 -0.177436
C35   C     C_R   0.881396 0.536365 0.616772 -0.153399
C36   C     C_R   0.117933 0.463752 0.382622 -0.153852
C37   C     C_R   0.625595 0.140522 0.937567 -0.160813
C38   C     C_R   0.374399 0.859493 0.062417 -0.160916
C39   C     C_R   0.870021 0.408162 0.564224 -0.171264
C40   C     C_R   0.128788 0.592625 0.434954 -0.172663
C41   C     C_R   0.577991 0.138451 0.983748 0.059282
C42   C     C_R   0.421992 0.861607 0.016222 0.059525
C43   C     C_R   0.916771 0.389454 0.517759 0.066131
C44   C     C_R   0.080932 0.614011 0.480069 0.058121
C45   C     C_R   0.524117 0.001897 0.976854 0.035169
C46   C     C_R   0.475857 0.998187 0.023109 0.035176
C47   C     C_R   0.975060 0.511173 0.522137 0.026520
C48   C     C_R   0.022849 0.491659 0.475781 0.016304
C49   C     C_R   0.518657 0.869220 0.923627 -0.005288
C50   C     C_R   0.481308 0.130895 0.076326 -0.005314
C51   C     C_R   0.985756 0.650919 0.573400 -0.009271
C52   C     C_R   0.012642 0.350751 0.424930 -0.016598
C53   C     C_R   0.581467 0.276575 0.034317 -0.084330
C54   C     C_R   0.418515 0.723494 0.965646 -0.084282
C55   C     C_R   0.907823 0.244414 0.469564 -0.067019
C56   C     C_R   0.089619 0.759586 0.527981 -0.045916
C57   C     C_R   0.531110 0.278869 0.077884 -0.065193
C58   C     C_R   0.468861 0.721235 0.922065 -0.065049
C59   C     C_R   0.956525 0.220940 0.424969 -0.099577
C60   C     C_R   0.041507 0.781556 0.573161 -0.085780
H1    H     H_    0.667958 0.240704 0.942281 0.165881
H2    H     H_    0.332057 0.759249 0.057722 0.165697
H3    H     H_    0.824740 0.318497 0.561666 0.153507
H4    H     H_    0.174859 0.679868 0.438911 0.151796
C61   C     C_2   0.137375 0.228665 0.052280 0.906049
O21   O     O_2   0.121047 0.390744 0.053284 -0.515641
O22   O     O_R   0.205942 0.184685 0.052904 -0.657036
H5    H     H_    0.237372 0.299029 0.054258 0.306655
C62   C     C_2   0.862632 0.771321 0.947741 0.906257
O23   O     O_2   0.878981 0.609250 0.946790 -0.515525
O24   O     O_R   0.794055 0.815258 0.947067 -0.657013
H6    H     H_    0.762635 0.700894 0.945722 0.306704
C63   C     C_2   0.372922 0.225295 0.456735 0.899282
O25   O     O_2   0.395747 0.069558 0.462913 -0.515706
O26   O     O_R   0.302725 0.250997 0.454420 -0.651711
H7    H     H_    0.275942 0.129698 0.457404 0.314809
C64   C     C_2   0.627819 0.774054 0.542537 0.898999
O27   O     O_2   0.689280 0.752158 0.544678 -0.545941
O28   O     O_R   0.601398 0.951588 0.534659 -0.623034
H8    H     H_    0.638286 0.051319 0.531921 0.305394
C65   C     C_2   0.029791 0.721224 0.174857 0.930518
O29   O     O_2   0.013036 0.556822 0.167937 -0.483693
O30   O     O_R   0.048770 0.795750 0.239325 -0.630905
H9    H     H_    0.047242 0.699063 0.275815 0.297725
C66   C     C_2   0.970175 0.279047 0.825239 0.933315
O31   O     O_2   0.986742 0.443553 0.832230 -0.483336
O32   O     O_R   0.951444 0.204543 0.760734 -0.631377
H10   H     H_    0.953037 0.301346 0.724292 0.296814
C67   C     C_2   0.464265 0.719937 0.315269 0.902350
O33   O     O_2   0.475991 0.887546 0.317079 -0.489180
O34   O     O_R   0.448149 0.629034 0.253399 -0.626096
H11   H     H_    0.448264 0.717508 0.214153 0.315559
C68   C     C_2   0.535626 0.280777 0.684415 0.903072
O35   O     O_2   0.523605 0.113279 0.682648 -0.489554
O36   O     O_R   0.551837 0.371729 0.746271 -0.624535
H12   H     H_    0.551631 0.283346 0.785537 0.315694
Cl1   Cl    Cl    0.106228 0.246757 0.907809 -0.465059
Cl2   Cl    Cl    0.893728 0.753525 0.092237 -0.466403
Cl3   Cl    Cl    0.399181 0.269111 0.600930 -0.507995
Cl4   Cl    Cl    0.600784 0.733004 0.398436 -0.505290
Cl5   Cl    Cl    0.541119 0.790955 0.791805 -0.534991
Cl6   Cl    Cl    0.458792 0.209422 0.208113 -0.536559
Cl7   Cl    Cl    0.962905 0.767881 0.702268 -0.543907
Cl8   Cl    Cl    0.037429 0.231015 0.296828 -0.544082
C69   C     C_2   0.635177 0.427392 0.039038 0.846387
O37   O     O_2   0.695110 0.391497 0.056726 -0.493947
O38   O     O_R   0.616819 0.609808 0.023771 -0.662076
H13   H     H_    0.657697 0.699944 0.028653 0.322407
C70   C     C_2   0.364780 0.572731 0.960899 0.846593
O39   O     O_2   0.304851 0.608737 0.943217 -0.493662
O40   O     O_R   0.383101 0.390250 0.976133 -0.662053
H14   H     H_    0.342202 0.300169 0.971210 0.322509
C71   C     C_2   0.849540 0.107744 0.468648 0.840050
O41   O     O_2   0.860305 0.947258 0.485871 -0.529806
O42   O     O_R   0.782694 0.163739 0.448224 -0.619171
H15   H     H_    0.747505 0.058965 0.450091 0.348928
C72   C     C_2   0.146426 0.899655 0.527476 0.788172
O43   O     O_2   0.143429 0.016405 0.482950 -0.549488
O44   O     O_R   0.203079 0.896396 0.577715 -0.593345
H16   H     H_    0.238331 0.998438 0.572028 0.350579
C73   C     C_2   0.526217 0.448848 0.118346 0.911822
O45   O     O_2   0.472698 0.531581 0.111909 -0.556414
O46   O     O_R   0.582583 0.514923 0.162995 -0.603082
H17   H     H_    0.572804 0.632868 0.186914 0.341044
C74   C     C_2   0.473759 0.551285 0.881585 0.911836
O47   O     O_2   0.527296 0.468637 0.887978 -0.556461
O48   O     O_R   0.417379 0.485135 0.836970 -0.602932
H18   H     H_    0.427169 0.367229 0.813033 0.340988
C75   C     C_2   0.950867 0.048703 0.383896 0.956554
O49   O     O_2   0.899796 0.015831 0.343078 -0.481456
O50   O     O_R   0.003456 0.922434 0.393292 -0.638190
H19   H     H_    0.992099 0.805844 0.365286 0.311991
C76   C     C_2   0.045228 0.956955 0.612380 0.926978
O51   O     O_2   0.096063 0.997494 0.652502 -0.473926
O52   O     O_R   0.990449 0.076198 0.602707 -0.650788
H20   H     H_    0.000127 0.194746 0.629899 0.305989

loop_
_geom_bond_atom_site_label_1
_geom_bond_atom_site_label_2
_ccdc_geom_bond_type
C34   C38   A    
C55   C59   A    
O1    C5    A    
C62   O23   D    
C23   C64   S    
C31   C35   A    
O19   V1    S    
C68   O35   D    
O13   V1    S    
O12   C8    A    
C65   O29   D    
O3    C7    A    
O24   H6    S    
C56   C60   A    
C21   C62   S    
C73   O45   D    
O40   H14   S    
C5    C12   S    
O7    C3    A    
C6    C11   S    
C65   O30   S    
C76   O51   D    
C32   C52   A    
C9    C18   A    
C40   C44   A    
O9    V1    S    
O44   H16   S    
C14   C18   A    
C74   O48   S    
O16   V4    S    
O4    C8    A    
C51   C60   A    
O34   H11   S    
O1    V3    S    
C15   Cl3   S    
C12   C23   A    
O2    V4    S    
C54   C70   S    
O3    V1    S    
C62   O24   S    
C66   O32   S    
C63   O26   S    
C30   C50   A    
C1    O15   A    
C75   O49   D    
O46   H17   S    
C2    O16   A    
C46   C50   A    
O48   H18   S    
C45   C49   A    
O14   V2    S    
C21   C25   A    
C61   O22   S    
C16   C20   A    
C44   C48   A    
C4    C34   S    
O11   C7    A    
C15   C28   A    
O15   V3    S    
C64   O28   S    
C17   C66   S    
C9    C22   A    
C55   C71   S    
C10   C17   A    
O10   V2    S    
C42   C54   A    
C11   C24   A    
C52   C59   A    
C73   O46   S    
C63   O25   D    
O5    V1    S    
C16   Cl4   S    
O42   H15   S    
C39   C43   A    
C41   C53   A    
C38   C42   A    
C27   C28   A    
O8    V4    S    
C64   O27   D    
O7    V3    S    
C66   O31   D    
O22   H5    S    
C14   C25   A    
C29   C33   A    
O18   V4    S    
C23   C27   A    
C32   C36   A    
C1    C35   S    
C72   O44   S    
C2    C36   S    
O5    C1    A    
C24   C63   S    
C22   C61   S    
C71   O42   S    
C54   C58   A    
O52   H20   S    
C53   C57   A    
O8    C4    A    
C7    C10   S    
O9    C5    A    
C48   C52   A    
C10   C21   A    
C53   C69   S    
O36   H12   S    
C33   C37   A    
C11   C20   A    
C14   Cl2   S    
C29   Cl5   S    
C19   C68   S    
C13   Cl1   S    
O6    V2    S    
C31   Cl7   S    
C20   C67   S    
C56   C72   S    
C57   C73   S    
C70   O39   D    
C75   O50   S    
O30   H9    S    
C44   C56   A    
C49   C58   A    
O50   H19   S    
C38   H2    S    
C67   O33   D    
C30   C34   A    
C3    O13   A    
O32   H10   S    
C39   H3    S    
O17   V3    S    
C29   C49   A    
O6    C2    A    
C15   C19   A    
C60   C76   S    
O11   V3    S    
C59   C75   S    
O12   V4    S    
C16   C27   A    
C71   O41   D    
C22   C26   A    
C35   C39   A    
C8    C9    S    
O26   H7    S    
C36   C40   A    
O10   C6    A    
C68   O36   S    
C37   H1    S    
C69   O37   D    
C31   C51   A    
C47   C48   A    
C3    C33   S    
C74   O47   D    
C47   C51   A    
C13   C26   A    
C30   Cl6   S    
C42   C46   A    
C41   C45   A    
O20   V2    S    
O2    C6    A    
C43   C47   A    
C32   Cl8   S    
C13   C17   A    
C45   C46   A    
C18   C65   S    
C58   C74   S    
C37   C41   A    
C24   C28   A    
C76   O52   S    
C25   C26   A    
C4    O14   A    
O28   H8    S    
C70   O40   S    
C12   C19   A    
C50   C57   A    
C69   O38   S    
C61   O21   D    
C72   O43   D    
C40   H4    S    
C43   C55   A    
O4    V2    S    
O38   H13   S    
C67   O34   S    
