data_mof_unit_36505.cif
_audit_creation_date              2012-12-10T17:31:19-0500
_audit_creation_method            fapswitch 2.2
_symmetry_space_group_name_H-M    P1
_symmetry_Int_Tables_number       1
_space_group_crystal_system       triclinic
_cell_length_a                    19.112707
_cell_length_b                    18.310793
_cell_length_c                    12.350139
_cell_angle_alpha                 90.185635
_cell_angle_beta                  128.809591
_cell_angle_gamma                 89.860401
_cell_volume                      3367.95464452

loop_
_atom_site_label
_atom_site_type_symbol
_atom_type_description
_atom_site_fract_x
_atom_site_fract_y
_atom_site_fract_z
_atom_type_partial_charge
C1    C     C_R   0.607028 0.893934 0.645754 0.834735
C2    C     C_R   0.609358 0.104293 0.649252 0.823175
C3    C     C_R   0.107654 0.394385 0.646980 0.845085
C4    C     C_R   0.106835 0.606062 0.645636 0.836507
C5    C     C_R   0.236038 0.778111 0.034386 0.059652
C6    C     C_R   0.255734 0.238836 0.062615 0.052683
C7    C     C_R   0.741373 0.270327 0.048351 0.068438
C8    C     C_R   0.737370 0.722980 0.036244 0.056438
C9    C     C_R   0.655795 0.285861 0.010672 0.123847
C10   C     C_R   0.660196 0.726457 0.027900 0.122468
C11   C     C_R   0.158932 0.774899 0.026215 0.122461
C12   C     C_R   0.186634 0.254819 0.071174 0.138420
C13   C     C_R   0.578636 0.255478 0.890629 -0.152402
C14   C     C_R   0.584017 0.762965 0.917711 -0.193099
C15   C     C_R   0.082694 0.738313 0.915926 -0.187348
C16   C     C_R   0.111180 0.293320 0.965537 -0.189136
C17   C     C_R   0.584291 0.212287 0.803892 -0.135895
C18   C     C_R   0.583751 0.796893 0.816854 -0.149053
C19   C     C_R   0.082525 0.704083 0.815019 -0.145472
C20   C     C_R   0.100359 0.312224 0.847782 -0.168512
C21   C     C_R   0.315825 0.807009 0.155685 0.076565
C22   C     C_R   0.332483 0.201980 0.175463 0.088197
C23   C     C_R   0.818172 0.297099 0.177117 0.082279
C24   C     C_R   0.816924 0.693607 0.157316 0.077317
C25   C     C_R   0.233072 0.849956 0.232270 -0.193735
C26   C     C_R   0.257384 0.178200 0.272973 -0.208145
C27   C     C_R   0.723418 0.370874 0.201726 -0.192761
C28   C     C_R   0.733666 0.651236 0.233024 -0.203002
C29   C     C_R   0.671211 0.165537 0.733879 -0.146994
C30   C     C_R   0.660502 0.825902 0.717596 -0.153734
C31   C     C_R   0.159902 0.674193 0.716789 -0.155080
C32   C     C_R   0.163238 0.328074 0.723621 -0.146492
C33   C     C_R   0.681749 0.015951 0.280619 0.052339
C34   C     C_R   0.182285 0.482400 0.281227 0.046852
C35   C     C_R   0.344394 0.999127 0.624858 0.050474
C36   C     C_R   0.844447 0.498296 0.626461 0.063439
C37   C     C_R   0.307603 0.002844 0.692064 -0.210028
C38   C     C_R   0.809112 0.488274 0.695214 -0.202482
C39   C     C_R   0.388934 0.102609 0.348920 0.822807
C40   C     C_R   0.385066 0.900183 0.343583 0.823591
C41   C     C_R   0.885243 0.600009 0.343954 0.812469
C42   C     C_R   0.884400 0.401014 0.342906 0.823979
C43   C     C_R   0.362168 0.006780 0.837030 0.210637
C44   C     C_R   0.865328 0.481778 0.839953 0.156456
C45   C     C_R   0.458128 0.003955 0.918524 0.065788
C46   C     C_R   0.959914 0.491392 0.919486 0.018072
C47   C     C_R   0.491544 0.002234 0.841109 0.286309
C48   C     C_R   0.992470 0.496978 0.841412 0.263334
C49   C     C_R   0.523289 0.004547 0.069921 -0.036369
C50   C     C_R   0.024515 0.492656 0.070508 -0.046895
C51   C     C_R   0.616292 0.011691 0.135017 0.068668
C52   C     C_R   0.117426 0.487022 0.135763 0.058444
C53   C     C_R   0.644060 0.011021 0.054456 -0.203536
C54   C     C_R   0.145333 0.489275 0.055249 -0.210548
C55   C     C_R   0.583864 0.004005 0.913082 -0.168025
C56   C     C_R   0.084974 0.496950 0.913619 -0.175210
C57   C     C_R   0.502230 0.996085 0.160989 0.035362
C58   C     C_R   0.002473 0.502717 0.160401 0.039138
C59   C     C_R   0.655589 0.007304 0.363331 0.370117
C60   C     C_R   0.155644 0.491215 0.363605 0.375868
C61   C     C_R   0.647954 0.334225 0.090609 -0.133688
C62   C     C_R   0.659419 0.691595 0.127907 -0.146599
C63   C     C_R   0.158490 0.809905 0.126759 -0.142859
C64   C     C_R   0.191111 0.228055 0.181361 -0.096342
C65   C     C_R   0.311712 0.849779 0.245860 -0.082744
C66   C     C_R   0.326284 0.162318 0.266162 -0.090609
C67   C     C_R   0.808431 0.353830 0.242692 -0.063798
C68   C     C_R   0.812361 0.650914 0.246863 -0.080901
C69   C     C_R   0.742529 0.182503 0.732572 0.098880
C70   C     C_R   0.715518 0.793481 0.688982 0.097374
C71   C     C_R   0.215504 0.705711 0.688803 0.096425
C72   C     C_R   0.214798 0.293117 0.691096 0.095211
C73   C     C_R   0.280393 0.758438 0.780789 0.015507
C74   C     C_R   0.283760 0.244095 0.787300 0.015691
C75   C     C_R   0.822400 0.209923 0.853626 0.002917
C76   C     C_R   0.780631 0.740962 0.781168 0.012497
C77   C     C_R   0.288188 0.779901 0.896483 -0.146380
C78   C     C_R   0.298037 0.228531 0.910578 -0.136574
C79   C     C_R   0.823513 0.235308 0.961553 -0.128139
C80   C     C_R   0.789314 0.720583 0.897915 -0.151716
C81   C     C_R   0.745764 0.233733 0.951116 0.053201
C82   C     C_R   0.731478 0.747662 0.922070 0.049124
C83   C     C_R   0.230121 0.753277 0.920195 0.049363
C84   C     C_R   0.243853 0.258078 0.940318 0.047206
C85   C     C_R   0.667160 0.201419 0.831451 0.043948
C86   C     C_R   0.659018 0.792533 0.820185 0.047700
C87   C     C_R   0.157848 0.708283 0.818483 0.044904
C88   C     C_R   0.169321 0.301100 0.837527 0.057888
Cu1   Cu    Cu3+1 0.526340 0.000000 0.421010 1.036698
Cu2   Cu    Cu3+1 0.026340 0.500000 0.421010 1.033477
Cu3   Cu    Cu3+1 0.473640 0.000000 0.578990 0.935992
Cu4   Cu    Cu3+1 0.973640 0.500000 0.578990 0.931942
H1    H     H_    0.228947 0.881503 0.302455 0.168498
H2    H     H_    0.254194 0.151748 0.348115 0.177669
H3    H     H_    0.715260 0.413489 0.254112 0.153561
H4    H     H_    0.729201 0.619772 0.302627 0.167016
H5    H     H_    0.713860 0.012865 0.099108 0.191158
H6    H     H_    0.215261 0.488584 0.100353 0.193588
H7    H     H_    0.436656 0.982006 0.123650 0.178141
H8    H     H_    0.935679 0.516818 0.119882 0.178801
H9    H     H_    0.300349 0.997413 0.512562 0.139735
H10   H     H_    0.799558 0.500680 0.514180 0.132341
H11   H     H_    0.235188 0.004580 0.629329 0.176857
H12   H     H_    0.737208 0.481825 0.634109 0.179187
H13   H     H_    0.613558 0.000654 0.863820 0.213157
H14   H     H_    0.114683 0.501199 0.864502 0.216482
H15   H     H_    0.513225 0.267493 0.861020 0.173540
H16   H     H_    0.524271 0.764567 0.909207 0.184004
H17   H     H_    0.022977 0.736596 0.907601 0.178855
H18   H     H_    0.058101 0.306419 0.970647 0.181918
H19   H     H_    0.582803 0.347432 0.061419 0.161075
H20   H     H_    0.599937 0.692558 0.120791 0.171040
H21   H     H_    0.099107 0.809221 0.119900 0.171006
H22   H     H_    0.139663 0.241037 0.190368 0.211439
H23   H     H_    0.335534 0.822597 0.962501 0.208412
H24   H     H_    0.347208 0.187492 0.977632 0.219878
H25   H     H_    0.882797 0.264096 0.045100 0.207970
H26   H     H_    0.836837 0.678047 0.963957 0.206283
H27   H     H_    0.521791 0.193682 0.708083 0.168894
H28   H     H_    0.520767 0.820434 0.730226 0.184168
H29   H     H_    0.019712 0.680201 0.728493 0.184048
H30   H     H_    0.033973 0.330657 0.761875 0.185499
N1    N     N_R   0.566260 0.000000 0.302220 -0.215751
N2    N     N_R   0.066260 0.500000 0.302220 -0.214860
N3    N     N_R   0.434410 0.000000 0.697680 -0.212046
N4    N     N_R   0.934410 0.500000 0.697680 -0.212655
O1    O     O_R   0.608610 0.924520 0.551740 -0.519920
O2    O     O_R   0.608610 0.075480 0.551740 -0.525292
O3    O     O_R   0.108610 0.424520 0.551740 -0.523084
O4    O     O_R   0.108610 0.575480 0.551740 -0.518471
O5    O     O_R   0.564110 0.924510 0.685150 -0.618859
O6    O     O_R   0.564110 0.075490 0.685150 -0.613858
O7    O     O_R   0.064110 0.424510 0.685150 -0.623416
O8    O     O_R   0.064110 0.575490 0.685150 -0.616331
O9    O     O_R   0.435880 0.075470 0.314850 -0.549564
O10   O     O_R   0.435880 0.924530 0.314850 -0.558774
O11   O     O_R   0.935880 0.575470 0.314850 -0.560128
O12   O     O_R   0.935880 0.424530 0.314850 -0.552958
O13   O     O_R   0.391380 0.075460 0.448260 -0.606988
O14   O     O_R   0.391380 0.924540 0.448260 -0.603066
O15   O     O_R   0.891380 0.575460 0.448260 -0.603685
O16   O     O_R   0.891380 0.424540 0.448260 -0.598696
I1    I     I_    0.820652 0.038672 0.377107 -0.239708
I2    I     I_    0.320625 0.457556 0.377074 -0.285369
I3    I     I_    0.281864 0.027057 0.899691 -0.380607
I4    I     I_    0.796269 0.439215 0.910409 -0.410852
I5    I     I_    0.443166 0.762755 0.232297 -0.327149
I6    I     I_    0.464208 0.232518 0.249297 -0.289498
I7    I     I_    0.938685 0.234040 0.305868 -0.278780
I8    I     I_    0.944805 0.736767 0.234755 -0.321654
I9    I     I_    0.719644 0.194644 0.540452 -0.284537
I10   I     I_    0.688937 0.806815 0.493334 -0.314223
I11   I     I_    0.191377 0.689654 0.495215 -0.310847
I12   I     I_    0.179715 0.300997 0.488482 -0.344508
C89   C     C_2   0.341553 0.791934 0.759022 0.343725
H31   H     H_    0.346530 0.770984 0.682107 0.109769
O17   O     O_2   0.389278 0.843579 0.829543 -0.584571
C90   C     C_2   0.342740 0.208477 0.762378 0.351871
H32   H     H_    0.332106 0.215718 0.666128 0.105817
O18   O     O_2   0.406398 0.170830 0.851802 -0.566367
C91   C     C_2   0.906305 0.209545 0.871414 0.378334
H33   H     H_    0.905556 0.207881 0.783001 0.115845
O19   O     O_2   0.978521 0.207092 0.987801 -0.568771
C92   C     C_2   0.840708 0.706210 0.757936 0.347721
H34   H     H_    0.846641 0.727550 0.682442 0.107690
O20   O     O_2   0.886154 0.653041 0.825242 -0.571721
I13   I     I_    0.760560 0.998459 0.584596 -0.214484
I14   I     I_    0.260504 0.495674 0.585521 -0.226991

loop_
_geom_bond_atom_site_label_1
_geom_bond_atom_site_label_2
_ccdc_geom_bond_type
C28   H4    S    
C26   H2    S    
C34   C60   A    
C25   H1    S    
Cu1   O9    S    
C89   O17   D    
C14   C18   A    
C27   H3    S    
Cu4   O7    S    
C48   C56   A    
C13   H15   S    
C91   H33   S    
C16   H18   S    
C32   C72   A    
C39   O9    A    
C33   I1    S    
C15   C19   A    
C40   O10   A    
C34   I2    S    
C60   I14   S    
C55   H13   S    
C2    C29   S    
C9    C61   A    
C21   I5    S    
C47   C55   A    
C92   H34   S    
C28   C68   A    
C5    C11   A    
C19   C87   A    
C6    C12   A    
C12   C64   A    
Cu3   O5    S    
C77   C83   A    
C78   H24   S    
C6    C22   A    
C79   H25   S    
C49   C57   A    
C36   H10   S    
C25   C63   A    
C23   C67   A    
C50   C52   A    
C35   N3    A    
C9    C13   A    
C22   C66   A    
C38   H12   S    
C27   C61   A    
Cu2   O12   S    
Cu2   O3    S    
C11   C15   A    
C12   C16   A    
C44   C46   A    
C49   C51   A    
C42   O16   A    
C2    O6    A    
C76   C80   A    
C30   C86   A    
Cu4   O16   S    
C30   C70   A    
C29   C85   A    
C21   C65   A    
C62   H20   S    
C45   C47   A    
C23   I7    S    
C33   C59   A    
Cu1   O10   S    
Cu2   O4    S    
C90   O18   D    
C10   C62   A    
C91   O19   D    
C52   C54   A    
C47   N3    A    
C41   C68   S    
C29   C69   A    
C53   C55   A    
C59   N1    A    
Cu2   Cu4   S    
C46   C48   A    
C14   H16   S    
C31   C87   A    
C28   C62   A    
C74   C90   S    
C26   C66   A    
C84   C88   A    
C6    C84   A    
C72   C74   A    
C10   C14   A    
C80   H26   S    
C79   C81   A    
C24   C68   A    
C4    O4    A    
Cu3   O6    S    
Cu1   N1    S    
C53   H5    S    
C82   C86   A    
C3    O7    A    
C69   I9    S    
C37   C43   A    
C5    C83   A    
C38   C44   A    
C43   I3    S    
C57   N1    A    
C44   I4    S    
C45   C49   A    
C16   C20   A    
C73   C89   S    
C20   C88   A    
C50   C58   A    
C58   H8    S    
C18   C86   A    
Cu4   O15   S    
C43   C45   A    
C56   H14   S    
C24   I8    S    
Cu3   O13   S    
C80   C82   A    
C7    C81   A    
C22   I6    S    
Cu4   O8    S    
C40   C65   S    
C70   C76   A    
C42   C67   S    
C39   C66   S    
C17   C85   A    
C76   C92   S    
C32   C88   A    
C60   N2    A    
C61   H19   S    
C18   H28   S    
Cu2   O11   S    
C59   I13   S    
C4    O8    A    
Cu1   O1    S    
C41   O11   A    
C7    C9    A    
C70   I10   S    
C19   H29   S    
Cu3   N3    S    
C35   C37   A    
C3    O3    A    
Cu2   N2    S    
C36   N4    A    
C1    O1    A    
C58   N2    A    
C1    O5    A    
Cu4   N4    S    
C83   C87   A    
C35   H9    S    
C37   H11   S    
C54   C56   A    
C26   C64   A    
C33   C51   A    
C72   I12   S    
C41   O15   A    
C46   C50   A    
C34   C52   A    
C20   H30   S    
C13   C17   A    
C75   C91   S    
C36   C38   A    
C15   H17   S    
C90   H32   S    
C7    C23   A    
C40   O14   A    
C92   O20   D    
C1    C30   S    
C8    C24   A    
C69   C75   A    
C3    C32   S    
C4    C31   S    
C27   C67   A    
C17   H27   S    
C48   N4    A    
Cu3   O14   S    
C63   H21   S    
C78   C84   A    
C8    C82   A    
C5    C21   A    
C64   H22   S    
C8    C10   A    
Cu1   Cu3   S    
C74   C78   A    
C71   C73   A    
C89   H31   S    
C25   C65   A    
C73   C77   A    
C54   H6    S    
C42   O12   A    
C71   I11   S    
C51   C53   A    
C77   H23   S    
C11   C63   A    
C75   C79   A    
C39   O13   A    
C81   C85   A    
C2    O2    A    
C31   C71   A    
Cu1   O2    S    
C57   H7    S    
