data_mof_unit_50596.cif
_audit_creation_date              2012-12-10T18:55:58-0500
_audit_creation_method            fapswitch 2.2
_symmetry_space_group_name_H-M    P1
_symmetry_Int_Tables_number       1
_space_group_crystal_system       triclinic
_cell_length_a                    10.883782
_cell_length_b                    9.808127
_cell_length_c                    15.000951
_cell_angle_alpha                 89.999487
_cell_angle_beta                  90.103953
_cell_angle_gamma                 90.000045
_cell_volume                      1601.34162455

loop_
_atom_site_label
_atom_site_type_symbol
_atom_type_description
_atom_site_fract_x
_atom_site_fract_y
_atom_site_fract_z
_atom_type_partial_charge
C1    C     C_R   0.259647 0.498120 0.505786 0.885864
C2    C     C_R   0.940679 0.611950 0.483103 0.052835
C3    C     C_R   0.935675 0.360623 0.494761 0.043667
C4    C     C_R   0.059326 0.611944 0.516947 0.052837
C5    C     C_R   0.543757 0.614540 0.094216 -0.180587
C6    C     C_R   0.543667 0.385570 0.905887 -0.182429
C7    C     C_R   0.457323 0.614533 0.905876 -0.180410
C8    C     C_R   0.457822 0.385393 0.094013 -0.182281
C9    C     C_R   0.542801 0.614888 0.186213 -0.209467
C10   C     C_R   0.542655 0.385170 0.813890 -0.205450
C11   C     C_R   0.457771 0.614841 0.813877 -0.209477
C12   C     C_R   0.740355 0.498121 0.494223 0.885838
C13   C     C_R   0.458331 0.385034 0.186009 -0.205516
C14   C     C_R   0.500428 0.499978 0.232034 -0.019470
C15   C     C_R   0.500055 0.499984 0.767963 -0.019375
C16   C     C_R   0.500823 0.499992 0.048112 0.118758
C17   C     C_R   0.500661 0.500073 0.951885 0.118723
C18   C     C_R   0.873595 0.489522 0.487671 -0.158871
C19   C     C_R   0.126409 0.489519 0.512361 -0.158891
C20   C     C_3   0.131253 0.221730 0.509610 -0.347173
C21   C     C_3   0.168552 0.173968 0.415155 -0.311072
C22   C     C_3   0.203560 0.023982 0.413893 -0.910123
C23   C     C_R   0.500069 0.500001 0.327761 0.852958
C24   C     C_3   0.894128 0.738342 0.433832 -0.409960
C25   C     C_3   0.855752 0.705524 0.337536 -0.312627
C26   C     C_3   0.830349 0.835618 0.284713 -0.918081
C27   C     C_3   0.868750 0.221730 0.490420 -0.347147
C28   C     C_3   0.831426 0.173965 0.584870 -0.311111
C29   C     C_3   0.796418 0.023981 0.586126 -0.910172
C30   C     C_3   0.105888 0.738326 0.566219 -0.409942
C31   C     C_3   0.144293 0.705493 0.662509 -0.312724
C32   C     C_3   0.169715 0.835582 0.715333 -0.918015
C33   C     C_R   0.499987 0.500000 0.672237 0.852901
C34   C     C_R   0.474953 0.071975 0.576224 -0.095865
C35   C     C_R   0.524503 0.928009 0.423710 -0.105889
C36   C     C_R   0.525057 0.071979 0.423777 -0.095845
C37   C     C_R   0.475508 0.928005 0.576291 -0.105892
C38   C     C_R   0.064327 0.360623 0.505275 0.043658
H1    H     H_    0.454577 0.126193 0.637144 0.131209
H2    H     H_    0.576663 0.296305 0.778800 0.143217
H3    H     H_    0.423845 0.703759 0.778779 0.149333
H4    H     H_    0.424303 0.296104 0.221017 0.143236
H5    H     H_    0.270593 0.001279 0.467359 0.280356
H6    H     H_    0.120555 0.961518 0.424286 0.242428
H7    H     H_    0.244258 0.996951 0.348413 0.252705
H8    H     H_    0.091425 0.189369 0.367566 0.199434
H9    H     H_    0.246978 0.233749 0.389074 0.251350
H10   H     H_    0.208200 0.219419 0.557908 0.207696
H11   H     H_    0.075843 0.142159 0.542711 0.184728
H12   H     H_    0.543658 0.873695 0.362667 0.137094
H13   H     H_    0.758144 0.897175 0.317896 0.254046
H14   H     H_    0.915355 0.897757 0.279210 0.263695
H15   H     H_    0.798654 0.808817 0.216539 0.248302
H16   H     H_    0.930482 0.648037 0.303823 0.219068
H17   H     H_    0.771679 0.641507 0.336811 0.220107
H18   H     H_    0.818910 0.789489 0.470186 0.231867
H19   H     H_    0.968159 0.814918 0.429063 0.189837
H20   H     H_    0.729409 0.001276 0.532647 0.280356
H21   H     H_    0.879420 0.961518 0.575747 0.242437
H22   H     H_    0.755694 0.996951 0.651595 0.252722
H23   H     H_    0.545434 0.126201 0.362857 0.131176
H24   H     H_    0.908541 0.189362 0.632469 0.199444
H25   H     H_    0.752997 0.233746 0.610939 0.251333
H26   H     H_    0.791816 0.219418 0.442110 0.207693
H27   H     H_    0.924164 0.142157 0.457329 0.184735
H28   H     H_    0.241970 0.897084 0.682163 0.254043
H29   H     H_    0.084732 0.897769 0.720801 0.263696
H30   H     H_    0.201359 0.808783 0.783525 0.248277
H31   H     H_    0.069574 0.648002 0.696229 0.219083
H32   H     H_    0.228371 0.641485 0.663217 0.220087
H33   H     H_    0.181097 0.789477 0.529858 0.231867
H34   H     H_    0.456355 0.873687 0.637332 0.137124
H35   H     H_    0.031855 0.814898 0.571003 0.189840
H36   H     H_    0.578785 0.702851 0.059097 0.128107
H37   H     H_    0.578941 0.297380 0.941101 0.128241
H38   H     H_    0.422267 0.702757 0.941070 0.128134
H39   H     H_    0.422833 0.297136 0.058725 0.128249
H40   H     H_    0.576377 0.703898 0.221382 0.149411
N1    N     N_R   0.500000 0.857200 0.500000 -0.075190
N2    N     N_R   0.500000 0.142800 0.500000 -0.069194
O1    O     O_R   0.316770 0.614620 0.499990 -0.611617
O2    O     O_R   0.683230 0.385380 0.500010 -0.630252
O3    O     O_R   0.683230 0.614620 0.500010 -0.611625
O4    O     O_R   0.316770 0.385380 0.499990 -0.630240
O5    O     O_R   0.499990 0.614660 0.369060 -0.626462
O6    O     O_R   0.500010 0.385340 0.630940 -0.638544
O7    O     O_R   0.500010 0.614660 0.630940 -0.626439
O8    O     O_R   0.499990 0.385340 0.369060 -0.638526
Zn1   Zn    Zn3+2 0.500000 0.653120 0.500000 0.938886
Zn2   Zn    Zn3+2 0.500000 0.346880 0.500000 0.919265

loop_
_geom_bond_atom_site_label_1
_geom_bond_atom_site_label_2
_ccdc_geom_bond_type
C8    C13   A    
C2    C18   A    
C34   C37   A    
C35   C36   A    
C9    C14   A    
C30   H33   S    
C6    H37   S    
C1    O4    A    
C7    C11   A    
C37   N1    A    
C28   C29   S    
C10   C15   A    
C30   C31   S    
C1    O1    A    
C3    C18   A    
C10   H2    S    
C5    H36   S    
C5    C16   A    
C34   N2    A    
C4    C19   A    
C11   C15   A    
C31   H32   S    
C22   H6    S    
C29   H21   S    
C3    C38   A    
C16   C17   S    
C7    C17   A    
C32   H30   S    
O1    Zn1   S    
C8    C16   A    
C21   C22   S    
C36   N2    A    
O4    Zn2   S    
C13   H4    S    
O3    Zn1   S    
C1    C19   S    
C34   H1    S    
C25   H16   S    
O6    Zn2   S    
C30   H35   S    
O5    Zn1   S    
C24   H19   S    
C25   C26   S    
C12   O3    A    
C14   C23   S    
C2    C4    A    
C33   O6    A    
C5    C9    A    
C20   H11   S    
C27   H27   S    
C19   C38   A    
C26   H14   S    
C20   C38   S    
C31   C32   S    
C29   H22   S    
C35   H12   S    
C12   O2    A    
C24   C25   S    
C20   H10   S    
C32   H29   S    
O8    Zn2   S    
C23   O8    A    
O7    Zn1   S    
C2    C24   S    
C8    H39   S    
C36   H23   S    
C26   H15   S    
C29   H20   S    
C32   H28   S    
C21   H8    S    
C6    C17   A    
C25   H17   S    
C6    C10   A    
C7    H38   S    
C24   H18   S    
O2    Zn2   S    
C3    C27   S    
C33   O7    A    
C26   H13   S    
C35   N1    A    
C11   H3    S    
C9    H40   S    
N2    Zn2   S    
N1    Zn1   S    
C27   H26   S    
C28   H25   S    
C31   H31   S    
C22   H7    S    
C20   C21   S    
C23   O5    A    
C37   H34   S    
C12   C18   S    
C27   C28   S    
C13   C14   A    
C15   C33   S    
C22   H5    S    
C4    C30   S    
C21   H9    S    
C28   H24   S    
