data_mof_unit_68584.cif
_audit_creation_date              2012-12-11T17:11:35-0500
_audit_creation_method            fapswitch 2.2
_symmetry_space_group_name_H-M    P1
_symmetry_Int_Tables_number       1
_space_group_crystal_system       triclinic
_cell_length_a                    8.461085
_cell_length_b                    16.781755
_cell_length_c                    16.711353
_cell_angle_alpha                 109.366111
_cell_angle_beta                  94.684238
_cell_angle_gamma                 81.383688
_cell_volume                      2212.04907636

loop_
_atom_site_label
_atom_site_type_symbol
_atom_type_description
_atom_site_fract_x
_atom_site_fract_y
_atom_site_fract_z
_atom_type_partial_charge
Ba1   Ba    Ba6+2 0.642070 0.542310 0.469620 1.750561
Ba2   Ba    Ba6+2 0.168110 0.457680 0.530320 1.763615
C1    C     C_3   0.760950 0.767823 0.221072 -0.094855
C2    C     C_R   0.082133 0.756344 0.546618 -0.256872
C3    C     C_2   0.558056 0.137208 0.388639 -0.049968
C4    C     C_3   0.290835 0.780024 0.300131 0.379683
C5    C     C_2   0.568433 0.220951 0.426894 0.043332
C6    C     C_2   0.823760 0.190650 0.501222 -0.046440
C7    C     C_3   0.785150 0.100002 0.483246 0.002675
C8    C     C_3   0.689726 0.068963 0.399128 0.049654
C9    C     C_2   0.914124 0.032357 0.497895 -0.116140
C10   C     C_2   0.874135 0.964103 0.514433 -0.026378
C11   C     C_R   0.134404 0.923709 0.582762 0.045367
C12   C     C_3   0.742993 0.738331 0.297499 0.362781
C13   C     C_R   0.992304 0.899417 0.539249 -0.020050
C14   C     C_R   0.253018 0.865655 0.604479 0.125199
C15   C     C_R   0.230863 0.779854 0.581603 0.044526
C16   C     C_3   0.251800 0.845524 0.246927 0.034597
C17   C     C_R   0.964223 0.814286 0.523479 0.105004
C18   C     C_R   0.115712 0.519402 0.267159 -0.264594
C19   C     C_R   0.986284 0.474181 0.232441 -0.052232
C20   C     C_R   0.955664 0.448728 0.143123 -0.124543
C21   C     C_R   0.048272 0.474201 0.090813 0.324036
C22   C     C_R   0.188455 0.510814 0.126558 0.105963
C23   C     C_3   0.874405 0.725312 0.721739 0.304059
C24   C     C_R   0.218407 0.537543 0.215507 0.052700
C25   C     C_R   0.882060 0.510967 0.855665 -0.085034
C26   C     C_R   0.846577 0.496580 0.768023 0.016289
C27   C     C_R   0.812351 0.466309 0.899634 0.235239
C28   C     C_3   0.266437 0.258104 0.249099 0.228864
C29   C     C_R   0.732806 0.442630 0.726986 -0.211755
C30   C     C_R   0.635954 0.415225 0.774395 -0.047210
C31   C     C_R   0.678599 0.424691 0.860607 0.041959
C32   C     C_3   0.264982 0.216993 0.151649 -0.190669
C33   C     C_3   0.327117 0.693352 0.755600 0.257565
C34   C     C_3   0.796066 0.817022 0.769964 -0.247844
C35   C     C_3   0.259741 0.767837 0.832446 -0.355297
C36   C     C_3   0.837911 0.285929 0.312374 0.332757
C37   C     C_3   0.853203 0.190179 0.266950 -0.041202
C38   C     C_2   0.318734 0.272637 0.107374 0.874495
C39   C     C_2   0.357677 0.128413 0.123911 0.846892
C40   C     C_2   0.417265 0.621981 0.780737 0.911877
C41   C     C_2   0.381678 0.815426 0.894208 0.978044
C42   C     C_2   0.760452 0.691924 0.140926 0.938912
C43   C     C_3   0.841473 0.090412 0.121776 -0.155507
C44   C     C_2   0.826947 0.848508 0.865964 0.984394
C45   C     C_3   0.547444 0.228304 0.691555 0.278552
C46   C     C_2   0.844669 0.879886 0.732817 0.746484
C47   C     C_3   0.674807 0.882032 0.159505 -0.190539
C48   C     C_3   0.106881 0.985286 0.245541 -0.224196
C49   C     C_2   0.421021 0.100907 0.601505 0.893674
C50   C     C_2   0.491916 0.125446 0.760315 0.792822
C51   C     C_2   0.046275 0.286021 0.782880 0.894991
C52   C     C_3   0.390555 0.900240 0.421035 -0.205098
C53   C     C_3   0.368663 0.932445 0.741418 -0.135781
C54   C     C_2   0.963219 0.584398 0.904299 0.933355
C55   C     C_3   0.291375 0.585066 0.044544 -0.135284
C56   C     C_3   0.530973 0.135242 0.677662 -0.163891
C57   C     C_2   0.851257 0.382492 0.102239 0.898189
C58   C     C_2   0.144952 0.769376 0.340214 0.762683
C59   C     C_3   0.586835 0.319530 0.911524 -0.139516
C60   C     C_2   0.211539 0.804081 0.153826 0.880497
C61   C     C_3   0.981388 0.225612 0.703306 0.387603
C62   C     C_3   0.953245 0.144588 0.720248 -0.331242
C63   C     C_2   0.710819 0.247639 0.481383 -0.277489
H1    H     H_    0.634486 0.707806 0.289405 0.080642
H2    H     H_    0.844570 0.688213 0.296236 -0.032306
H3    H     H_    0.878790 0.789281 0.227622 0.184409
H4    H     H_    0.995857 0.727612 0.704781 -0.083937
H5    H     H_    0.805370 0.701224 0.661550 0.062504
H6    H     H_    0.664893 0.817065 0.759582 0.085651
H7    H     H_    0.581153 0.234299 0.630951 0.001675
H8    H     H_    0.645343 0.245805 0.739162 -0.074073
H9    H     H_    0.649463 0.097989 0.659861 -0.045144
H10   H     H_    0.865745 0.257747 0.686208 -0.191689
H11   H     H_    0.859729 0.159066 0.767573 0.126955
H12   H     H_    0.137935 0.209719 0.131265 0.044515
H13   H     H_    0.062863 0.115564 0.746233 0.170313
H14   H     H_    0.916145 0.097178 0.661290 0.089826
H15   H     H_    0.460023 0.117443 0.343677 0.069637
H16   H     H_    0.729845 0.313787 0.498308 0.049729
H17   H     H_    0.060891 0.691059 0.533080 0.056990
H18   H     H_    0.038759 0.039880 0.496532 0.138242
H19   H     H_    0.748332 0.956941 0.511752 0.095182
H20   H     H_    0.142084 0.536488 0.334726 0.091831
H21   H     H_    0.701209 0.434164 0.660843 0.076834
H22   H     H_    0.362107 0.873131 0.248011 0.080916
H23   H     H_    0.226553 0.667544 0.714091 -0.007729
H24   H     H_    0.226014 0.211354 0.274241 0.043862
H25   H     H_    0.181681 0.317344 0.265339 0.043988
H26   H     H_    0.430865 0.371352 0.114428 0.325481
H27   H     H_    0.516584 0.042822 0.044831 0.344658
H28   H     H_    0.513184 0.575922 0.873668 0.301585
H29   H     H_    0.211650 0.905200 0.960552 0.301559
H30   H     H_    0.539505 0.725774 0.098711 0.323109
H31   H     H_    0.665029 0.190525 0.177766 0.244575
H32   H     H_    0.797508 0.039571 0.139324 0.094992
H33   H     H_    0.974135 0.079992 0.120755 0.128813
H34   H     H_    0.185456 0.743997 0.868033 0.117558
H35   H     H_    0.795366 0.087489 0.056902 0.172557
H36   H     H_    0.681478 0.959101 0.881425 0.278201
H37   H     H_    0.776059 0.963684 0.670346 0.314993
H38   H     H_    0.622119 0.883801 0.277347 0.244385
H39   H     H_    0.573379 0.932115 0.158630 0.165926
H40   H     H_    0.688018 0.836608 0.094050 0.199381
H41   H     H_    0.785712 0.912488 0.179927 0.116116
H42   H     H_    0.128572 0.943106 0.346863 0.225901
H43   H     H_    0.997532 0.028680 0.271137 0.094394
H44   H     H_    0.090477 0.960711 0.175514 0.158277
H45   H     H_    0.178763 0.813562 0.808786 0.074658
H46   H     H_    0.211115 0.021444 0.263411 0.148565
H47   H     H_    0.267646 0.061504 0.661855 0.278659
H48   H     H_    0.575844 0.092387 0.862679 0.330709
H49   H     H_    0.119017 0.311322 0.905758 0.367199
H50   H     H_    0.437449 0.770791 0.404048 0.237801
H51   H     H_    0.484397 0.912025 0.471811 0.164160
H52   H     H_    0.274281 0.918698 0.451566 0.107943
H53   H     H_    0.405142 0.942360 0.384035 0.118515
H54   H     H_    0.444816 0.932665 0.626907 0.234270
H55   H     H_    0.273902 0.988077 0.755292 0.128013
H56   H     H_    0.710433 0.311720 0.322821 0.041378
H57   H     H_    0.481145 0.952918 0.774522 0.141986
H58   H     H_    0.334406 0.885239 0.766759 0.115479
H59   H     H_    0.152063 0.646869 0.918907 0.304520
H60   H     H_    0.421952 0.493728 0.088834 0.221444
H61   H     H_    0.345173 0.566824 0.981837 0.168053
H62   H     H_    0.356540 0.634215 0.089655 0.156280
H63   H     H_    0.164532 0.611146 0.040961 0.172653
H64   H     H_    0.836433 0.263250 0.022433 0.318443
H65   H     H_    0.049991 0.685585 0.377742 0.268653
H66   H     H_    0.564511 0.449889 0.972078 0.227599
H67   H     H_    0.906375 0.298584 0.374021 -0.020258
H68   H     H_    0.581318 0.317937 0.976968 0.138935
H69   H     H_    0.700929 0.282037 0.884238 0.115175
H70   H     H_    0.483538 0.289950 0.875680 0.184513
H71   H     H_    0.048042 0.751849 0.066280 0.345728
H72   H     H_    0.791768 0.158542 0.301387 -0.009995
H73   H     H_    0.982206 0.165142 0.265951 0.071508
N1    N     N_2   0.004736 0.464852 0.003019 -0.194645
N2    N     N_2   0.856892 0.472872 0.986440 -0.181374
N3    N     N_2   0.786768 0.172963 0.181035 -0.387456
N4    N     N_2   0.643498 0.839555 0.218220 -0.464502
N5    N     N_2   0.127856 0.917245 0.281985 -0.431874
N6    N     N_2   0.407928 0.810995 0.368635 -0.438347
N7    N     N_2   0.392106 0.894692 0.651287 -0.394128
N8    N     N_2   0.306482 0.511330 0.071190 -0.443091
N9    N     N_2   0.571827 0.406573 0.911870 -0.420746
O1    O     O_2   0.554430 0.712240 0.583340 -0.426906
O2    O     O_2   0.300569 0.445071 0.780047 -0.356504
O3    O     O_3   0.406409 0.282137 0.722455 -0.547957
O4    O     O_3   0.337760 0.603960 0.562660 -0.480228
O5    O     O_3   0.954190 0.455690 0.394480 -0.500745
O6    O     O_2   0.106750 0.542200 0.705290 -0.432489
O7    O     O_3   0.878520 0.671982 0.771668 -0.599018
O8    O     O_2   0.146737 0.192389 0.483757 -0.437931
O9    O     O_3   0.094764 0.204588 0.639637 -0.546467
O10   O     O_3   0.813110 0.658990 0.426440 -0.524818
O11   O     O_2   0.641862 0.804237 0.517217 -0.481072
O12   O     O_3   0.901713 0.321021 0.259436 -0.633304
O13   O     O_3   0.432870 0.720883 0.713557 -0.638975
O14   O     O_3   0.738996 0.807404 0.374078 -0.575735
O15   O     O_2   0.703570 0.457750 0.294670 -0.398770
O16   O     O_3   0.412810 0.615240 0.376810 -0.442190
O17   O     O_2   0.542608 0.556183 0.226433 -0.459084
O18   O     O_2   0.292657 0.256642 0.030942 -0.545786
O19   O     O_R   0.398625 0.341663 0.152783 -0.739881
O20   O     O_2   0.330638 0.075854 0.155341 -0.647320
O21   O     O_R   0.468102 0.104753 0.059549 -0.736463
O22   O     O_2   0.471892 0.559257 0.724415 -0.652144
O23   O     O_3   0.361694 0.700407 0.242371 -0.663552
O24   O     O_R   0.443450 0.627277 0.865917 -0.743563
O25   O     O_2   0.524178 0.789545 0.887796 -0.530104
O26   O     O_R   0.332070 0.889513 0.960359 -0.683950
O27   O     O_2   0.876985 0.637930 0.128316 -0.588661
O28   O     O_R   0.633121 0.679998 0.081526 -0.680300
O29   O     O_2   0.912108 0.804601 0.901857 -0.547331
O30   O     O_R   0.754554 0.928178 0.915598 -0.727085
O31   O     O_2   0.980901 0.898355 0.744237 -0.653627
O32   O     O_R   0.732469 0.918672 0.686959 -0.740068
O33   O     O_2   0.451661 0.105353 0.533389 -0.604394
O34   O     O_2   0.255890 0.287710 0.416620 -0.480268
O35   O     O_R   0.287803 0.062942 0.604181 -0.749582
O36   O     O_2   0.361439 0.155007 0.791459 -0.578801
O37   O     O_R   0.611511 0.089084 0.805083 -0.757709
O38   O     O_2   0.083398 0.352376 0.780502 -0.585916
O39   O     O_R   0.065893 0.267026 0.858854 -0.706054
O40   O     O_2   0.894521 0.640699 0.962254 -0.540823
O41   O     O_R   0.112778 0.592371 0.881172 -0.729567
O42   O     O_2   0.712443 0.393010 0.122141 -0.598410
O43   O     O_R   0.913949 0.307023 0.041315 -0.727876
O44   O     O_2   0.027596 0.822413 0.352040 -0.641157
O45   O     O_3   0.472550 0.396030 0.437270 -0.480827
O46   O     O_R   0.154316 0.705825 0.376451 -0.798036
O47   O     O_2   0.290407 0.813206 0.100100 -0.601565
O48   O     O_R   0.075187 0.763933 0.128955 -0.774058
O49   O     O_3   0.997190 0.341000 0.573500 -0.470485
O50   O     O_3   0.416969 0.280433 0.284102 -0.628989
O51   O     O_3   0.856110 0.544300 0.605450 -0.494520
O52   O     O_3   0.397490 0.384750 0.623120 -0.439940
P1    P     P_3+3 0.385820 0.698700 0.604730 1.040955
P2    P     P_3+3 0.884390 0.431600 0.301750 1.029621
P3    P     P_3+3 0.382660 0.602748 0.267209 1.014158
P4    P     P_3+3 0.424480 0.301290 0.395200 0.984612
P5    P     P_3+3 0.437297 0.383861 0.726887 1.117397
P6    P     P_3+3 0.788574 0.770799 0.461269 0.969739
P7    P     P_3+3 0.918515 0.563323 0.712101 1.039390
P8    P     P_3+3 0.014220 0.230139 0.549489 1.027162

loop_
_geom_bond_atom_site_label_1
_geom_bond_atom_site_label_2
_ccdc_geom_bond_type
C52   N6    S    
C37   H72   S    
O16   P3    S    
C30   P5    S    
O51   P7    S    
C26   P7    S    
H26   O19   S    
C1    H3    S    
C50   O36   D    
O3    P5    S    
C28   H25   S    
C49   O35   S    
Ba1   P2    S    
C47   H39   S    
C46   O31   D    
C59   H68   S    
O13   P1    S    
C13   C17   A    
C32   C39   S    
C59   H70   S    
C61   H10   S    
Ba1   O5    S    
C32   C38   S    
O17   P3    D    
C21   N1    S    
C16   N5    S    
C33   C35   S    
C19   P2    S    
C42   O27   D    
C36   O12   S    
O8    P8    D    
H60   N8    S    
C32   H12   S    
C36   C37   S    
O12   P2    S    
H48   O37   S    
C25   C27   A    
C39   O21   S    
C27   C31   A    
C10   H19   S    
C15   P1    S    
Ba1   Ba2   S    
O9    P8    S    
C33   C40   S    
C51   O38   D    
C33   O13   S    
C5    P4    S    
C31   N9    S    
H31   N3    S    
C2    C17   A    
Ba1   O51   S    
C14   C15   A    
C52   H51   S    
C59   H69   S    
C12   H2    S    
C45   O3    S    
H66   N9    S    
C7    C8    S    
Ba1   O4    S    
C38   O19   S    
C34   H6    S    
H65   O46   S    
C37   H73   S    
C6    C63   D    
C29   H21   S    
C55   N8    S    
C18   H20   S    
C43   N3    S    
H37   O32   S    
C44   O30   S    
O14   P6    S    
O34   P4    D    
C1    N4    S    
C60   O48   S    
C55   H63   S    
C28   H24   S    
H54   N7    S    
C41   O25   D    
C58   O46   S    
C34   C46   S    
C53   H55   S    
H64   O43   S    
Ba2   O5    S    
C4    C16   S    
C53   H58   S    
C1    C42   S    
C28   C32   S    
O15   P2    D    
Ba2   O52   S    
C37   N3    S    
O10   P6    S    
C45   H8    S    
H71   O48   S    
C20   C57   S    
C3    C5    D    
C25   C54   S    
C6    C7    S    
H47   O35   S    
H29   O26   S    
C9    H18   S    
C48   H44   S    
C53   H57   S    
C61   C62   S    
C14   N7    S    
Ba2   O34   S    
C36   H67   S    
C35   C41   S    
C6    P8    S    
C51   O39   S    
C55   H62   S    
C40   O22   D    
C4    C58   S    
C5    C63   S    
C33   H23   S    
H27   O21   S    
C63   H16   S    
C29   C30   A    
C43   H32   S    
C54   O40   D    
C21   C22   A    
C42   O28   S    
C47   N4    S    
C12   H1    S    
C2    H17   S    
C49   C56   S    
C3    H15   S    
C34   C44   S    
C7    C9    S    
O2    P5    D    
C38   O18   D    
O7    P7    S    
C1    C12   S    
C50   C56   S    
C2    C15   A    
Ba1   O15   S    
C10   C13   S    
C52   H53   S    
O52   P5    S    
C62   H14   S    
C44   O29   D    
O5    P2    S    
C57   O42   D    
Ba1   P1    S    
C35   H45   S    
C60   O47   D    
H42   N5    S    
C49   O33   D    
H38   N4    S    
C35   H34   S    
C48   N5    S    
C56   H9    S    
H59   O41   S    
C4    O23   S    
Ba2   O4    S    
C55   H61   S    
C27   N2    S    
H50   N6    S    
H28   O24   S    
C24   P3    S    
C23   O7    S    
Ba2   O51   S    
O11   P6    D    
C62   H13   S    
O4    P1    S    
C48   H43   S    
C26   C29   A    
O1    P1    D    
Ba2   P4    S    
C50   O37   S    
Ba2   O45   S    
Ba1   O1    S    
C43   H35   S    
C61   O9    S    
C47   H40   S    
N1    N2    D    
C47   H41   S    
C23   H5    S    
Ba2   O6    S    
C16   H22   S    
H49   O39   S    
C43   H33   S    
C30   C31   A    
O49   P8    S    
C11   C13   A    
C59   N9    S    
C3    C8    S    
C22   N8    S    
H30   O28   S    
C45   C56   S    
C51   C61   S    
C22   C24   A    
C41   O26   S    
C18   C24   A    
C12   O14   S    
C58   O44   D    
C39   O20   D    
Ba1   O10   S    
C48   H46   S    
O45   P4    S    
O50   P4    S    
Ba2   O49   S    
C46   O32   S    
C45   H7    S    
O23   P3    S    
C36   H56   S    
C53   N7    S    
C40   O24   S    
C23   C34   S    
O6    P7    D    
Ba1   O45   S    
C28   O50   S    
C23   H4    S    
C18   C19   A    
Ba1   O16   S    
C52   H52   S    
C11   C14   A    
C25   C26   A    
C17   P6    S    
C20   C21   A    
C57   O43   S    
C16   C60   S    
C62   H11   S    
C54   O41   S    
C19   C20   A    
C4    N6    S    
H36   O30   S    
C9    C10   D    
