data_mof_unit_30933.cif
_audit_creation_date              2012-10-26T20:43:01-0400
_audit_creation_method            fapswitch 2.2
_symmetry_space_group_name_H-M    P1
_symmetry_Int_Tables_number       1
_space_group_crystal_system       triclinic
_cell_length_a                    10.804946
_cell_length_b                    9.514768
_cell_length_c                    15.110931
_cell_angle_alpha                 90.60557
_cell_angle_beta                  90.537296
_cell_angle_gamma                 89.945604
_cell_volume                      1553.34711804

loop_
_atom_site_label
_atom_site_type_symbol
_atom_type_description
_atom_site_fract_x
_atom_site_fract_y
_atom_site_fract_z
_atom_type_partial_charge
C1    C     C_R   0.262575 0.500086 0.499639 0.554203
C2    C     C_R   0.128608 0.500263 0.499842 -0.023373
C3    C     C_R   0.425570 0.073574 0.442857 0.038634
C4    C     C_R   0.574431 0.926426 0.557143 0.038625
C5    C     C_R   0.574451 0.075285 0.557127 0.034883
C6    C     C_R   0.425550 0.924715 0.442873 0.034884
C7    C     C_R   0.503614 0.499089 0.328750 0.557458
C8    C     C_R   0.496388 0.500910 0.671249 0.557450
C9    C     C_R   0.544843 0.389820 0.813014 -0.120235
C10   C     C_R   0.455171 0.610185 0.186986 -0.120225
C11   C     C_R   0.491926 0.503002 0.768082 -0.010254
C12   C     C_R   0.737425 0.499914 0.500364 0.554203
C13   C     C_R   0.508079 0.496997 0.231918 -0.010241
C14   C     C_R   0.437191 0.615492 0.815801 -0.028856
C15   C     C_R   0.562806 0.384501 0.184199 -0.028848
C16   C     C_R   0.441239 0.615347 0.909122 0.004211
C17   C     C_R   0.558767 0.384654 0.090878 0.004213
C18   C     C_R   0.497499 0.500979 0.953431 0.054579
C19   C     C_R   0.502513 0.499026 0.046569 0.054579
C20   C     C_R   0.548505 0.388149 0.904850 0.014695
C21   C     C_R   0.451509 0.611858 0.095151 0.014694
C22   C     C_R   0.390903 0.726648 0.959512 -0.121942
C23   C     C_R   0.396266 0.724748 0.051402 -0.118774
C24   C     C_R   0.609104 0.273355 0.040487 -0.121943
C25   C     C_1   0.373267 0.727592 0.769489 0.211726
C26   C     C_1   0.626702 0.272375 0.230509 0.211731
C27   C     C_1   0.134407 0.363936 0.639292 0.234359
C28   C     C_1   0.865591 0.635971 0.360679 0.234357
C29   C     C_1   0.871056 0.362347 0.639293 0.221989
C30   C     C_1   0.128945 0.637645 0.360708 0.221993
C31   C     C_R   0.603747 0.275259 0.948598 -0.118775
C32   C     C_R   0.065933 0.430693 0.567911 -0.048052
C33   C     C_R   0.934066 0.569289 0.432085 -0.048044
C34   C     C_R   0.936613 0.430263 0.568008 -0.045896
C35   C     C_R   0.063388 0.569735 0.431994 -0.045893
C36   C     C_R   0.871393 0.499737 0.500161 -0.023374
Cu1   Cu    Cu3+1 0.500000 0.640660 0.500000 1.001175
Cu2   Cu    Cu3+1 0.500000 0.359340 0.500000 1.001176
H1    H     H_    0.585444 0.303172 0.776165 0.150263
H2    H     H_    0.365919 0.867924 0.397128 0.131201
H3    H     H_    0.414573 0.696836 0.223835 0.150259
H4    H     H_    0.347453 0.816330 0.928521 0.137367
H5    H     H_    0.652551 0.183670 0.071477 0.137369
H6    H     H_    0.356789 0.811866 0.088381 0.127394
H7    H     H_    0.643226 0.188143 0.911618 0.127396
H8    H     H_    0.365962 0.129021 0.397092 0.119022
H9    H     H_    0.634039 0.870979 0.602908 0.119023
H10   H     H_    0.634082 0.132075 0.602871 0.131203
N1    N     N_R   0.500000 0.852070 0.500000 -0.227161
N2    N     N_R   0.500000 0.147930 0.500000 -0.227158
N3    N     N_1   0.322260 0.816905 0.732593 -0.270928
N4    N     N_1   0.677686 0.183039 0.267402 -0.270944
N5    N     N_1   0.189057 0.310927 0.696126 -0.263664
N6    N     N_1   0.810937 0.688910 0.303821 -0.263690
N7    N     N_1   0.819142 0.308187 0.696208 -0.320987
N8    N     N_1   0.180861 0.691797 0.303791 -0.320983
O1    O     O_R   0.319640 0.618740 0.499990 -0.492329
O2    O     O_R   0.680360 0.381260 0.500010 -0.492333
O3    O     O_R   0.680360 0.618740 0.500010 -0.501177
O4    O     O_R   0.319640 0.381260 0.499990 -0.501178
O5    O     O_R   0.499970 0.618800 0.370260 -0.499550
O6    O     O_R   0.500030 0.381200 0.629740 -0.499553
O7    O     O_R   0.500030 0.618800 0.629740 -0.499977
O8    O     O_R   0.499970 0.381200 0.370260 -0.499977

loop_
_geom_bond_atom_site_label_1
_geom_bond_atom_site_label_2
_ccdc_geom_bond_type
C2    C35   A    
Cu1   O5    S    
C27   N5    T    
Cu1   O1    S    
Cu1   Cu2   S    
Cu2   N2    S    
C1    O1    A    
C12   C36   S    
Cu1   N1    S    
C9    C20   A    
C34   C36   A    
C9    H1    S    
C4    N1    A    
C3    C6    A    
C12   O2    A    
C33   C36   A    
C25   N3    T    
C24   C31   A    
C14   C25   S    
Cu2   O6    S    
Cu1   O3    S    
C12   O3    A    
C10   H3    S    
C9    C11   A    
C4    H9    S    
C22   H4    S    
C30   N8    T    
C30   C35   S    
C8    C11   S    
Cu2   O4    S    
C29   C34   S    
C16   C18   A    
C33   C35   A    
C3    N2    A    
C28   C33   S    
C18   C19   A    
C18   C20   A    
C13   C15   A    
C6    N1    A    
C5    N2    A    
C5    H10   S    
C14   C16   A    
C7    O8    A    
C17   C24   A    
C8    O7    A    
C7    C13   S    
C6    H2    S    
C24   H5    S    
C2    C32   A    
C1    C2    S    
C31   H7    S    
C1    O4    A    
C11   C14   A    
C15   C17   A    
Cu2   O8    S    
C28   N6    T    
C22   C23   A    
C7    O5    A    
C15   C26   S    
C16   C22   A    
C3    H8    S    
C17   C19   A    
C27   C32   S    
Cu2   O2    S    
C29   N7    T    
C10   C21   A    
C21   C23   A    
C10   C13   A    
C26   N4    T    
Cu1   O7    S    
C23   H6    S    
C8    O6    A    
C4    C5    A    
C19   C21   A    
C20   C31   A    
C32   C34   A    
