data_mof_unit_56425.cif
_audit_creation_date              2012-12-10T17:34:29-0500
_audit_creation_method            fapswitch 2.2
_symmetry_space_group_name_H-M    P1
_symmetry_Int_Tables_number       1
_space_group_crystal_system       triclinic
_cell_length_a                    12.366327
_cell_length_b                    13.245368
_cell_length_c                    14.318056
_cell_angle_alpha                 78.139977
_cell_angle_beta                  100.226572
_cell_angle_gamma                 116.440313
_cell_volume                      2045.17617506

loop_
_atom_site_label
_atom_site_type_symbol
_atom_type_description
_atom_site_fract_x
_atom_site_fract_y
_atom_site_fract_z
_atom_type_partial_charge
C1    C     C_R   0.854670 0.286203 0.511200 0.753834
C2    C     C_1   0.000928 0.500710 0.229024 -0.219254
C3    C     C_R   0.274415 0.015491 0.529518 -0.186516
C4    C     C_R   0.227664 0.833265 0.485951 -0.047656
C5    C     C_R   0.816110 0.097215 0.474138 -0.185498
C6    C     C_R   0.736463 0.990411 0.449547 -0.138806
C7    C     C_R   0.612144 0.949422 0.454663 -0.167404
C8    C     C_R   0.564930 0.012608 0.489704 0.081812
C9    C     C_R   0.648129 0.117947 0.520741 0.079532
C10   C     C_R   0.438268 0.975527 0.495442 0.073190
C11   C     C_R   0.398297 0.046701 0.527638 0.153378
C12   C     C_R   0.999940 0.500162 0.668547 0.795215
C13   C     C_R   0.482463 0.144432 0.564292 -0.195146
C14   C     C_R   0.605187 0.174628 0.566542 -0.188216
C15   C     C_R   0.350172 0.868453 0.474504 -0.233256
C16   C     C_R   0.189230 0.909068 0.508567 -0.185365
C17   C     C_R   0.772939 0.163961 0.506869 -0.093438
C18   C     C_R   0.361445 0.368442 0.675430 -0.232274
C19   C     C_R   0.758275 0.641584 0.371244 0.691008
C20   C     C_R   0.667041 0.681033 0.350439 -0.404869
C21   C     C_R   0.566849 0.630030 0.402171 -0.201152
C22   C     C_R   0.556558 0.540624 0.477325 0.008892
C23   C     C_R   0.144960 0.712891 0.487168 0.802203
C24   C     C_R   0.657437 0.513543 0.505009 0.140410
C25   C     C_R   0.452112 0.481897 0.529257 -0.146852
C26   C     C_R   0.460917 0.418127 0.620724 -0.034281
C27   C     C_R   0.567191 0.402249 0.653304 0.353372
C28   C     C_R   0.657521 0.441542 0.591644 -0.264271
C29   C     C_R   0.336970 0.479832 0.491977 0.612334
C30   C     C_R   0.256264 0.381594 0.639822 -0.038645
C31   C     C_R   0.000440 0.500395 0.331413 0.818122
C32   C     C_1   0.000274 0.501112 0.770834 -0.136279
C33   C     C_1   0.000491 0.501528 0.856310 0.058909
C34   C     C_1   0.000544 0.501548 0.957061 0.036471
C35   C     C_1   0.000668 0.501374 0.042627 0.015174
C36   C     C_1   0.000889 0.501038 0.143456 -0.012330
Cu1   Cu    Cu3+1 0.098280 0.475420 0.520190 0.953480
Cu2   Cu    Cu3+1 0.901720 0.524580 0.479810 0.971439
H1    H     H_    0.094683 0.883262 0.516700 0.159879
H2    H     H_    0.363377 0.320492 0.745953 0.226762
H3    H     H_    0.501104 0.665609 0.385381 0.204871
H4    H     H_    0.673013 0.751920 0.295181 0.156126
H5    H     H_    0.727018 0.414264 0.614400 0.220900
H6    H     H_    0.452661 0.194509 0.595120 0.173997
H7    H     H_    0.244028 0.070944 0.552361 0.138834
H8    H     H_    0.375041 0.807954 0.454738 0.150464
H9    H     H_    0.910974 0.129800 0.463195 0.147869
H10   H     H_    0.555726 0.868708 0.429863 0.125100
H11   H     H_    0.770799 0.940712 0.422665 0.146342
H12   H     H_    0.667336 0.240639 0.606827 0.151513
H13   H     H_    0.181914 0.346578 0.684063 0.160467
N1    N     N_R   0.246290 0.438200 0.550780 -0.217401
N2    N     N_R   0.754310 0.561180 0.449760 -0.220386
O1    O     O_R   0.972510 0.318130 0.525390 -0.584752
O2    O     O_R   0.806530 0.359650 0.491290 -0.587695
O3    O     O_R   0.083010 0.479240 0.641000 -0.572435
O4    O     O_R   0.917030 0.520750 0.606900 -0.570415
O5    O     O_R   0.193470 0.640350 0.508710 -0.564680
O6    O     O_R   0.027490 0.681870 0.474610 -0.541187
O7    O     O_R   0.082970 0.479250 0.393100 -0.543128
O8    O     O_R   0.916990 0.520760 0.359000 -0.528342
S1    S     S_3+6 0.589406 0.329772 0.769172 -0.023638
O9    O     O_2   0.579902 0.389539 0.843831 -0.256025
O10   O     O_2   0.493121 0.209210 0.779762 -0.331515
O11   O     O_3   0.727083 0.328529 0.787966 -0.547920
H14   H     H_    0.712820 0.251040 0.779633 0.350215
O12   O     O_3   0.312252 0.509695 0.394969 -0.624487
C37   C     C_3   0.256074 0.410038 0.349803 0.083364
H15   H     H_    0.204701 0.429555 0.282156 0.180145
H16   H     H_    0.188294 0.336446 0.393213 0.133555
C38   C     C_3   0.349591 0.376152 0.323894 -0.411021
H17   H     H_    0.417814 0.450553 0.282264 0.240378
H18   H     H_    0.396857 0.348037 0.390145 0.216899
C39   C     C_3   0.288902 0.278253 0.264526 -0.880859
H19   H     H_    0.221519 0.202270 0.305437 0.254438
H20   H     H_    0.358619 0.255313 0.247503 0.267323
H21   H     H_    0.242693 0.303733 0.196249 0.258821
O13   O     O_3   0.859550 0.690382 0.320092 -0.586705
C40   C     C_3   0.831427 0.706702 0.219072 0.021601
H22   H     H_    0.918288 0.739658 0.186752 0.181031
H23   H     H_    0.798736 0.774436 0.195926 0.129473
C41   C     C_3   0.743046 0.595898 0.178600 -0.395737
H24   H     H_    0.774560 0.527955 0.206203 0.246566
H25   H     H_    0.651042 0.566229 0.201195 0.206830
C42   C     C_3   0.733640 0.613896 0.069238 -0.823533
H26   H     H_    0.700964 0.680854 0.039453 0.252474
H27   H     H_    0.668404 0.533247 0.042214 0.280806
H28   H     H_    0.823444 0.639492 0.044087 0.257545

loop_
_geom_bond_atom_site_label_1
_geom_bond_atom_site_label_2
_ccdc_geom_bond_type
C23   O5    A    
C30   H13   S    
C31   O8    A    
C19   C20   A    
C18   C26   A    
C1    O1    A    
C7    C8    A    
C42   H26   S    
C23   O6    A    
C5    H9    S    
C26   C27   A    
S1    O9    D    
C39   H20   S    
C10   C15   A    
C5    C6    A    
C5    C17   A    
C22   C25   A    
C34   C35   T    
C18   H2    S    
S1    O10   D    
C29   O12   S    
Cu1   O3    S    
Cu2   O2    S    
C35   C36   S    
C8    C9    A    
C39   H21   S    
C18   C30   A    
Cu1   O5    S    
Cu2   O8    S    
C19   N2    A    
C13   C14   A    
C12   C32   S    
C25   C26   A    
C42   H27   S    
C25   C29   A    
C39   H19   S    
O12   C37   S    
C38   H18   S    
Cu1   N1    S    
O13   C40   S    
C37   H15   S    
C24   N2    A    
C3    H7    S    
Cu2   O6    S    
C2    C31   S    
C31   O7    A    
C4    C16   A    
C19   O13   S    
C9    C14   A    
Cu1   Cu2   S    
C27   S1    S    
C38   C39   S    
Cu2   O4    S    
C33   C34   S    
C12   O3    A    
C21   H3    S    
Cu1   O1    S    
C9    C17   A    
C41   H24   S    
C41   H25   S    
C22   C24   A    
C12   O4    A    
C40   H23   S    
C42   H28   S    
C2    C36   T    
C4    C23   S    
C30   N1    A    
S1    O11   S    
C24   C28   A    
C40   C41   S    
C20   H4    S    
C6    C7    A    
C41   C42   S    
C28   H5    S    
C1    C17   S    
C7    H10   S    
C4    C15   A    
C1    O2    A    
C38   H17   S    
C32   C33   T    
C11   C13   A    
C14   H12   S    
Cu2   N2    S    
C37   C38   S    
C6    H11   S    
Cu1   O7    S    
C3    C11   A    
C10   C11   A    
C16   H1    S    
C40   H22   S    
C20   C21   A    
C8    C10   A    
O11   H14   S    
C27   C28   A    
C37   H16   S    
C15   H8    S    
C21   C22   A    
C13   H6    S    
C3    C16   A    
C29   N1    A    
