data_mof_unit_29741.cif
_audit_creation_date              2012-12-10T16:53:07-0500
_audit_creation_method            fapswitch 2.2
_symmetry_space_group_name_H-M    P1
_symmetry_Int_Tables_number       1
_space_group_crystal_system       triclinic
_cell_length_a                    10.880531
_cell_length_b                    10.937076
_cell_length_c                    9.673392
_cell_angle_alpha                 90.767747
_cell_angle_beta                  90.646288
_cell_angle_gamma                 89.333161
_cell_volume                      1150.89266961

loop_
_atom_site_label
_atom_site_type_symbol
_atom_type_description
_atom_site_fract_x
_atom_site_fract_y
_atom_site_fract_z
_atom_type_partial_charge
C1    C     C_R   0.506632 0.265657 0.499106 0.860768
C2    C     C_R   0.062577 0.526576 0.630499 0.069261
C3    C     C_R   0.127224 0.512533 0.504172 -0.113989
C4    C     C_R   0.062274 0.486408 0.382366 -0.206110
C5    C     C_R   0.935769 0.477447 0.382742 -0.223247
C6    C     C_R   0.872176 0.481680 0.507651 -0.104803
C7    C     C_2   0.504044 0.932289 0.393653 -0.217648
C8    C     C_2   0.466821 0.866885 0.502980 0.019165
C9    C     C_2   0.496863 0.065877 0.387445 -0.175275
C10   C     C_2   0.524894 0.134728 0.498255 -0.355100
C11   C     C_2   0.441473 0.419498 0.919905 -0.233944
C12   C     C_R   0.262013 0.507313 0.500492 0.796086
C13   C     C_2   0.429270 0.426928 0.078319 0.522129
C14   C     C_R   0.492076 0.734923 0.500941 0.838895
C15   C     C_R   0.737740 0.491081 0.501649 0.792427
C16   C     C_R   0.116998 0.573225 0.753274 -0.207837
C17   C     C_R   0.061596 0.560391 0.881452 0.202780
C18   C     C_R   0.949901 0.499520 0.887726 -0.172971
C19   C     C_R   0.888501 0.465954 0.766023 -0.204846
C20   C     C_R   0.938917 0.490915 0.634799 0.103060
Cu1   Cu    Cu3+1 0.500020 0.500020 0.638630 0.922142
Cu2   Cu    Cu3+1 0.499980 0.499980 0.361370 0.974887
H1    H     H_    0.109582 0.472774 0.286365 0.183252
H2    H     H_    0.559205 0.093717 0.592815 0.152415
H3    H     H_    0.398242 0.345723 0.862720 0.167846
H4    H     H_    0.532627 0.575012 0.896217 0.188216
H5    H     H_    0.568461 0.544022 0.105932 0.142673
H6    H     H_    0.202284 0.620853 0.751729 0.160330
H7    H     H_    0.909259 0.479698 0.986522 0.133453
H8    H     H_    0.804804 0.415389 0.777634 0.173862
H9    H     H_    0.887938 0.465362 0.284757 0.158790
H10   H     H_    0.544005 0.886458 0.304215 0.156093
H11   H     H_    0.471202 0.107249 0.289687 0.185780
N1    N     N_2   0.498640 0.498660 0.846910 -0.302939
N2    N     N_2   0.498610 0.498630 0.153040 -0.307899
O1    O     O_R   0.500020 0.321960 0.617040 -0.588460
O2    O     O_R   0.499980 0.321920 0.382900 -0.530652
O3    O     O_R   0.319670 0.500020 0.617100 -0.589128
O4    O     O_R   0.319630 0.499980 0.382950 -0.526818
O5    O     O_R   0.500020 0.678080 0.617100 -0.573928
O6    O     O_R   0.499980 0.678040 0.382960 -0.596707
O7    O     O_R   0.680370 0.500020 0.617050 -0.584659
O8    O     O_R   0.680330 0.499980 0.382900 -0.588239
O9    O     O_3   0.344338 0.358101 0.150837 -0.536119
C21   C     C_3   0.282453 0.269465 0.069945 -0.004565
H12   H     H_    0.349202 0.202783 0.024410 0.138914
H13   H     H_    0.225516 0.313648 0.987912 0.143975
C22   C     C_3   0.196273 0.198963 0.161673 -0.773135
H14   H     H_    0.124419 0.261183 0.204224 0.238604
H15   H     H_    0.150876 0.125493 0.100191 0.200030
H16   H     H_    0.248429 0.156948 0.248523 0.250130
C23   C     C_3   0.127281 0.602881 0.011018 -0.412761
C24   C     C_3   0.051979 0.697809 0.091638 -0.826167
H17   H     H_    0.031762 0.778329 0.026026 0.252682
H18   H     H_    0.964328 0.658355 0.126813 0.246939
H19   H     H_    0.105110 0.728489 0.184207 0.248008
H20   H     H_    0.146947 0.522330 0.075469 0.211854
H21   H     H_    0.217514 0.643680 0.986634 0.197757
C25   C     C_3   0.394128 0.923929 0.622964 -0.387329
C26   C     C_3   0.290441 0.844312 0.674414 -0.851274
H22   H     H_    0.241413 0.798918 0.586742 0.242776
H23   H     H_    0.328804 0.775725 0.746727 0.258206
H24   H     H_    0.223322 0.901384 0.733080 0.237182
H25   H     H_    0.457705 0.943401 0.711006 0.195920
H26   H     H_    0.348875 0.010700 0.591225 0.229266

loop_
_geom_bond_atom_site_label_1
_geom_bond_atom_site_label_2
_ccdc_geom_bond_type
C16   H6    S    
C13   O9    S    
C7    H10   S    
C6    C20   A    
C9    C10   D    
Cu2   O8    S    
Cu1   N1    S    
C1    O2    A    
C10   H2    S    
C12   O4    A    
C21   H13   S    
C17   C18   A    
C15   O8    A    
C7    C8    D    
Cu1   O1    S    
C24   H17   S    
C25   H26   S    
C18   H7    S    
C9    H11   S    
Cu2   N2    S    
C11   C13   S    
C25   H25   S    
C19   H8    S    
Cu1   O5    S    
C23   H21   S    
C26   H24   S    
Cu2   O4    S    
C17   C23   S    
C22   H15   S    
C22   H14   S    
C13   N2    D    
C2    C3    A    
C24   H18   S    
C8    C25   S    
C12   O3    A    
C5    C6    A    
C14   O6    A    
C22   H16   S    
Cu2   O6    S    
Cu1   O7    S    
C23   H20   S    
C11   H3    S    
C14   O5    A    
C3    C4    A    
C16   C17   A    
C21   H12   S    
C25   C26   S    
C2    C16   A    
O9    C21   S    
C15   O7    A    
C26   H23   S    
C18   C19   A    
C1    C10   S    
C24   H19   S    
C7    C9    S    
C4    H1    S    
C4    C5    A    
C8    C14   S    
C3    C12   S    
C21   C22   S    
H5    N2    S    
C6    C15   S    
Cu1   Cu2   S    
Cu2   O2    S    
C2    C20   A    
H4    N1    S    
C11   N1    D    
Cu1   O3    S    
C19   C20   A    
C1    O1    A    
C23   C24   S    
C26   H22   S    
C5    H9    S    
