data_mof_unit_39321.cif
_audit_creation_date              2012-10-26T19:27:43-0400
_audit_creation_method            fapswitch 2.2
_symmetry_space_group_name_H-M    P1
_symmetry_Int_Tables_number       1
_space_group_crystal_system       triclinic
_cell_length_a                    20.806142
_cell_length_b                    21.648507
_cell_length_c                    14.869602
_cell_angle_alpha                 90.287354
_cell_angle_beta                  129.335886
_cell_angle_gamma                 89.884153
_cell_volume                      5180.13903772

loop_
_atom_site_label
_atom_site_type_symbol
_atom_type_description
_atom_site_fract_x
_atom_site_fract_y
_atom_site_fract_z
_atom_type_partial_charge
Br1   Br    Br    0.392911 0.997019 0.143221 -0.552994
Br2   Br    Br    0.606832 0.003178 0.857358 -0.546305
Br3   Br    Br    0.892911 0.497024 0.143218 -0.552985
Br4   Br    Br    0.106832 0.503177 0.857359 -0.546245
C1    C     C_R   0.603002 0.914162 0.631645 0.557415
C2    C     C_R   0.643811 0.247303 0.038721 -0.125704
C3    C     C_R   0.716746 0.770090 0.957437 0.036269
C4    C     C_R   0.201592 0.741534 0.938067 0.034327
C5    C     C_R   0.760734 0.287650 0.013834 0.033060
C6    C     C_R   0.777431 0.725210 0.034836 0.037304
C7    C     C_R   0.216734 0.270081 0.957423 0.036266
C8    C     C_R   0.311250 0.812915 0.989908 -0.131136
C9    C     C_R   0.641941 0.223660 0.950199 -0.126624
C10   C     C_R   0.657641 0.788334 0.970651 -0.135757
C11   C     C_R   0.332714 0.203800 0.016363 -0.134174
C12   C     C_R   0.811252 0.312889 0.989957 -0.131142
C13   C     C_R   0.659548 0.765130 0.058963 -0.135452
C14   C     C_R   0.141796 0.723798 0.949958 -0.126635
C15   C     C_R   0.157632 0.288329 0.970640 -0.135759
C16   C     C_R   0.832751 0.703829 0.016409 -0.134175
C17   C     C_R   0.329018 0.225563 0.925727 -0.137907
C18   C     C_R   0.808512 0.290060 0.900248 -0.129642
C19   C     C_R   0.143652 0.747450 0.038462 -0.125700
C20   C     C_R   0.159538 0.265124 0.058952 -0.135450
C21   C     C_R   0.829062 0.725598 0.925782 -0.137910
C22   C     C_R   0.324796 0.026302 0.663868 -0.169116
C23   C     C_R   0.674646 0.972621 0.335436 -0.167314
C24   C     C_R   0.824802 0.526317 0.663874 -0.169119
C25   C     C_R   0.397192 0.085988 0.368627 0.556253
C26   C     C_R   0.174642 0.472609 0.335435 -0.167311
C27   C     C_R   0.351898 0.012280 0.601241 0.011530
C28   C     C_R   0.647959 0.987321 0.398394 0.012311
C29   C     C_R   0.851900 0.512288 0.601244 0.011524
C30   C     C_R   0.147957 0.487314 0.398394 0.012313
C31   C     C_R   0.489277 0.995149 0.777856 0.275199
C32   C     C_R   0.510464 0.004436 0.222030 0.274638
C33   C     C_R   0.989277 0.495148 0.777856 0.275205
C34   C     C_R   0.010466 0.504439 0.222030 0.274639
C35   C     C_R   0.461512 0.999613 0.844391 0.014355
C36   C     C_R   0.396381 0.914571 0.367411 0.557612
C37   C     C_R   0.537840 0.999204 0.155019 0.014221
C38   C     C_R   0.961514 0.499617 0.844393 0.014359
C39   C     C_R   0.037842 0.499204 0.155020 0.014227
C40   C     C_R   0.380342 0.022747 0.785510 0.012563
C41   C     C_R   0.618886 0.975847 0.213729 0.014497
C42   C     C_R   0.880348 0.522759 0.785516 0.012561
C43   C     C_R   0.118884 0.475839 0.213728 0.014503
C44   C     C_R   0.512325 0.988052 0.967727 0.032309
C45   C     C_R   0.486846 0.010432 0.031519 0.031427
C46   C     C_R   0.012326 0.488053 0.967728 0.032318
C47   C     C_R   0.602287 0.086441 0.630943 0.558144
C48   C     C_R   0.986851 0.510437 0.031523 0.031435
C49   C     C_R   0.413430 0.045676 0.970248 -0.108546
C50   C     C_R   0.585583 0.952602 0.028769 -0.106676
C51   C     C_R   0.913442 0.545689 0.970258 -0.108536
C52   C     C_R   0.085579 0.452597 0.028766 -0.106671
C53   C     C_R   0.357984 0.047108 0.849286 -0.123215
C54   C     C_R   0.640995 0.951113 0.149798 -0.119099
C55   C     C_R   0.857996 0.547125 0.849296 -0.123210
C56   C     C_R   0.140989 0.451103 0.149795 -0.119095
C57   C     C_R   0.657147 0.138729 0.700695 0.001781
C58   C     C_R   0.103002 0.414161 0.631645 0.557406
C59   C     C_R   0.332581 0.869031 0.286512 0.004284
C60   C     C_R   0.337286 0.134479 0.292774 0.004611
C61   C     C_R   0.661563 0.864682 0.705908 0.002975
C62   C     C_R   0.157152 0.638732 0.700688 0.001787
C63   C     C_R   0.832623 0.368999 0.286582 0.004285
C64   C     C_R   0.837287 0.634479 0.292775 0.004609
C65   C     C_R   0.161557 0.364677 0.705901 0.002973
C66   C     C_R   0.758034 0.215897 0.746514 -0.130270
C67   C     C_R   0.209012 0.809983 0.211402 -0.129621
C68   C     C_R   0.219487 0.198954 0.224671 -0.131067
C69   C     C_R   0.897192 0.585987 0.368627 0.556260
C70   C     C_R   0.770659 0.793201 0.762282 -0.131383
C71   C     C_R   0.258076 0.715874 0.746536 -0.130269
C72   C     C_R   0.709135 0.309877 0.211603 -0.129634
C73   C     C_R   0.719496 0.698960 0.224681 -0.131066
C74   C     C_R   0.270621 0.293171 0.762234 -0.131379
C75   C     C_R   0.708057 0.165456 0.680244 -0.135390
C76   C     C_R   0.271450 0.850673 0.293704 -0.135424
C77   C     C_R   0.277582 0.154782 0.301598 -0.135904
C78   C     C_R   0.715330 0.839630 0.689122 -0.136500
C79   C     C_R   0.208096 0.665432 0.680276 -0.135374
C80   C     C_R   0.896390 0.414564 0.367427 0.557625
C81   C     C_R   0.771534 0.350608 0.293840 -0.135423
C82   C     C_R   0.777588 0.654787 0.301606 -0.135905
C83   C     C_R   0.215303 0.339609 0.689088 -0.136503
C84   C     C_R   0.656050 0.163333 0.786741 -0.119433
C85   C     C_R   0.330698 0.846274 0.196823 -0.110384
C86   C     C_R   0.339135 0.159426 0.207951 -0.115067
C87   C     C_R   0.663014 0.842387 0.795241 -0.119128
C88   C     C_R   0.156022 0.663369 0.786687 -0.119444
C89   C     C_R   0.830738 0.346238 0.196897 -0.110426
C90   C     C_R   0.839135 0.659425 0.207950 -0.115070
C91   C     C_R   0.102291 0.586441 0.630946 0.558142
C92   C     C_R   0.163019 0.342390 0.795248 -0.119136
C93   C     C_R   0.703611 0.215330 0.852002 0.030222
C94   C     C_R   0.265964 0.808075 0.109278 0.034329
C95   C     C_R   0.279505 0.202292 0.126459 0.033684
C96   C     C_R   0.716343 0.794410 0.868111 0.031842
C97   C     C_R   0.203573 0.715377 0.851918 0.030220
C98   C     C_R   0.766035 0.308004 0.109408 0.034313
C99   C     C_R   0.779515 0.702299 0.126470 0.033682
C100  C     C_R   0.216331 0.294400 0.868096 0.031838
C101  C     C_R   0.756824 0.240607 0.832836 0.051400
C102  C     C_R   0.308536 0.790063 0.900231 -0.129643
C103  C     C_R   0.205964 0.788415 0.119626 0.051807
C104  C     C_R   0.219579 0.222432 0.136927 0.051620
C105  C     C_R   0.772014 0.770828 0.851905 0.052309
C106  C     C_R   0.256831 0.740619 0.832806 0.051396
C107  C     C_R   0.706083 0.288307 0.119824 0.051804
C108  C     C_R   0.719588 0.722438 0.136938 0.051622
C109  C     C_R   0.271983 0.270804 0.851866 0.052311
C110  C     C_R   0.701671 0.241451 0.938215 0.034324
C111  C     C_R   0.260680 0.787712 0.013723 0.033068
C112  C     C_R   0.277413 0.225196 0.034814 0.037304
Cu1   Cu    Cu3+1 0.526640 1.000000 0.436960 0.988520
Cu2   Cu    Cu3+1 0.473360 1.000000 0.563040 0.987400
Cu3   Cu    Cu3+1 0.026640 0.500000 0.436960 0.988522
Cu4   Cu    Cu3+1 0.973360 0.500000 0.563040 0.987401
H1    H     H_    0.348316 0.810607 0.884926 0.112989
H2    H     H_    0.600880 0.925128 0.984004 0.147646
H3    H     H_    0.898066 0.573154 0.014727 0.148678
H4    H     H_    0.100872 0.425122 0.983997 0.147632
H5    H     H_    0.381581 0.858027 0.198285 0.147968
H6    H     H_    0.618999 0.140093 0.803467 0.160614
H7    H     H_    0.622883 0.864331 0.807700 0.150725
H8    H     H_    0.388278 0.144464 0.207881 0.141868
H9    H     H_    0.881596 0.358016 0.198317 0.147971
H10   H     H_    0.118962 0.640147 0.803413 0.160588
H11   H     H_    0.122913 0.364349 0.807739 0.150739
H12   H     H_    0.596774 0.232662 0.044601 0.109050
H13   H     H_    0.888267 0.644451 0.207865 0.141887
H14   H     H_    0.271691 0.867818 0.362462 0.130181
H15   H     H_    0.709590 0.147286 0.613637 0.132076
H16   H     H_    0.715229 0.856248 0.620453 0.126724
H17   H     H_    0.275338 0.136261 0.367092 0.125379
H18   H     H_    0.771782 0.367761 0.362602 0.130197
H19   H     H_    0.209661 0.647240 0.613711 0.132075
H20   H     H_    0.215193 0.356220 0.620407 0.126727
H21   H     H_    0.775344 0.636267 0.367101 0.125378
H22   H     H_    0.297979 0.735421 0.730667 0.108585
H23   H     H_    0.612942 0.780387 0.065486 0.107872
H24   H     H_    0.662915 0.295539 0.219274 0.109351
H25   H     H_    0.673618 0.714135 0.232655 0.108740
H26   H     H_    0.312646 0.274864 0.749058 0.107341
H27   H     H_    0.797903 0.235473 0.730608 0.108583
H28   H     H_    0.162757 0.795671 0.219022 0.109353
H29   H     H_    0.173609 0.214128 0.232644 0.108741
H30   H     H_    0.812701 0.774906 0.749127 0.107332
H31   H     H_    0.351955 0.851823 0.036835 0.142141
H32   H     H_    0.590944 0.192960 0.890130 0.115441
H33   H     H_    0.607065 0.819363 0.912369 0.101950
H34   H     H_    0.372001 0.207235 0.914303 0.105671
H35   H     H_    0.379437 0.169393 0.069150 0.104519
H36   H     H_    0.851932 0.351812 0.036857 0.142142
H37   H     H_    0.090765 0.693135 0.889826 0.115386
H38   H     H_    0.107056 0.319357 0.912354 0.101951
H39   H     H_    0.879489 0.669433 0.069212 0.104507
H40   H     H_    0.299206 0.070834 0.805663 0.122350
H41   H     H_    0.699696 0.927279 0.193413 0.122011
H42   H     H_    0.799223 0.570858 0.805677 0.122351
H43   H     H_    0.199686 0.427262 0.193407 0.122008
H44   H     H_    0.690662 0.983238 0.492089 0.126365
H45   H     H_    0.848249 0.310636 0.884892 0.112997
H46   H     H_    0.309370 0.016498 0.507567 0.124974
H47   H     H_    0.190659 0.483227 0.492088 0.126366
H48   H     H_    0.809372 0.516508 0.507570 0.124979
H49   H     H_    0.261499 0.041921 0.617699 0.102945
H50   H     H_    0.737834 0.956777 0.381460 0.103256
H51   H     H_    0.761508 0.541943 0.617708 0.102946
H52   H     H_    0.237828 0.456758 0.381458 0.103255
H53   H     H_    0.096573 0.732846 0.044282 0.109031
H54   H     H_    0.112933 0.280381 0.065475 0.107877
H55   H     H_    0.872061 0.707283 0.914379 0.105661
H56   H     H_    0.398049 0.073139 0.014712 0.148679
N1    N     N_R   0.433280 1.000000 0.657760 -0.221026
N2    N     N_R   0.566720 0.000000 0.342240 -0.220846
N3    N     N_R   0.933280 0.500000 0.657760 -0.221033
N4    N     N_R   0.066720 0.500000 0.342240 -0.220847
O1    O     O_R   0.600040 0.935040 0.546740 -0.518374
O2    O     O_R   0.444990 0.064930 0.346780 -0.465303
O3    O     O_R   0.444990 0.935070 0.346780 -0.458339
O4    O     O_R   0.555010 0.064930 0.653220 -0.459242
O5    O     O_R   0.055010 0.435070 0.653220 -0.466866
O6    O     O_R   0.944990 0.564930 0.346780 -0.465302
O7    O     O_R   0.944990 0.435070 0.346780 -0.458340
O8    O     O_R   0.055010 0.564930 0.653220 -0.459223
O9    O     O_R   0.399960 0.064960 0.453260 -0.519536
O10   O     O_R   0.399960 0.935040 0.453260 -0.514467
O11   O     O_R   0.600040 0.064960 0.546740 -0.514382
O12   O     O_R   0.100040 0.435040 0.546740 -0.518382
O13   O     O_R   0.899960 0.564960 0.453260 -0.519538
O14   O     O_R   0.899960 0.435040 0.453260 -0.514478
O15   O     O_R   0.100040 0.564960 0.546740 -0.514379
O16   O     O_R   0.555010 0.935070 0.653220 -0.466859

loop_
_geom_bond_atom_site_label_1
_geom_bond_atom_site_label_2
_ccdc_geom_bond_type
Br2   C31   S    
C31   N1    A    
C3    C6    A    
C13   C108  A    
C51   C55   A    
C42   C55   A    
C29   N3    A    
C64   C82   A    
C2    C107  A    
C30   N4    A    
C47   C57   S    
C60   C86   A    
C83   H20   S    
C65   C92   A    
C20   H54   S    
Cu4   O5    S    
C90   H13   S    
C70   C105  A    
C79   H19   S    
C69   O6    A    
C61   C78   A    
C22   C40   A    
C85   H5    S    
C77   H17   S    
C95   C104  A    
C24   C42   A    
C36   C59   S    
C87   H7    S    
C27   N1    A    
C82   H21   S    
C5    C110  A    
C52   H4    S    
C6    C99   A    
C71   H22   S    
Cu4   N3    S    
C69   O13   A    
C50   C54   A    
C31   C35   A    
Cu2   O9    S    
Cu1   O1    S    
C39   C48   A    
C16   C21   A    
C56   H43   S    
C76   H14   S    
C38   C42   A    
C1    O1    A    
C33   C38   A    
C84   H6    S    
Cu1   O11   S    
C4    C111  A    
C62   C79   A    
C18   H45   S    
C3    C10   A    
C68   C104  A    
Br3   C34   S    
C6    C16   A    
C5    C98   A    
C16   H39   S    
C12   H36   S    
C46   C48   A    
C17   H34   S    
C7    C100  A    
C20   C104  A    
C87   C96   A    
Cu2   O16   S    
C4    C97   A    
C11   H35   S    
C68   C77   A    
C65   C83   A    
C48   C51   A    
C21   C105  A    
C36   O3    A    
C93   C101  A    
C23   C41   A    
C67   H28   S    
C43   C56   A    
C25   C60   S    
C19   C103  A    
C96   C105  A    
C8    H31   S    
C28   N2    A    
C98   C107  A    
C75   H15   S    
C70   C78   A    
C89   H9    S    
Cu4   O8    S    
C37   C45   A    
C67   C76   A    
C91   O8    A    
C59   C76   A    
C33   N3    A    
C51   H3    S    
C41   C54   A    
C63   C81   A    
C34   N4    A    
C3    C96   A    
C26   C30   A    
C14   C19   A    
C26   C43   A    
C32   N2    A    
Cu3   O12   S    
C22   H49   S    
C1    C61   S    
C47   O4    A    
C25   O2    A    
C80   O14   A    
C95   C112  A    
C49   C53   A    
Cu1   O2    S    
C62   C88   A    
C2    H12   S    
C97   C106  A    
Cu4   O14   S    
C94   C103  A    
C52   C56   A    
C58   C65   S    
C12   C18   A    
C99   C108  A    
C73   C108  A    
C44   C50   A    
C57   C84   A    
C21   H55   S    
C24   H51   S    
C27   H46   S    
C11   C17   A    
C40   C53   A    
C7    C15   A    
C59   C85   A    
C4    C14   A    
C7    C112  A    
C23   H50   S    
C26   H52   S    
C88   C97   A    
C38   C46   A    
C1    O16   A    
C72   H24   S    
C17   C109  A    
C44   C45   A    
C53   H40   S    
C24   C29   A    
C92   H11   S    
C10   H33   S    
C25   O9    A    
C29   H48   S    
Cu3   N4    S    
C30   H47   S    
C74   C83   A    
C73   H25   S    
C86   C95   A    
C47   O11   A    
Cu1   N2    S    
C62   C91   S    
C102  C106  A    
C61   C87   A    
C71   C106  A    
C91   O15   A    
C23   C28   A    
C11   C112  A    
C15   H38   S    
C5    C12   A    
C9    C110  A    
C9    H32   S    
C50   H2    S    
C66   C101  A    
C89   C98   A    
C73   C82   A    
C58   O12   A    
Cu3   Cu4   S    
Cu1   O3    S    
C55   H42   S    
C35   C40   A    
C19   H53   S    
Cu2   O4    S    
C18   C101  A    
C64   C90   A    
C90   C99   A    
Cu4   O13   S    
C85   C94   A    
C13   H23   S    
C8    C111  A    
C92   C100  A    
C15   C20   A    
C64   C69   S    
C84   C93   A    
C34   C39   A    
C14   H37   S    
C37   C41   A    
C46   C52   A    
C2    C9    A    
C8    C102  A    
Cu2   O10   S    
C71   C79   A    
C94   C111  A    
C66   C75   A    
C67   C103  A    
C63   C80   S    
C57   C75   A    
C72   C107  A    
C45   C49   A    
C28   H44   S    
C102  H1    S    
Cu3   O15   S    
C78   H16   S    
Cu3   O7    S    
C60   C77   A    
Cu3   O6    S    
C74   H26   S    
C58   O5    A    
C100  C109  A    
C74   C109  A    
Cu2   N1    S    
C22   C27   A    
C36   O10   A    
Br4   C33   S    
C49   H56   S    
C68   H29   S    
C32   C37   A    
C63   C89   A    
C86   H8    S    
C88   H10   S    
C70   H30   S    
C80   O7    A    
C66   H27   S    
C81   H18   S    
C93   C110  A    
Cu1   Cu2   S    
C54   H41   S    
C39   C43   A    
C72   C81   A    
Br1   C32   S    
C35   C44   A    
C10   C13   A    
