data_mof_unit_23752.cif
_audit_creation_date              2012-12-10T18:47:43-0500
_audit_creation_method            fapswitch 2.2
_symmetry_space_group_name_H-M    P1
_symmetry_Int_Tables_number       1
_space_group_crystal_system       triclinic
_cell_length_a                    10.009137
_cell_length_b                    10.737016
_cell_length_c                    15.313447
_cell_angle_alpha                 89.000863
_cell_angle_beta                  69.490344
_cell_angle_gamma                 88.098232
_cell_volume                      1540.51454573

loop_
_atom_site_label
_atom_site_type_symbol
_atom_type_description
_atom_site_fract_x
_atom_site_fract_y
_atom_site_fract_z
_atom_type_partial_charge
C1    C     C_R   0.498653 0.739877 0.497585 0.894209
C2    C     C_R   0.409195 0.946778 0.458246 -0.041054
C3    C     C_R   0.499914 0.128468 0.506156 -0.104598
C4    C     C_R   0.492848 0.873304 0.499026 -0.125943
C5    C     C_R   0.953094 0.401207 0.464955 0.013444
C6    C     C_R   0.045791 0.597684 0.537374 0.058425
C7    C     C_R   0.095272 0.402366 0.464987 -0.082698
C8    C     C_R   0.904233 0.597229 0.535662 -0.093833
C9    C     C_R   0.411602 0.498154 0.675375 0.884408
C10   C     C_R   0.588838 0.501862 0.324029 0.919857
C11   C     C_R   0.361411 0.500039 0.776925 -0.291458
C12   C     C_R   0.499924 0.260860 0.503601 0.883246
C13   C     C_R   0.641207 0.518160 0.221998 -0.242082
C14   C     C_R   0.217522 0.422495 0.929058 -0.166702
C15   C     C_R   0.820614 0.491647 0.068217 -0.104490
C16   C     C_R   0.256255 0.418355 0.832385 0.441997
C17   C     C_R   0.764059 0.454751 0.162131 0.366510
C18   C     C_R   0.433331 0.576205 0.819238 0.337357
C19   C     C_R   0.564656 0.597914 0.182371 0.352655
C20   C     C_R   0.416186 0.556067 0.913022 0.069413
C21   C     C_R   0.595228 0.593827 0.085795 -0.048481
C22   C     C_R   0.294306 0.493088 0.970805 -0.079534
C23   C     C_R   0.347509 0.557628 0.105084 -0.237348
C24   C     C_R   0.735305 0.562194 0.028498 -0.025791
C25   C     C_R   0.521912 0.587548 0.950044 0.126515
C26   C     C_R   0.485885 0.589575 0.047817 0.032250
C27   C     C_2   0.128676 0.447043 0.136542 0.935608
C28   C     C_2   0.925991 0.584296 0.870654 0.944815
C29   C     C_2   0.638862 0.109611 0.617904 0.945272
C30   C     C_2   0.307203 0.901977 0.414948 0.960045
C31   C     C_2   0.914005 0.289488 0.426371 0.934461
C32   C     C_2   0.080520 0.705601 0.583347 0.964063
C33   C     C_R   0.667438 0.593494 0.892930 -0.184159
C34   C     C_R   0.256924 0.500501 0.068263 -0.017477
C35   C     C_R   0.774800 0.579521 0.931697 -0.061514
C36   C     C_R   0.571914 0.928870 0.546830 -0.220487
C37   C     C_R   0.421070 0.073729 0.458909 -0.200689
C38   C     C_R   0.571616 0.056784 0.554628 -0.042865
H1    H     H_    0.134350 0.362256 0.970083 0.203957
H2    H     H_    0.118569 0.655168 0.850743 0.348129
H3    H     H_    0.433473 0.739416 0.198543 0.355886
H4    H     H_    0.483012 0.702558 0.720759 0.332009
H5    H     H_    0.748323 0.313554 0.244725 0.354179
H6    H     H_    0.246791 0.317073 0.730387 0.354271
H7    H     H_    0.791213 0.090857 0.675855 0.372472
H8    H     H_    0.133264 0.941333 0.380182 0.364021
H9    H     H_    0.915824 0.101831 0.422984 0.361308
H10   H     H_    0.162283 0.769800 0.676344 0.329163
H11   H     H_    0.918669 0.448210 0.023801 0.166048
H12   H     H_    0.316746 0.555247 0.180115 0.212395
H13   H     H_    0.700461 0.593184 0.817811 0.225263
H14   H     H_    0.628054 0.871630 0.582732 0.199638
H15   H     H_    0.367421 0.131685 0.421772 0.192225
H16   H     H_    0.168286 0.324629 0.436106 0.169141
H17   H     H_    0.830275 0.674048 0.565452 0.177268
H18   H     H_    0.967561 0.474888 0.259406 0.392840
N1    N     N_R   0.142780 0.500030 0.500020 -0.112119
N2    N     N_R   0.857220 0.499970 0.499980 -0.124556
O1    O     O_R   0.385370 0.683250 0.500010 -0.569372
O2    O     O_R   0.043229 0.522249 0.209830 -0.783228
O3    O     O_2   0.965262 0.539933 0.792414 -0.572984
O4    O     O_R   0.022134 0.645511 0.901525 -0.792078
O5    O     O_3   0.458620 0.675632 0.238366 -0.701381
O6    O     O_3   0.515357 0.674267 0.772206 -0.761609
O7    O     O_3   0.822245 0.350296 0.189904 -0.685497
O8    O     O_3   0.188689 0.333788 0.796274 -0.701579
O9    O     O_2   0.589250 0.204522 0.661944 -0.629926
O10   O     O_R   0.755481 0.046830 0.630601 -0.738501
O11   O     O_2   0.320413 0.799082 0.380769 -0.563865
O12   O     O_R   0.614630 0.316750 0.499990 -0.584710
O13   O     O_R   0.194960 0.981039 0.411652 -0.749835
O14   O     O_2   0.860326 0.299148 0.366385 -0.606198
O15   O     O_R   0.947012 0.171611 0.454651 -0.751895
O16   O     O_2   0.039779 0.810228 0.569434 -0.606437
O17   O     O_R   0.147885 0.688537 0.648495 -0.741917
O18   O     O_R   0.614700 0.683220 0.500000 -0.631952
O19   O     O_R   0.385300 0.316780 0.500000 -0.641750
O20   O     O_R   0.319830 0.500020 0.632250 -0.551710
O21   O     O_R   0.680170 0.499980 0.367750 -0.584130
O22   O     O_R   0.549160 0.499990 0.632240 -0.574690
O23   O     O_R   0.450840 0.500010 0.367760 -0.559298
O24   O     O_2   0.105838 0.336260 0.134458 -0.555683
Zn1   Zn    Zn3+2 0.346870 0.500020 0.500000 1.047319
Zn2   Zn    Zn3+2 0.653130 0.499980 0.500000 1.026022

loop_
_geom_bond_atom_site_label_1
_geom_bond_atom_site_label_2
_ccdc_geom_bond_type
C6    C32   S    
C21   C26   A    
C4    C36   A    
C11   C18   A    
H6    O8    S    
H10   O17   S    
O22   Zn2   S    
O18   Zn2   S    
C32   O17   S    
C30   O13   S    
C5    N2    A    
C19   C21   A    
O1    Zn1   S    
C27   O2    S    
C1    O1    A    
C32   O16   D    
O21   Zn2   S    
C31   O15   S    
C20   C25   A    
O19   Zn1   S    
H2    O4    S    
C23   C26   A    
C3    C12   S    
C8    N2    A    
C14   H1    S    
C29   O9    D    
O20   Zn1   S    
C3    C38   A    
C19   O5    S    
C29   C38   S    
N1    Zn1   S    
O12   Zn2   S    
C36   H14   S    
C37   H15   S    
C28   O3    D    
C6    N1    A    
C8    H17   S    
O23   Zn1   S    
C27   C34   S    
C22   C34   A    
C24   C35   A    
C13   C19   A    
H9    O15   S    
C5    C7    A    
C23   H12   S    
C6    C8    A    
C25   C26   A    
H18   O2    S    
C9    O22   A    
C2    C4    A    
N2    Zn2   S    
C29   O10   S    
C11   C16   A    
H5    O7    S    
C23   C34   A    
C12   O19   A    
H7    O10   S    
C9    C11   S    
H8    O13   S    
C31   O14   D    
C20   C22   A    
C14   C16   A    
C16   O8    S    
H3    O5    S    
H4    O6    S    
C30   O11   D    
C15   C17   A    
C12   O12   A    
C15   C24   A    
C1    O18   A    
C27   O24   D    
C10   C13   S    
C10   O21   A    
C33   H13   S    
C10   O23   A    
C17   O7    S    
C13   C17   A    
C2    C30   S    
C1    C4    S    
C14   C22   A    
C36   C38   A    
C2    C37   A    
C18   O6    S    
C33   C35   A    
C18   C20   A    
C9    O20   A    
C15   H11   S    
C3    C37   A    
C21   C24   A    
C7    H16   S    
C28   C35   S    
C7    N1    A    
C25   C33   A    
C5    C31   S    
C28   O4    S    
