data_mof_unit_46301.cif
_audit_creation_date              2012-12-11T14:52:26-0500
_audit_creation_method            fapswitch 2.2
_symmetry_space_group_name_H-M    P1
_symmetry_Int_Tables_number       1
_space_group_crystal_system       triclinic
_cell_length_a                    18.866504
_cell_length_b                    10.932553
_cell_length_c                    18.808042
_cell_angle_alpha                 90.127176
_cell_angle_beta                  91.176974
_cell_angle_gamma                 89.803323
_cell_volume                      3878.47869176

loop_
_atom_site_label
_atom_site_type_symbol
_atom_type_description
_atom_site_fract_x
_atom_site_fract_y
_atom_site_fract_z
_atom_type_partial_charge
C1    C     C_R   0.271353 0.045075 0.852887 0.577712
C2    C     C_R   0.728764 0.044404 0.147071 0.591943
C3    C     C_R   0.771353 0.545074 0.852888 0.577271
C4    C     C_R   0.228761 0.544399 0.147069 0.598199
C5    C     C_3   0.483670 0.712152 0.981532 -0.066297
C6    C     C_3   0.435918 0.752595 0.043095 -0.111092
C7    C     C_3   0.983681 0.212156 0.981532 -0.066257
C8    C     C_3   0.935923 0.252576 0.043096 -0.111127
C9    C     C_R   0.305814 0.539316 0.964455 -0.104037
C10   C     C_R   0.691511 0.546419 0.034305 -0.112315
C11   C     C_R   0.805819 0.039331 0.964461 -0.104258
C12   C     C_R   0.191509 0.046423 0.034304 -0.112222
C13   C     C_R   0.303612 0.527121 0.038117 0.158638
C14   C     C_R   0.693809 0.539001 0.960266 0.160300
C15   C     C_R   0.803617 0.027132 0.038123 0.159503
C16   C     C_R   0.193808 0.039002 0.960266 0.160352
C17   C     C_R   0.249504 0.587044 0.076510 0.038301
C18   C     C_R   0.752575 0.587366 0.924345 0.052172
C19   C     C_R   0.749513 0.087062 0.076518 0.039677
C20   C     C_R   0.252573 0.087369 0.924343 0.052267
C21   C     C_R   0.203917 0.670228 0.041087 0.222005
C22   C     C_R   0.804357 0.654539 0.962754 0.227122
C23   C     C_R   0.703935 0.170264 0.041098 0.222341
C24   C     C_R   0.304353 0.154549 0.962751 0.227044
C25   C     C_R   0.206689 0.679702 0.967799 -0.146705
C26   C     C_R   0.803664 0.653085 0.036396 -0.130501
C27   C     C_R   0.706709 0.179747 0.967810 -0.146819
C28   C     C_R   0.303659 0.153099 0.036394 -0.130716
C29   C     C_R   0.255583 0.611767 0.928759 -0.065001
C30   C     C_R   0.747130 0.601499 0.072891 -0.062354
C31   C     C_R   0.755593 0.111795 0.928767 -0.065492
C32   C     C_R   0.247128 0.101508 0.072889 -0.062471
C33   C     C_R   0.535174 0.733101 0.548969 0.241935
C34   C     C_R   0.535705 0.721235 0.475546 0.269766
C35   C     C_R   0.036039 0.236213 0.548913 0.238367
C36   C     C_R   0.037172 0.223384 0.475605 0.275199
C37   C     C_R   0.518398 0.824119 0.431775 -0.006658
C38   C     C_R   0.503709 0.836170 0.578951 -0.019323
C39   C     C_R   0.016812 0.323765 0.431120 0.005459
C40   C     C_R   0.001601 0.336837 0.578108 -0.019664
C41   C     C_R   0.495881 0.933026 0.463304 -0.203215
C42   C     C_R   0.486538 0.937976 0.536315 -0.192266
C43   C     C_R   0.989592 0.430066 0.461650 -0.201550
C44   C     C_R   0.980312 0.435485 0.534642 -0.193278
C45   C     C_R   0.438676 0.817273 0.862350 0.547160
C46   C     C_R   0.527700 0.821928 0.145475 0.547255
C47   C     C_R   0.938676 0.317273 0.862350 0.547597
C48   C     C_R   0.027695 0.321929 0.145478 0.548788
C49   C     C_R   0.177357 0.561129 0.551527 -0.095011
C50   C     C_R   0.779887 0.699376 0.474874 -0.143081
C51   C     C_R   0.685882 0.066971 0.545298 -0.106356
C52   C     C_R   0.284158 0.192839 0.473710 -0.148249
C53   C     C_R   0.167410 0.538359 0.479885 -0.152968
C54   C     C_R   0.781116 0.681964 0.546844 -0.173539
C55   C     C_R   0.678444 0.057054 0.472836 -0.137885
C56   C     C_R   0.284285 0.177341 0.545634 -0.173115
C57   C     C_R   0.225862 0.523342 0.436247 0.024806
C58   C     C_R   0.750517 0.577108 0.574280 0.058056
C59   C     C_R   0.738229 0.064038 0.429631 0.037876
C60   C     C_R   0.251725 0.074872 0.573574 0.061610
C61   C     C_R   0.295566 0.525428 0.465551 0.202921
C62   C     C_R   0.714011 0.493085 0.528749 0.276813
C63   C     C_R   0.806337 0.073554 0.459174 0.197055
C64   C     C_R   0.214902 0.990795 0.528274 0.279835
C65   C     C_R   0.304765 0.545794 0.537295 -0.105971
C66   C     C_R   0.716091 0.508824 0.456469 -0.060009
C67   C     C_R   0.813713 0.083221 0.532002 -0.097350
C68   C     C_R   0.217305 0.005528 0.455824 -0.055372
C69   C     C_R   0.246250 0.570465 0.579340 -0.007036
C70   C     C_R   0.748565 0.611161 0.429901 -0.007411
C71   C     C_R   0.753120 0.085202 0.574489 -0.003609
C72   C     C_R   0.250576 0.106865 0.428953 -0.008541
C73   C     C_R   0.262070 0.641283 0.853652 0.538836
C74   C     C_R   0.738785 0.638060 0.147214 0.551269
C75   C     C_R   0.762073 0.141296 0.853656 0.539777
C76   C     C_R   0.238785 0.138064 0.147213 0.551714
C77   C     C_R   0.271366 0.042970 0.645124 0.575860
C78   C     C_R   0.727077 0.042451 0.355502 0.581287
C79   C     C_R   0.771162 0.543467 0.645334 0.572195
C80   C     C_R   0.211149 0.500418 0.361929 0.555232
C81   C     C_R   0.471661 0.824412 0.648248 0.589075
C82   C     C_R   0.534741 0.821901 0.356016 0.566546
C83   C     C_R   0.971138 0.324505 0.647961 0.588504
C84   C     C_R   0.033978 0.321922 0.355617 0.566217
C85   C     C_R   0.258801 0.632022 0.645858 0.557808
C86   C     C_R   0.740004 0.640042 0.356904 0.543523
C87   C     C_R   0.760040 0.134533 0.644571 0.555930
C88   C     C_R   0.240509 0.138544 0.356376 0.538066
C89   C     C_3   0.471946 0.941941 0.031124 -0.142490
C90   C     C_3   0.519796 0.902011 0.969151 -0.120043
C91   C     C_3   0.971928 0.441936 0.031130 -0.142565
C92   C     C_3   0.019784 0.402029 0.969157 -0.119979
C93   C     C_3   0.410192 0.864548 0.999238 -0.156204
C94   C     C_3   0.545092 0.789686 0.012233 -0.087587
C95   C     C_3   0.910184 0.364524 0.999241 -0.156288
C96   C     C_3   0.045092 0.289709 0.012236 -0.087718
C97   C     C_3   0.458701 0.824379 0.938635 0.036498
C98   C     C_3   0.497092 0.829590 0.073192 0.047627
C99   C     C_3   0.958698 0.324378 0.938638 0.036385
C100  C     C_3   0.997087 0.329590 0.073195 0.047292
Cr1   Cr    Cr6+3 0.229630 0.835900 0.747350 1.142756
Cr2   Cr    Cr6+3 0.770370 0.835900 0.252650 1.119508
Cr3   Cr    Cr6+3 0.729630 0.335900 0.747350 1.143198
Cr4   Cr    Cr6+3 0.270370 0.335900 0.252650 1.125030
Cr5   Cr    Cr6+3 0.387410 0.989850 0.750850 1.042512
Cr6   Cr    Cr6+3 0.612590 0.989850 0.249150 1.049257
Cr7   Cr    Cr6+3 0.887410 0.489850 0.750850 1.041186
Cr8   Cr    Cr6+3 0.112590 0.489850 0.249150 1.047336
Cr9   Cr    Cr6+3 0.385800 0.677120 0.749340 1.088007
Cr10  Cr    Cr6+3 0.614200 0.677120 0.250660 1.109171
Cr11  Cr    Cr6+3 0.885800 0.177120 0.749340 1.086412
Cr12  Cr    Cr6+3 0.114200 0.177120 0.250660 1.107038
H1    H     H_    0.354169 0.894250 0.992340 0.111127
H2    H     H_    0.601123 0.759664 0.018516 0.132764
H3    H     H_    0.854158 0.394206 0.992344 0.111062
H4    H     H_    0.101127 0.259707 0.018519 0.132658
H5    H     H_    0.131747 0.579809 0.583975 0.170693
H6    H     H_    0.802807 0.782758 0.454546 0.178084
H7    H     H_    0.639187 0.068073 0.577938 0.162392
H8    H     H_    0.309355 0.273773 0.453279 0.190788
H9    H     H_    0.114203 0.537261 0.457741 0.147058
H10   H     H_    0.808154 0.747991 0.580789 0.153982
H11   H     H_    0.625710 0.044634 0.450423 0.157577
H12   H     H_    0.312163 0.242947 0.579189 0.155733
H13   H     H_    0.358398 0.553823 0.558594 0.194111
H14   H     H_    0.689707 0.444258 0.421019 0.184419
H15   H     H_    0.866264 0.098857 0.554515 0.189117
H16   H     H_    0.190011 0.941795 0.420561 0.188531
H17   H     H_    0.465658 0.034550 0.054293 0.099884
H18   H     H_    0.554331 0.963142 0.938087 0.125114
H19   H     H_    0.965629 0.534539 0.054303 0.099839
H20   H     H_    0.054312 0.463175 0.938095 0.125091
H21   H     H_    0.488049 0.617181 0.961098 0.195772
H22   H     H_    0.402051 0.695886 0.077014 0.177086
H23   H     H_    0.988072 0.117188 0.961095 0.195780
H24   H     H_    0.902065 0.195856 0.077017 0.177027
H25   H     H_    0.347731 0.494808 0.935447 0.199849
H26   H     H_    0.644978 0.514005 0.061216 0.195177
H27   H     H_    0.847731 0.994811 0.935452 0.199843
H28   H     H_    0.144978 0.014005 0.061216 0.195263
H29   H     H_    0.171998 0.745082 0.941808 0.202201
H30   H     H_    0.844746 0.701916 0.064999 0.203592
H31   H     H_    0.672025 0.245140 0.941821 0.202200
H32   H     H_    0.344741 0.201933 0.064995 0.203581
H33   H     H_    0.483350 0.012740 0.431254 0.164870
H34   H     H_    0.462683 0.019221 0.558786 0.174965
H35   H     H_    0.974111 0.507497 0.428930 0.161182
H36   H     H_    0.953549 0.514447 0.556529 0.173154
O1    O     O_R   0.214270 0.709000 0.827470 -0.505122
O2    O     O_R   0.785730 0.709000 0.172530 -0.492787
O3    O     O_R   0.714270 0.209000 0.827470 -0.504135
O4    O     O_R   0.285730 0.209000 0.172530 -0.492526
O5    O     O_R   0.445950 0.919440 0.676520 -0.512050
O6    O     O_R   0.554050 0.919440 0.323480 -0.522989
O7    O     O_R   0.945950 0.419440 0.676520 -0.512276
O8    O     O_R   0.054050 0.419440 0.323480 -0.538725
O9    O     O_R   0.456730 0.717630 0.669840 -0.441207
O10   O     O_R   0.543270 0.717630 0.330160 -0.428345
O11   O     O_R   0.956730 0.217630 0.669840 -0.444996
O12   O     O_R   0.043270 0.217630 0.330160 -0.418914
O13   O     O_R   0.320620 0.625640 0.672920 -0.515464
O14   O     O_R   0.679380 0.625640 0.327080 -0.477483
O15   O     O_R   0.820620 0.125640 0.672920 -0.518254
O16   O     O_R   0.179380 0.125640 0.327080 -0.477402
O17   O     O_3   0.334280 0.834290 0.749180 -0.311260
O18   O     O_3   0.665720 0.834290 0.250820 -0.297435
O19   O     O_3   0.834280 0.334290 0.749180 -0.312246
O20   O     O_3   0.165720 0.334290 0.250820 -0.316177
O21   O     O_R   0.236160 0.958490 0.823130 -0.454581
O22   O     O_R   0.763840 0.958490 0.176870 -0.445545
O23   O     O_R   0.736160 0.458490 0.823130 -0.454719
O24   O     O_R   0.263840 0.458490 0.176870 -0.442492
O25   O     O_R   0.332080 0.075470 0.831280 -0.495299
O26   O     O_R   0.667920 0.075470 0.168720 -0.479754
O27   O     O_R   0.832080 0.575470 0.831280 -0.495212
O28   O     O_R   0.167920 0.575470 0.168720 -0.476929
O29   O     O_R   0.446300 0.918110 0.826620 -0.510143
O30   O     O_R   0.553700 0.918110 0.173380 -0.512241
O31   O     O_R   0.946300 0.418110 0.826620 -0.509580
O32   O     O_R   0.053700 0.418110 0.173380 -0.512391
O33   O     O_R   0.457110 0.716200 0.831760 -0.477586
O34   O     O_R   0.542890 0.716200 0.168240 -0.494553
O35   O     O_R   0.957110 0.216200 0.831760 -0.476661
O36   O     O_R   0.042890 0.216200 0.168240 -0.492995
O37   O     O_R   0.320980 0.624310 0.823030 -0.520273
O38   O     O_R   0.679020 0.624310 0.176970 -0.501442
O39   O     O_R   0.820980 0.124310 0.823030 -0.519390
O40   O     O_R   0.179020 0.124310 0.176970 -0.500166
O41   O     O_R   0.213890 0.710430 0.665540 -0.453425
O42   O     O_R   0.786110 0.710430 0.334460 -0.514243
O43   O     O_R   0.713890 0.210430 0.665540 -0.449459
O44   O     O_R   0.286110 0.210430 0.334460 -0.515188
O45   O     O_R   0.235810 0.959820 0.673020 -0.423373
O46   O     O_R   0.764190 0.959820 0.326980 -0.461048
O47   O     O_R   0.735810 0.459820 0.673020 -0.424239
O48   O     O_R   0.264190 0.459820 0.326980 -0.436113
O49   O     O_R   0.331700 0.076900 0.669350 -0.534240
O50   O     O_R   0.668300 0.076900 0.330650 -0.522226
O51   O     O_R   0.831700 0.576900 0.669350 -0.534257
O52   O     O_R   0.168300 0.576900 0.330650 -0.496586
Cl1   Cl    Cl    0.374062 0.516112 0.416130 -0.502218
Cl2   Cl    Cl    0.662084 0.369424 0.556251 -0.482091
Cl3   Cl    Cl    0.882058 0.082696 0.406441 -0.530387
Cl4   Cl    Cl    0.161638 0.869204 0.556336 -0.481061
Cl5   Cl    Cl    0.373356 0.444477 0.079599 -0.648178
Cl6   Cl    Cl    0.618746 0.480682 0.914527 -0.645455
Cl7   Cl    Cl    0.873355 0.944470 0.079603 -0.648481
Cl8   Cl    Cl    0.118749 0.980664 0.914528 -0.645200
O53   O     O_3   0.160597 0.748222 0.079455 -0.541664
C101  C     C_3   0.088819 0.731820 0.058877 -0.091296
H37   H     H_    0.075410 0.633766 0.050573 0.106445
H38   H     H_    0.075504 0.785337 0.010382 0.150353
H39   H     H_    0.054993 0.766779 0.102030 0.171730
O54   O     O_3   0.847902 0.735815 0.927418 -0.532414
C102  C     C_3   0.920119 0.709067 0.940968 -0.086359
H40   H     H_    0.932298 0.611502 0.930175 0.132773
H41   H     H_    0.936864 0.735314 0.995728 0.124550
H42   H     H_    0.952273 0.764126 0.904199 0.169277
O55   O     O_3   0.660620 0.248259 0.079471 -0.542517
C103  C     C_3   0.588840 0.231861 0.058896 -0.091389
H43   H     H_    0.575429 0.133807 0.050597 0.106856
H44   H     H_    0.575525 0.285372 0.010398 0.150434
H45   H     H_    0.555017 0.266830 0.102049 0.171644
O56   O     O_3   0.347899 0.235821 0.927414 -0.532456
C104  C     C_3   0.420116 0.209073 0.940965 -0.086356
H46   H     H_    0.432294 0.111507 0.930175 0.132775
H47   H     H_    0.436861 0.235325 0.995724 0.124578
H48   H     H_    0.452271 0.264129 0.904195 0.169332
Cl9   Cl    Cl    0.571930 0.616268 0.603663 -0.473920
Cl10  Cl    Cl    0.552692 0.572041 0.442653 -0.430897
Cl11  Cl    Cl    0.075739 0.123518 0.604532 -0.480541
Cl12  Cl    Cl    0.057551 0.075047 0.443690 -0.437692

loop_
_geom_bond_atom_site_label_1
_geom_bond_atom_site_label_2
_ccdc_geom_bond_type
Cr2   O22   S    
C87   O15   A    
Cr2   O42   S    
C49   C53   A    
C58   C62   A    
Cr10  O18   S    
C55   C59   A    
Cr9   O33   S    
C8    H24   S    
C34   C37   A    
C85   O13   A    
C41   C42   A    
C14   C18   A    
Cr5   O5    S    
C35   C36   A    
C57   C80   S    
C43   C44   A    
Cr9   O9    S    
O56   C104  S    
C103  H44   S    
C5    C94   S    
C84   O12   A    
C81   O5    A    
C7    C8    S    
Cr12  O36   S    
C66   C70   A    
C56   H12   S    
C15   C19   A    
C7    C96   S    
C1    O25   A    
C50   C54   A    
C7    C99   S    
C51   H7    S    
C37   C41   A    
C64   C68   A    
C29   C73   S    
C92   H20   S    
C104  H46   S    
C39   C84   S    
C38   C42   A    
Cr1   O41   S    
C102  H41   S    
C5    C6    S    
C82   O10   A    
C95   C99   S    
C83   O7    A    
C76   O4    A    
C85   O41   A    
Cr12  O20   S    
Cr8   O28   S    
C92   C96   S    
C104  H48   S    
C47   C99   S    
Cr8   O32   S    
C3    C18   S    
Cr12  O16   S    
C78   O46   A    
Cr1   O1    S    
C30   C74   S    
C46   O30   A    
C62   Cl2   S    
C9    C13   A    
C83   O11   A    
C61   Cl1   S    
C9    H25   S    
C49   H5    S    
C12   C16   A    
C95   H3    S    
Cr6   O6    S    
C27   H31   S    
C12   H28   S    
Cr1   O21   S    
C86   O14   A    
C23   C27   A    
C91   C100  S    
Cr12  O12   S    
C68   H16   S    
C90   C97   S    
C35   Cl11  S    
Cr10  O10   S    
C16   C20   A    
Cr6   O50   S    
Cr7   O31   S    
Cr5   O49   S    
Cr8   O20   S    
C11   C31   A    
Cr2   O18   S    
C49   C69   A    
C12   C32   A    
Cr3   O23   S    
C41   H33   S    
C40   C83   S    
C34   Cl10  S    
C8    C95   S    
C11   C15   A    
C91   C92   S    
C80   O48   A    
C45   O33   A    
Cr2   O46   S    
C59   C78   S    
C103  H43   S    
C72   C88   S    
C3    O23   A    
Cr1   O45   S    
C90   C94   S    
C23   O55   S    
C24   O56   S    
Cr10  O14   S    
C54   H10   S    
C48   C100  S    
Cr7   O19   S    
C60   C77   S    
C86   O42   A    
C81   O9    A    
C62   C66   A    
C27   C31   A    
C94   H2    S    
C20   C24   A    
C28   C32   A    
C79   O51   A    
C26   H30   S    
O53   C101  S    
C10   C14   A    
C102  H42   S    
C75   O39   A    
O55   C103  S    
C48   O36   A    
C42   H34   S    
C53   C57   A    
O54   C102  S    
C39   C43   A    
C51   C55   A    
Cr9   O37   S    
C88   O16   A    
C91   C95   S    
C89   C93   S    
C17   C21   A    
C66   H14   S    
C82   O6    A    
C68   C72   A    
C65   H13   S    
Cr8   O52   S    
C5    H21   S    
C102  H40   S    
C63   C67   A    
Cr12  O40   S    
C52   C72   A    
C79   O47   A    
C67   H15   S    
Cr4   O20   S    
C10   C30   A    
C93   C97   S    
C31   C75   S    
Cr8   O8    S    
C36   Cl12  S    
C6    C93   S    
C77   O45   A    
Cr3   O3    S    
Cr11  O35   S    
C33   C34   A    
Cr4   O48   S    
Cr6   O26   S    
C93   H1    S    
Cr3   O19   S    
C64   Cl4   S    
Cr1   O17   S    
C63   Cl3   S    
C47   O31   A    
C58   C79   S    
C2    O22   A    
C28   H32   S    
C4    C17   S    
C52   H8    S    
C47   O35   A    
Cr2   O2    S    
C26   C30   A    
Cr9   O17   S    
C101  H38   S    
C22   O54   S    
C38   C81   S    
C22   C26   A    
C71   C87   S    
C37   C82   S    
Cr3   O43   S    
Cr5   O17   S    
C70   C86   S    
C55   H11   S    
C6    C98   S    
C48   O32   A    
C69   C85   S    
C19   C23   A    
C87   O43   A    
C54   C58   A    
C3    O27   A    
C88   O44   A    
C21   C25   A    
Cr10  O38   S    
C1    C20   S    
C74   O2    A    
C4    O24   A    
C80   O52   A    
C73   O1    A    
C2    C19   S    
C50   H6    S    
C59   C63   A    
C36   C39   A    
C25   H29   S    
Cr4   O4    S    
C24   C28   A    
Cr5   O29   S    
C16   Cl8   S    
C76   O40   A    
C32   C76   S    
C13   Cl5   S    
C73   O37   A    
C51   C71   A    
C57   C61   A    
Cr3   O47   S    
C9    C29   A    
C33   Cl9   S    
C101  H39   S    
C78   O50   A    
Cr11  O39   S    
C33   C38   A    
Cr4   O24   S    
C89   C98   S    
C60   C64   A    
C46   O34   A    
C18   C22   A    
C35   C40   A    
C8    C100  S    
C6    H22   S    
Cr11  O15   S    
Cr9   O13   S    
C2    O26   A    
Cr7   O51   S    
C45   O29   A    
C84   O8    A    
C25   C29   A    
C50   C70   A    
Cr7   O27   S    
Cr6   O18   S    
C65   C69   A    
C14   Cl6   S    
C96   C100  S    
C1    O21   A    
C104  H47   S    
C21   O53   S    
C5    C97   S    
C67   C71   A    
C56   C60   A    
C46   C98   S    
C15   Cl7   S    
C43   H35   S    
C7    H23   S    
Cr11  O19   S    
C53   H9    S    
C13   C17   A    
C90   H18   S    
C61   C65   A    
C40   C44   A    
C91   H19   S    
Cr10  O34   S    
C101  H37   S    
C4    O28   A    
C75   O3    A    
C94   C98   S    
C96   H4    S    
Cr5   O25   S    
C10   H26   S    
C44   H36   S    
C89   C90   S    
C89   H17   S    
C77   O49   A    
Cr6   O30   S    
C103  H45   S    
Cr7   O7    S    
C45   C97   S    
C52   C56   A    
C92   C99   S    
C11   H27   S    
C74   O38   A    
Cr11  O11   S    
Cr4   O44   S    
