data_mof_unit_30619.cif
_audit_creation_date              2012-12-10T19:09:25-0500
_audit_creation_method            fapswitch 2.2
_symmetry_space_group_name_H-M    P1
_symmetry_Int_Tables_number       1
_space_group_crystal_system       triclinic
_cell_length_a                    15.276983
_cell_length_b                    14.948223
_cell_length_c                    9.841166
_cell_angle_alpha                 90.239016
_cell_angle_beta                  90.305839
_cell_angle_gamma                 89.944453
_cell_volume                      2247.31297902

loop_
_atom_site_label
_atom_site_type_symbol
_atom_type_description
_atom_site_fract_x
_atom_site_fract_y
_atom_site_fract_z
_atom_type_partial_charge
C1    C     C_R   0.121090 0.379247 0.500126 0.866285
C2    C     C_R   0.119541 0.622641 0.500120 0.831776
C3    C     C_R   0.619650 0.877451 0.500104 0.840935
C4    C     C_R   0.620861 0.121287 0.500228 0.852852
C5    C     C_3   0.905707 0.501908 0.077532 0.331277
C6    C     C_3   0.907569 0.495585 0.914019 0.392711
C7    C     C_3   0.405999 0.001097 0.078960 0.354237
C8    C     C_3   0.407179 0.997884 0.915970 0.395016
C9    C     C_R   0.882968 0.375120 0.499592 0.850802
C10   C     C_R   0.882678 0.624628 0.500097 0.836401
C11   C     C_R   0.383009 0.875055 0.499629 0.835501
C12   C     C_R   0.381578 0.123835 0.500032 0.844849
C13   C     C_3   0.829859 0.238592 0.616725 -0.412683
C14   C     C_3   0.813743 0.253586 0.362705 -0.423144
C15   C     C_3   0.825202 0.757989 0.378966 -0.423542
C16   C     C_3   0.815865 0.748118 0.634743 -0.410259
C17   C     C_3   0.325648 0.742146 0.621487 -0.416669
C18   C     C_3   0.315966 0.750758 0.365795 -0.419208
C19   C     C_3   0.321301 0.254010 0.373908 -0.417937
C20   C     C_3   0.319426 0.252006 0.630012 -0.410709
C21   C     C_3   0.250991 0.673995 0.623788 -0.434601
C22   C     C_3   0.248112 0.675906 0.372081 -0.430305
C23   C     C_3   0.246476 0.321567 0.370483 -0.449360
C24   C     C_3   0.252847 0.328221 0.623121 -0.448477
C25   C     C_3   0.755065 0.170316 0.620454 -0.444512
C26   C     C_3   0.746414 0.178302 0.368401 -0.439350
C27   C     C_3   0.749784 0.825306 0.375707 -0.431868
C28   C     C_3   0.748968 0.824000 0.627814 -0.442054
C29   C     C_3   0.726214 0.353996 0.517905 -0.390564
C30   C     C_3   0.725456 0.644387 0.487932 -0.373796
C31   C     C_3   0.226240 0.855463 0.510464 -0.367486
C32   C     C_3   0.222593 0.145220 0.496950 -0.420042
C33   C     C_3   0.814922 0.306284 0.499200 0.130513
C34   C     C_3   0.814083 0.692907 0.500354 0.129720
C35   C     C_3   0.314512 0.806645 0.499232 0.127362
C36   C     C_3   0.312916 0.192454 0.500192 0.137494
C37   C     C_3   0.189280 0.689588 0.499815 0.143281
C38   C     C_3   0.190223 0.311993 0.500553 0.173905
C39   C     C_3   0.690864 0.188079 0.500368 0.157946
C40   C     C_3   0.689248 0.810440 0.500498 0.146700
C41   C     C_3   0.150032 0.788500 0.503314 0.270362
C42   C     C_3   0.148579 0.216253 0.509347 0.290081
C43   C     C_3   0.650802 0.285296 0.511693 0.284889
C44   C     C_3   0.649733 0.712267 0.497642 0.279054
C45   C     C_3   0.045640 0.420721 0.079928 -0.308738
C46   C     C_3   0.049229 0.423060 0.919041 -0.299487
C47   C     C_3   0.043179 0.580601 0.920775 -0.313427
C48   C     C_3   0.047963 0.577670 0.081627 -0.294065
C49   C     C_3   0.546162 0.921026 0.080104 -0.306772
C50   C     C_3   0.548133 0.922322 0.919129 -0.303550
C51   C     C_3   0.544994 0.079588 0.920462 -0.309033
C52   C     C_3   0.547426 0.078069 0.081472 -0.299856
H1    H     H_    0.833067 0.272930 0.716869 0.183009
H2    H     H_    0.793757 0.298297 0.278694 0.175619
H3    H     H_    0.825767 0.721674 0.280330 0.176089
H4    H     H_    0.797550 0.704728 0.721526 0.180264
H5    H     H_    0.324731 0.778996 0.719305 0.179123
H6    H     H_    0.298642 0.793443 0.277862 0.176054
H7    H     H_    0.318334 0.215216 0.278210 0.177042
H8    H     H_    0.304322 0.211757 0.721299 0.176205
H9    H     H_    0.892822 0.202685 0.601181 0.157224
H10   H     H_    0.879702 0.225883 0.338765 0.165136
H11   H     H_    0.888236 0.794626 0.388767 0.159959
H12   H     H_    0.882308 0.775996 0.655206 0.158183
H13   H     H_    0.389216 0.706434 0.614125 0.158015
H14   H     H_    0.382095 0.722039 0.347344 0.158439
H15   H     H_    0.384857 0.290202 0.376153 0.161567
H16   H     H_    0.386163 0.280249 0.642799 0.157141
H17   H     H_    0.279072 0.604960 0.620817 0.163641
H18   H     H_    0.282404 0.609929 0.376821 0.168093
H19   H     H_    0.273952 0.390601 0.364684 0.163538
H20   H     H_    0.287406 0.393370 0.611002 0.163874
H21   H     H_    0.782658 0.101229 0.612730 0.160481
H22   H     H_    0.780844 0.112335 0.367380 0.167538
H23   H     H_    0.777117 0.894609 0.377001 0.162894
H24   H     H_    0.783914 0.889462 0.621736 0.169424
H25   H     H_    0.215434 0.679211 0.721784 0.169423
H26   H     H_    0.209849 0.674751 0.275622 0.169980
H27   H     H_    0.206831 0.311326 0.276377 0.176414
H28   H     H_    0.217150 0.332080 0.721456 0.181602
H29   H     H_    0.721515 0.173994 0.720527 0.172867
H30   H     H_    0.705498 0.180052 0.274369 0.174704
H31   H     H_    0.713457 0.818595 0.277990 0.171062
H32   H     H_    0.711304 0.826119 0.724243 0.171231
H33   H     H_    0.726095 0.391086 0.616553 0.151592
H34   H     H_    0.717735 0.406092 0.437697 0.142077
H35   H     H_    0.722429 0.606518 0.389793 0.143693
H36   H     H_    0.719631 0.592735 0.569541 0.151671
H37   H     H_    0.223927 0.894766 0.607193 0.146125
H38   H     H_    0.220009 0.906066 0.427483 0.144785
H39   H     H_    0.216303 0.106064 0.400456 0.144933
H40   H     H_    0.218600 0.095215 0.580765 0.142301
H41   H     H_    0.017763 0.356726 0.115220 0.141180
H42   H     H_    0.027405 0.358561 0.874187 0.160272
H43   H     H_    0.012202 0.643485 0.885647 0.144208
H44   H     H_    0.026947 0.641872 0.127419 0.147487
H45   H     H_    0.519862 0.856884 0.117616 0.141021
H46   H     H_    0.525294 0.857959 0.875617 0.149377
H47   H     H_    0.517197 0.143228 0.882619 0.146095
H48   H     H_    0.524693 0.142331 0.124948 0.147994
H49   H     H_    0.113928 0.418858 0.119757 0.162178
H50   H     H_    0.118986 0.428120 0.887484 0.155450
H51   H     H_    0.111140 0.584665 0.880953 0.161252
H52   H     H_    0.118048 0.573287 0.112717 0.154484
H53   H     H_    0.614891 0.920569 0.118225 0.160646
H54   H     H_    0.617660 0.925714 0.886019 0.156468
H55   H     H_    0.613588 0.081031 0.882792 0.160368
H56   H     H_    0.617113 0.075131 0.114927 0.156937
N1    N     N_3   0.998760 0.500000 0.138610 -0.050928
N2    N     N_3   0.998760 0.500000 0.861390 -0.050562
N3    N     N_3   0.498760 1.000000 0.138610 -0.055171
N4    N     N_3   0.498760 1.000000 0.861390 -0.053942
O1    O     O_R   0.092530 0.407440 0.616040 -0.628245
O2    O     O_R   0.092530 0.407440 0.383960 -0.630557
O3    O     O_R   0.092530 0.592560 0.383960 -0.633847
O4    O     O_R   0.092530 0.592560 0.616040 -0.633661
O5    O     O_R   0.592530 0.907440 0.616040 -0.632616
O6    O     O_R   0.592530 0.907440 0.383960 -0.631201
O7    O     O_R   0.592530 0.092560 0.383960 -0.631089
O8    O     O_R   0.592530 0.092560 0.616040 -0.628072
O9    O     O_R   0.907330 0.407420 0.616040 -0.600415
O10   O     O_R   0.907330 0.407420 0.383960 -0.631128
O11   O     O_R   0.907330 0.592580 0.383960 -0.629942
O12   O     O_R   0.907330 0.592580 0.616040 -0.603156
O13   O     O_R   0.407330 0.907420 0.616040 -0.613722
O14   O     O_R   0.407330 0.907420 0.383960 -0.630332
O15   O     O_R   0.407330 0.092580 0.383960 -0.626923
O16   O     O_R   0.407330 0.092580 0.616040 -0.612900
Zn1   Zn    Zn3+2 0.999890 0.500000 0.654960 0.921888
Zn2   Zn    Zn3+2 0.999890 0.500000 0.345040 0.904744
Zn3   Zn    Zn3+2 0.499890 1.000000 0.654960 0.913335
Zn4   Zn    Zn3+2 0.499890 1.000000 0.345040 0.904722
N5    N     N_3   0.093857 0.805115 0.623672 -0.485644
H57   H     H_    0.122884 0.791674 0.720411 0.170532
H58   H     H_    0.027075 0.793045 0.612318 0.168275
N6    N     N_3   0.098493 0.810205 0.379475 -0.484415
H59   H     H_    0.030851 0.803567 0.386072 0.168153
H60   H     H_    0.127795 0.795655 0.284402 0.174025
N7    N     N_3   0.084151 0.205066 0.398118 -0.492298
H61   H     H_    0.108077 0.199462 0.297106 0.171517
H62   H     H_    0.019967 0.182309 0.420934 0.167074
N8    N     N_3   0.104280 0.208483 0.642026 -0.483137
H63   H     H_    0.036679 0.192502 0.644569 0.167743
H64   H     H_    0.143062 0.193945 0.729350 0.172220
N9    N     N_3   0.597760 0.295055 0.636091 -0.491430
H65   H     H_    0.628758 0.289081 0.731731 0.172184
H66   H     H_    0.529685 0.300759 0.627739 0.171747
N10   N     N_3   0.595920 0.305287 0.391493 -0.492466
H67   H     H_    0.527999 0.310624 0.402190 0.169926
H68   H     H_    0.625766 0.306915 0.295134 0.176840
N11   N     N_3   0.592220 0.697229 0.378970 -0.487059
H69   H     H_    0.618973 0.707048 0.280918 0.171678
H70   H     H_    0.523613 0.701864 0.392349 0.166582
N12   N     N_3   0.600709 0.691203 0.622413 -0.483826
H71   H     H_    0.531421 0.693082 0.617749 0.166608
H72   H     H_    0.631292 0.702895 0.717994 0.172670
N13   N     N_3   0.851483 0.426756 0.125126 -0.482095
H73   H     H_    0.808275 0.439978 0.207606 0.194673
H74   H     H_    0.882639 0.364065 0.131746 0.167083
N14   N     N_3   0.867918 0.411397 0.864023 -0.426293
H75   H     H_    0.800976 0.413427 0.828853 0.165183
H76   H     H_    0.887351 0.349423 0.907921 0.141794
N15   N     N_3   0.857183 0.569118 0.852104 -0.415172
H77   H     H_    0.872283 0.635235 0.882847 0.153115
H78   H     H_    0.789312 0.558019 0.827964 0.157974
N16   N     N_3   0.858224 0.584898 0.114140 -0.483942
H79   H     H_    0.891433 0.646547 0.108259 0.154613
H80   H     H_    0.811690 0.580988 0.194167 0.192466
N17   N     N_3   0.353573 0.924035 0.124962 -0.470978
H81   H     H_    0.384279 0.860919 0.126185 0.164621
H82   H     H_    0.308416 0.935105 0.205577 0.192887
N18   N     N_3   0.362516 0.916148 0.867738 -0.448791
H83   H     H_    0.387542 0.852474 0.892139 0.152870
H84   H     H_    0.304194 0.920966 0.810029 0.179848
N19   N     N_3   0.357310 0.074446 0.861780 -0.443384
H85   H     H_    0.298517 0.064348 0.805388 0.175030
H86   H     H_    0.379455 0.140324 0.879483 0.159069
N20   N     N_3   0.357305 0.082392 0.119299 -0.472255
H87   H     H_    0.309895 0.076403 0.197857 0.189911
H88   H     H_    0.388770 0.144922 0.112373 0.157112

loop_
_geom_bond_atom_site_label_1
_geom_bond_atom_site_label_2
_ccdc_geom_bond_type
C16   C28   S    
N16   H80   S    
C51   N4    S    
C28   H32   S    
O8    Zn3   S    
C6    N2    S    
N17   H81   S    
N15   H77   S    
C2    C37   S    
C9    O10   A    
C45   H41   S    
C14   C33   S    
C41   N5    S    
N9    H65   S    
C8    N19   S    
C7    C8    S    
N19   H86   S    
C12   O15   A    
C45   C46   S    
C46   H50   S    
N13   H73   S    
O1    Zn1   S    
C32   C36   S    
C11   O13   A    
C25   H21   S    
N10   H68   S    
C38   C42   S    
C10   O12   A    
C19   C36   S    
C8    N4    S    
C5    C6    S    
C45   N1    S    
C26   C39   S    
C32   H39   S    
C28   C40   S    
C48   H52   S    
C29   C33   S    
N2    Zn1   S    
O15   Zn4   S    
C43   N10   S    
C3    O5    A    
C16   C34   S    
C2    O4    A    
C24   H28   S    
O4    Zn1   S    
C20   C24   S    
C9    O9    A    
C31   H37   S    
C42   N8    S    
C24   C38   S    
N11   H69   S    
C4    O7    A    
C19   H15   S    
C12   C36   S    
C48   H44   S    
C18   C35   S    
C15   C34   S    
C29   H33   S    
C25   H29   S    
C49   N3    S    
C48   N1    S    
C26   H30   S    
C29   C43   S    
C9    C33   S    
O2    Zn2   S    
C30   C44   S    
C1    O1    A    
C27   H23   S    
N9    H66   S    
N18   H84   S    
N20   H87   S    
C13   H1    S    
C51   H47   S    
C50   H46   S    
C44   N11   S    
C47   H51   S    
C30   C34   S    
C51   C52   S    
C7    N3    S    
C47   C48   S    
C23   H19   S    
C11   O14   A    
N10   H67   S    
C22   H26   S    
N6    H60   S    
C10   O11   A    
C39   C43   S    
C52   N3    S    
C19   H7    S    
C22   C37   S    
C52   H48   S    
C17   C21   S    
C7    N20   S    
C21   H17   S    
N14   H76   S    
N13   H74   S    
C19   C23   S    
C16   H4    S    
C13   C33   S    
C43   N9    S    
C3    O6    A    
N5    H57   S    
C2    O3    A    
O13   Zn3   S    
C15   C27   S    
N19   H85   S    
C46   H42   S    
C4    C39   S    
O14   Zn4   S    
C27   C40   S    
C31   H38   S    
C50   N4    S    
O7    Zn4   S    
N12   H71   S    
C13   H9    S    
N20   H88   S    
C10   C34   S    
C5    N16   S    
C14   C26   S    
C29   H34   S    
C45   H49   S    
C1    C38   S    
C14   H2    S    
C3    C40   S    
C5    N13   S    
C7    N17   S    
O11   Zn2   S    
N16   H79   S    
C31   C35   S    
C20   H8    S    
C1    O2    A    
C30   H36   S    
C28   H24   S    
O16   Zn3   S    
C22   H18   S    
N18   H83   S    
C24   H20   S    
C50   H54   S    
N17   H82   S    
C15   H11   S    
C31   C41   S    
N15   H78   S    
C42   N7    S    
C18   C22   S    
N12   H72   S    
C20   H16   S    
O9    Zn1   S    
N6    H59   S    
C13   C25   S    
C49   H53   S    
N7    H61   S    
C12   O16   A    
C18   H14   S    
C47   N2    S    
C17   C35   S    
C17   H13   S    
C23   C38   S    
C44   N12   S    
N14   H75   S    
C27   H31   S    
C46   N2    S    
C25   C39   S    
N7    H62   S    
C6    N14   S    
C32   H40   S    
C5    N1    S    
C32   C42   S    
C11   C35   S    
C26   H22   S    
C18   H6    S    
O12   Zn1   S    
N8    H64   S    
N11   H70   S    
N4    Zn3   S    
C37   C41   S    
O5    Zn3   S    
O6    Zn4   S    
C49   H45   S    
C20   C36   S    
N3    Zn4   S    
C40   C44   S    
C21   C37   S    
C6    N15   S    
C52   H56   S    
C51   H55   S    
C49   C50   S    
C21   H25   S    
N1    Zn2   S    
N5    H58   S    
C47   H43   S    
N8    H63   S    
C4    O8    A    
C16   H12   S    
C23   H27   S    
C30   H35   S    
C17   H5    S    
O10   Zn2   S    
C41   N6    S    
C8    N18   S    
C15   H3    S    
O3    Zn2   S    
C14   H10   S    
