data_mof_unit_40855.cif
_audit_creation_date              2013-03-05T15:46:45-0500
_audit_creation_method            fapswitch 2.2
_symmetry_space_group_name_H-M    P1
_symmetry_Int_Tables_number       1
_space_group_crystal_system       triclinic
_cell_length_a                    10.231255
_cell_length_b                    10.82281
_cell_length_c                    12.519465
_cell_angle_alpha                 92.491598
_cell_angle_beta                  110.896528
_cell_angle_gamma                 94.085929
_cell_volume                      1288.28369014

loop_
_atom_site_label
_atom_site_type_symbol
_atom_site_description
_atom_site_fract_x
_atom_site_fract_y
_atom_site_fract_z
_atom_type_partial_charge
O1    O     O_R   0.936910 0.692950 0.509080 -0.558723
O2    O     O_R   0.138320 0.658600 0.480130 -0.619576
C1    C     C_R   0.045133 0.732672 0.487890 0.856630
O3    O     O_R   0.002900 0.525670 0.675280 -0.546759
O4    O     O_R   0.204310 0.491320 0.646330 -0.629157
C2    C     C_R   0.138746 0.532476 0.711402 0.957097
Zn1   Zn    Zn3+2 0.865520 0.522940 0.519330 1.031421
Zn2   Zn    Zn3+2 0.134480 0.477060 0.480670 1.043034
O5    O     O_R   0.861680 0.341400 0.519870 -0.622367
O6    O     O_R   0.063090 0.307050 0.490920 -0.577380
O7    O     O_R   0.795690 0.508680 0.353670 -0.662007
O8    O     O_R   0.997100 0.474330 0.324720 -0.557344
C3    C     C_R   0.948984 0.268591 0.504933 0.904357
C4    C     C_R   0.864878 0.489609 0.285851 0.837628
C5    C     C_R   0.755830 0.448337 0.960747 0.217231
H1    H     H_    0.622744 0.552155 0.759364 0.181030
C6    C     C_R   0.793858 0.499985 0.162696 -0.295772
C7    C     C_R   0.156790 0.611479 0.911863 -0.004927
C8    C     C_R   0.236570 0.612043 0.028844 -0.150096
C9    C     C_R   0.378132 0.592175 0.065281 -0.014815
C10   C     C_R   0.446482 0.584421 0.985851 0.104866
C11   C     C_R   0.368993 0.592772 0.869278 -0.044602
C12   C     C_R   0.588173 0.559245 0.016932 0.058898
C13   C     C_R   0.636623 0.516156 0.931016 -0.073907
C14   C     C_R   0.570699 0.554400 0.820684 -0.182417
C15   C     C_R   0.445171 0.610686 0.795724 0.309218
C16   C     C_R   0.683776 0.576915 0.128876 -0.083132
C17   C     C_R   0.829887 0.433717 0.078183 0.189154
C18   C     C_R   0.220913 0.583482 0.830860 -0.102493
H2    H     H_    0.433869 0.586051 0.155768 0.193825
H3    H     H_    0.189099 0.627880 0.092429 0.165873
C19   C     C_2   0.054424 0.865405 0.469450 -0.215700
C20   C     C_2   0.937251 0.930076 0.447972 -0.008409
H4    H     H_    0.896933 0.103680 0.576448 0.222373
C21   C     C_2   0.920672 0.137770 0.504318 -0.362774
C22   C     C_2   0.940240 0.060093 0.426101 -0.099887
H5    H     H_    0.418120 0.617436 0.518079 0.214308
N1    N     N_2   0.313640 0.446500 0.454900 -0.150613
C23   C     C_2   0.426758 0.524685 0.488364 -0.189859
H6    H     H_    0.683662 0.616470 0.608106 0.239265
N2    N     N_2   0.686360 0.553430 0.545150 -0.195706
C24   C     C_2   0.565115 0.498611 0.476338 -0.040048
N3    N     N_R   0.939145 0.351618 0.110333 0.235445
O9    O     O_R   0.069900 0.397361 0.148007 -0.316964
O10   O     O_R   0.908843 0.234145 0.077015 -0.284762
C25   C     C_2   0.798596 0.882911 0.452644 0.433123
H7    H     H_    0.704243 0.882547 0.377088 0.090596
O11   O     O_2   0.787482 0.858560 0.543589 -0.477019
C26   C     C_2   0.193679 0.922948 0.474866 0.586798
H8    H     H_    0.270903 0.864372 0.464680 0.088443
O12   O     O_2   0.226624 0.034399 0.495981 -0.516879
C27   C     C_2   0.558564 0.413326 0.378311 0.452016
H9    H     H_    0.635906 0.348407 0.386629 0.114000
O13   O     O_2   0.462098 0.412504 0.286245 -0.572369
C28   C     C_2   0.327595 0.317856 0.438837 0.773792
H10   H     H_    0.422865 0.277211 0.488275 -0.003969
O14   O     O_2   0.231812 0.251696 0.368017 -0.492952
N4    N     N_R   0.794261 0.386815 0.873157 0.222512
O15   O     O_R   0.697552 0.333384 0.780825 -0.366246
O16   O     O_R   0.925408 0.375662 0.888576 -0.344001
C29   C     C_2   0.691193 0.694126 0.199174 0.434984
H11   H     H_    0.771043 0.712208 0.283379 0.052433
O17   O     O_2   0.615836 0.776418 0.160342 -0.557018
C30   C     C_2   0.012738 0.650635 0.880738 0.540509
H12   H     H_    0.955700 0.636475 0.938164 0.045748
O18   O     O_2   0.960773 0.707928 0.796184 -0.496556
N5    N     N_R   0.414652 0.707178 0.716955 0.198617
O19   O     O_R   0.307338 0.770214 0.705092 -0.394504
O20   O     O_R   0.514288 0.756684 0.686190 -0.389640
C31   C     C_2   0.950179 0.099034 0.316499 0.625486
H13   H     H_    0.938373 0.194216 0.293955 0.090219
O21   O     O_2   0.968472 0.023690 0.248889 -0.509581

loop_
_geom_bond_atom_site_label_1
_geom_bond_atom_site_label_2
_geom_bond_distance
_ccdc_geom_bond_type
C2    C18   1.487722 S    
O4    Zn2   1.932630 S    
N3    O9    1.300936 A    
C31   H13   1.083565 S    
C11   C18   1.411053 A    
C12   C16   1.389106 A    
N2    C24   1.311989 D    
C17   N3    1.432744 S    
C21   C22   1.340889 D    
O8    C4    1.289752 A    
Zn2   O8    1.954438 S    
C8    H3    1.083867 S    
C19   C20   1.380352 D    
C27   O13   1.220271 D    
C28   H10   1.086784 S    
C28   O14   1.218259 D    
O2    C1    1.315043 A    
N4    O15   1.301563 A    
H5    C23   1.075872 S    
C7    C18   1.423679 A    
C9    H2    1.078896 S    
C10   C11   1.401051 A    
C30   H12   1.084913 S    
N5    O20   1.301847 A    
Zn1   O7    1.932630 S    
C20   C25   1.495007 S    
N3    O10   1.300775 A    
C4    C6    1.464693 S    
C7    C30   1.482332 S    
C5    C17   1.415395 A    
C29   H11   1.077954 S    
Zn2   N1    2.018037 S    
O3    Zn1   1.954438 S    
O4    C2    1.308789 A    
Zn2   O6    1.957394 S    
H6    N2    1.029041 S    
C5    N4    1.442860 S    
C22   C31   1.488112 S    
C3    C21   1.423946 S    
C23   C24   1.520327 S    
C10   C12   1.410780 A    
C1    C19   1.466637 S    
O7    C4    1.303437 A    
C25   O11   1.221861 D    
C19   C26   1.491085 S    
C15   N5    1.441149 S    
C12   C13   1.410621 A    
N4    O16   1.301000 A    
N5    O19   1.300859 A    
C6    C16   1.401818 A    
C9    C10   1.407884 A    
Zn1   O5    1.962720 S    
C20   C22   1.445439 S    
N1    C23   1.309471 D    
C13   C14   1.399694 A    
O3    C2    1.294541 A    
H4    C21   1.087761 S    
C11   C15   1.413858 A    
C24   C27   1.482093 S    
H1    C14   1.079490 S    
C26   H8    1.085650 S    
O5    C3    1.288572 A    
C25   H7    1.083700 S    
C7    C8    1.398903 A    
C31   O21   1.221149 D    
C16   C29   1.493686 S    
C26   O12   1.220342 D    
C14   C15   1.399988 A    
O1    Zn1   1.957392 S    
C6    C17   1.421160 A    
C5    C13   1.411480 A    
C29   O17   1.221525 D    
O2    Zn2   1.962718 S    
N1    C28   1.422589 S    
C8    C9    1.390553 A    
Zn1   N2    2.018169 S    
C27   H9    1.075860 S    
O1    C1    1.277833 A    
O6    C3    1.284591 A    
C30   O18   1.220772 D    
