data_mof_unit_57471.cif
_audit_creation_date              2012-12-10T16:34:45-0500
_audit_creation_method            fapswitch 2.2
_symmetry_space_group_name_H-M    P1
_symmetry_Int_Tables_number       1
_space_group_crystal_system       triclinic
_cell_length_a                    28.231894
_cell_length_b                    18.431352
_cell_length_c                    17.058518
_cell_angle_alpha                 90.59612
_cell_angle_beta                  61.205105
_cell_angle_gamma                 90.095174
_cell_volume                      7778.38112237

loop_
_atom_site_label
_atom_site_type_symbol
_atom_type_description
_atom_site_fract_x
_atom_site_fract_y
_atom_site_fract_z
_atom_type_partial_charge
C1    C     C_R   0.705802 0.276378 0.673437 0.952696
C2    C     C_R   0.296328 0.728027 0.324929 0.943968
C3    C     C_R   0.298070 0.268262 0.323984 0.929999
C4    C     C_R   0.702969 0.729844 0.675720 0.940398
C5    C     C_R   0.201909 0.768224 0.675825 0.942432
C6    C     C_R   0.800566 0.236863 0.323402 0.915216
C7    C     C_R   0.798292 0.767780 0.323929 0.929787
C8    C     C_R   0.202653 0.230519 0.675942 0.939340
C9    C     C_R   0.910402 0.506647 0.466589 -0.058497
C10   C     C_R   0.090480 0.505016 0.523584 -0.052279
C11   C     C_R   0.405779 0.005913 0.483118 -0.054134
C12   C     C_R   0.588287 0.005023 0.532937 -0.055358
C13   C     C_R   0.099637 0.376957 0.484369 0.564876
C14   C     C_R   0.927380 0.633194 0.423220 0.578350
C15   C     C_R   0.888755 0.387948 0.532567 0.584124
C16   C     C_R   0.076918 0.634157 0.557301 0.584303
C17   C     C_R   0.599440 0.878467 0.486812 0.565858
C18   C     C_R   0.424265 0.132117 0.437868 0.577291
C19   C     C_R   0.387351 0.883573 0.540462 0.562837
C20   C     C_R   0.574575 0.133815 0.569432 0.582705
C21   C     C_R   0.705431 0.248286 0.972584 -0.177672
C22   C     C_R   0.268042 0.714074 0.054367 -0.123869
C23   C     C_R   0.291217 0.245348 0.036226 -0.099173
C24   C     C_R   0.732854 0.712434 0.944013 -0.106304
C25   C     C_R   0.208391 0.746333 0.964510 -0.101054
C26   C     C_R   0.766465 0.218435 0.064013 -0.186040
C27   C     C_R   0.790955 0.743585 0.036869 -0.085279
C28   C     C_R   0.231984 0.215534 0.944925 -0.112241
C29   C     C_R   0.743909 0.191719 0.945271 0.328225
C30   C     C_R   0.275685 0.780431 0.009721 0.375118
C31   C     C_R   0.250963 0.294030 0.042432 0.312234
C32   C     C_R   0.776155 0.667311 0.932598 0.294686
C33   C     C_R   0.200487 0.679957 0.009562 0.342058
C34   C     C_R   0.716358 0.256226 0.106829 0.331569
C35   C     C_R   0.748499 0.789377 0.046210 0.327230
C36   C     C_R   0.274121 0.168661 0.934850 0.291187
C37   C     C_R   0.781549 0.190872 0.976850 0.365507
C38   C     C_R   0.245147 0.797214 0.966987 0.314933
C39   C     C_R   0.220628 0.278277 0.998878 0.375511
C40   C     C_R   0.803785 0.681329 0.981497 0.338876
C41   C     C_R   0.228775 0.665064 0.056960 0.287637
C42   C     C_R   0.693452 0.283077 0.055185 0.363217
C43   C     C_R   0.719114 0.773313 0.001240 0.388077
C44   C     C_R   0.302041 0.181871 0.983388 0.347243
C45   C     C_R   0.628624 0.301196 0.950224 0.438703
C46   C     C_R   0.349572 0.661319 0.056628 0.398402
C47   C     C_R   0.365891 0.310647 0.045929 0.420559
C48   C     C_R   0.654532 0.654962 0.937510 0.398669
C49   C     C_R   0.133794 0.811169 0.954020 0.423606
C50   C     C_R   0.835316 0.143739 0.088192 0.407848
C51   C     C_R   0.864715 0.811863 0.046540 0.417664
C52   C     C_R   0.154020 0.156618 0.938097 0.394464
C53   C     C_R   0.615049 0.345696 0.896727 -0.316068
C54   C     C_R   0.381012 0.650613 0.100780 -0.303130
C55   C     C_R   0.382917 0.347614 0.101478 -0.310965
C56   C     C_R   0.621325 0.646653 0.896250 -0.311179
C57   C     C_R   0.116921 0.847631 0.898547 -0.312170
C58   C     C_R   0.876364 0.143142 0.113378 -0.311061
C59   C     C_R   0.882634 0.847820 0.101626 -0.313774
C60   C     C_R   0.121041 0.147332 0.896473 -0.311914
C61   C     C_R   0.646148 0.345214 0.804820 0.330967
C62   C     C_R   0.366757 0.683326 0.182234 0.332080
C63   C     C_R   0.356351 0.337811 0.193089 0.359250
C64   C     C_R   0.633940 0.681176 0.816830 0.332947
C65   C     C_R   0.144198 0.838343 0.807041 0.346683
C66   C     C_R   0.872137 0.187544 0.182744 0.337096
C67   C     C_R   0.857174 0.836674 0.192937 0.348607
C68   C     C_R   0.133464 0.181860 0.817080 0.333727
C69   C     C_R   0.687397 0.295852 0.766667 -0.313666
C70   C     C_R   0.315158 0.711386 0.231014 -0.286176
C71   C     C_R   0.320281 0.280958 0.228602 -0.301826
C72   C     C_R   0.684001 0.713815 0.769809 -0.292045
C73   C     C_R   0.180100 0.781276 0.771034 -0.307196
C74   C     C_R   0.826581 0.230322 0.225650 -0.295814
C75   C     C_R   0.820785 0.780141 0.228470 -0.302381
C76   C     C_R   0.183104 0.215668 0.770583 -0.288918
C77   C     C_R   0.711897 0.270378 0.817715 0.304859
C78   C     C_R   0.281096 0.719752 0.190452 0.330221
C79   C     C_R   0.302035 0.243215 0.174465 0.284407
C80   C     C_R   0.717144 0.725463 0.811476 0.331821
C81   C     C_R   0.198814 0.744180 0.824484 0.287990
C82   C     C_R   0.799935 0.252220 0.177495 0.347766
C83   C     C_R   0.802446 0.742390 0.174489 0.294073
C84   C     C_R   0.215501 0.229179 0.813193 0.332842
C85   C     C_R   0.690590 0.130313 0.537845 0.906782
C86   C     C_R   0.305395 0.872463 0.476325 0.909420
C87   C     C_R   0.309312 0.129953 0.462661 0.906877
C88   C     C_R   0.693692 0.872348 0.526138 0.889033
C89   C     C_R   0.190774 0.630039 0.536460 0.898259
C90   C     C_R   0.806127 0.372596 0.473508 0.891627
C91   C     C_R   0.809828 0.630649 0.459773 0.902440
C92   C     C_R   0.193760 0.372316 0.525466 0.888579
C93   C     C_R   0.681711 0.272332 0.913166 -0.027140
C94   C     C_R   0.299928 0.697887 0.101362 0.026898
C95   C     C_R   0.321874 0.263210 0.084796 0.029855
C96   C     C_R   0.701430 0.696786 0.896215 0.026450
C97   C     C_R   0.178514 0.764459 0.914741 0.020470
C98   C     C_R   0.800679 0.205313 0.109961 -0.034757
C99   C     C_R   0.821547 0.762967 0.085205 0.028837
C100  C     C_R   0.200105 0.200175 0.897718 0.028746
C101  C     C_R   0.075440 0.098145 0.933199 0.946293
C102  C     C_R   0.925200 0.901267 0.066335 0.923858
C103  C     C_R   0.921802 0.093794 0.071022 0.975253
C104  C     C_R   0.074272 0.900739 0.933867 0.924882
C105  C     C_R   0.575388 0.598163 0.933255 0.943479
C106  C     C_R   0.425301 0.401200 0.066284 0.934658
C107  C     C_R   0.425898 0.600012 0.065614 0.941626
C108  C     C_R   0.571656 0.397544 0.935666 0.952514
C109  C     C_R   0.537582 0.137914 0.535653 -0.177099
C110  C     C_R   0.439972 0.877597 0.528663 -0.176388
C111  C     C_R   0.460211 0.137223 0.473822 -0.175149
C112  C     C_R   0.544919 0.875207 0.508287 -0.163971
C113  C     C_R   0.042059 0.638198 0.519279 -0.171019
C114  C     C_R   0.941137 0.380199 0.521218 -0.182232
C115  C     C_R   0.965285 0.637860 0.455703 -0.172611
C116  C     C_R   0.045408 0.375281 0.503518 -0.165089
C117  C     C_R   0.518472 0.204263 0.519573 0.357413
C118  C     C_R   0.463521 0.810694 0.531768 0.344703
C119  C     C_R   0.481636 0.203825 0.485367 0.368867
C120  C     C_R   0.517454 0.809222 0.515714 0.353496
C121  C     C_R   0.024017 0.704504 0.501028 0.364388
C122  C     C_R   0.962114 0.313538 0.531266 0.350189
C123  C     C_R   0.987477 0.704273 0.466125 0.355737
C124  C     C_R   0.016001 0.310247 0.515657 0.347906
C125  C     C_R   0.476183 0.072548 0.497262 -0.045776
C126  C     C_R   0.518434 0.940951 0.516284 -0.048753
C127  C     C_R   0.518451 0.072557 0.518792 -0.046226
C128  C     C_R   0.469537 0.941703 0.514548 -0.044167
C129  C     C_R   0.981478 0.573059 0.478945 -0.040957
C130  C     C_R   0.021085 0.441510 0.505175 -0.047285
C131  C     C_R   0.023235 0.572943 0.501938 -0.042390
C132  C     C_R   0.972802 0.442821 0.501536 -0.045457
C133  C     C_R   0.955183 0.507696 0.481539 0.061038
C134  C     C_R   0.045205 0.506641 0.509551 0.055111
C135  C     C_R   0.450331 0.006959 0.498674 0.061289
C136  C     C_R   0.541696 0.006328 0.522801 0.052619
C137  C     C_R   0.878680 0.443594 0.485849 -0.129550
C138  C     C_R   0.107888 0.569490 0.546020 -0.103871
C139  C     C_R   0.118920 0.439160 0.512097 -0.120057
C140  C     C_R   0.894837 0.569688 0.439653 -0.102230
C141  C     C_R   0.374686 0.942286 0.499809 -0.116551
C142  C     C_R   0.606135 0.069388 0.554857 -0.108325
C143  C     C_R   0.617999 0.939833 0.516970 -0.126061
C144  C     C_R   0.391476 0.068829 0.453735 -0.107119
C145  C     C_R   0.836493 0.439814 0.462798 -0.207722
C146  C     C_R   0.155356 0.566879 0.556164 -0.173342
C147  C     C_R   0.162594 0.438056 0.533407 -0.210960
C148  C     C_R   0.845888 0.567394 0.434051 -0.176089
C149  C     C_R   0.334434 0.939132 0.471579 -0.210293
C150  C     C_R   0.654980 0.067054 0.560473 -0.179729
C151  C     C_R   0.662462 0.938364 0.535964 -0.211758
C152  C     C_R   0.344351 0.066360 0.442863 -0.175886
C153  C     C_R   0.824579 0.501030 0.427703 0.299077
C154  C     C_R   0.175206 0.500954 0.565722 0.290869
C155  C     C_R   0.323835 0.000321 0.434847 0.289045
C156  C     C_R   0.675664 0.001062 0.567968 0.292826
O1    O     O_R   0.746490 0.236330 0.638080 -0.542760
O2    O     O_R   0.253510 0.763670 0.361920 -0.561603
O3    O     O_R   0.253510 0.236330 0.361920 -0.568536
O4    O     O_R   0.746490 0.763670 0.638080 -0.563641
O5    O     O_R   0.246490 0.736330 0.638080 -0.551590
O6    O     O_R   0.753510 0.263670 0.361920 -0.563178
O7    O     O_R   0.753510 0.736330 0.361920 -0.569268
O8    O     O_R   0.246490 0.263670 0.638080 -0.564481
O9    O     O_R   0.674170 0.186160 0.516270 -0.579055
O10   O     O_R   0.325830 0.813840 0.483730 -0.576921
O11   O     O_R   0.325830 0.186160 0.483730 -0.581916
O12   O     O_R   0.674170 0.813840 0.516270 -0.574291
O13   O     O_R   0.174170 0.686160 0.516270 -0.578909
O14   O     O_R   0.825830 0.313840 0.483730 -0.591994
O15   O     O_R   0.825830 0.686160 0.483730 -0.581712
O16   O     O_R   0.174170 0.313840 0.516270 -0.576253
O17   O     O_R   0.739960 0.127620 0.525000 -0.582300
O18   O     O_R   0.260040 0.872380 0.475000 -0.577811
O19   O     O_R   0.260040 0.127620 0.475000 -0.581291
O20   O     O_R   0.739960 0.872380 0.525000 -0.576650
O21   O     O_R   0.239960 0.627620 0.525000 -0.583388
O22   O     O_R   0.760040 0.372380 0.475000 -0.579418
O23   O     O_R   0.760040 0.627620 0.475000 -0.584095
O24   O     O_R   0.239960 0.372380 0.525000 -0.574558
O25   O     O_R   0.680700 0.294870 0.629350 -0.568803
O26   O     O_R   0.319300 0.705130 0.370650 -0.584841
O27   O     O_R   0.319300 0.294870 0.370650 -0.562812
O28   O     O_R   0.680700 0.705130 0.629350 -0.580761
O29   O     O_R   0.180700 0.794870 0.629350 -0.567113
O30   O     O_R   0.819300 0.205130 0.370650 -0.593418
O31   O     O_R   0.819300 0.794870 0.370650 -0.561770
O32   O     O_R   0.180700 0.205130 0.629350 -0.580105
O33   O     O_R   0.062020 0.072840 0.007170 -0.595644
O34   O     O_R   0.937980 0.927160 0.992830 -0.576020
O35   O     O_R   0.937980 0.072840 0.992830 -0.559184
O36   O     O_R   0.062020 0.927160 0.007170 -0.599891
O37   O     O_R   0.562020 0.572840 0.007170 -0.594687
O38   O     O_R   0.437980 0.427160 0.992830 -0.603198
O39   O     O_R   0.437980 0.572840 0.992830 -0.603924
O40   O     O_R   0.562020 0.427160 0.007170 -0.581945
O41   O     O_R   0.947860 0.073950 0.109290 -0.582180
O42   O     O_R   0.052140 0.926050 0.890710 -0.580926
O43   O     O_R   0.052140 0.073950 0.890710 -0.569585
O44   O     O_R   0.947860 0.926050 0.109290 -0.585812
O45   O     O_R   0.447860 0.573950 0.109290 -0.571164
O46   O     O_R   0.552140 0.426050 0.890710 -0.582132
O47   O     O_R   0.552140 0.573950 0.890710 -0.569209
O48   O     O_R   0.447860 0.426050 0.109290 -0.563634
Zn1   Zn    Zn3+2 0.792340 0.208750 0.507670 1.194859
Zn2   Zn    Zn3+2 0.207660 0.791250 0.492330 1.208979
Zn3   Zn    Zn3+2 0.207660 0.208750 0.492330 1.193903
Zn4   Zn    Zn3+2 0.792340 0.791250 0.507670 1.203304
Zn5   Zn    Zn3+2 0.292340 0.708750 0.507670 1.196210
Zn6   Zn    Zn3+2 0.707660 0.291250 0.492330 1.213040
Zn7   Zn    Zn3+2 0.707660 0.708750 0.492330 1.195800
Zn8   Zn    Zn3+2 0.292340 0.291250 0.507670 1.206738
Zn9   Zn    Zn3+2 0.505960 0.500000 0.080520 1.119176
Zn10  Zn    Zn3+2 0.494040 0.500000 0.919480 1.073311
Zn11  Zn    Zn3+2 0.005960 0.000000 0.080520 1.078466
Zn12  Zn    Zn3+2 0.994040 0.000000 0.919480 1.134659
Cl1   Cl    Cl    0.043707 0.225896 0.521769 -0.417800
Cl2   Cl    Cl    0.966251 0.788880 0.445281 -0.413223
Cl3   Cl    Cl    0.923831 0.233097 0.552843 -0.373559
Cl4   Cl    Cl    0.050987 0.788433 0.512136 -0.398778
Cl5   Cl    Cl    0.547798 0.725086 0.514904 -0.417986
Cl6   Cl    Cl    0.458911 0.288157 0.466772 -0.382422
Cl7   Cl    Cl    0.429022 0.727822 0.543975 -0.408180
Cl8   Cl    Cl    0.544562 0.288585 0.531732 -0.396535
Cl9   Cl    Cl    0.785044 0.496588 0.372355 -0.448118
Cl10  Cl    Cl    0.211827 0.498585 0.626282 -0.472618
Cl11  Cl    Cl    0.288367 0.996023 0.372485 -0.478150
Cl12  Cl    Cl    0.714112 0.998480 0.625407 -0.482788
O49   O     O_3   0.133841 0.325974 0.422926 -0.555193
C157  C     C_3   0.165680 0.359781 0.340033 -0.120036
H1    H     H_    0.194471 0.398939 0.343875 0.111392
H2    H     H_    0.140125 0.387154 0.315736 0.187269
H3    H     H_    0.189840 0.317421 0.290130 0.234198
O50   O     O_3   0.924046 0.688676 0.372010 -0.546693
C158  C     C_3   0.954393 0.668900 0.280951 -0.246398
H4    H     H_    0.937218 0.620176 0.264880 0.164272
H5    H     H_    0.997640 0.659576 0.261580 0.173307
H6    H     H_    0.952702 0.714217 0.240053 0.193457
O51   O     O_3   0.845816 0.357733 0.606847 -0.542253
C159  C     C_3   0.825518 0.410694 0.676469 -0.168651
H7    H     H_    0.816060 0.463358 0.655605 0.120946
H8    H     H_    0.854388 0.419316 0.702628 0.203336
H9    H     H_    0.786774 0.392169 0.732232 0.194826
O52   O     O_3   0.076083 0.690139 0.612807 -0.546216
C160  C     C_3   0.043498 0.669545 0.702539 -0.246491
H10   H     H_    0.061394 0.622767 0.719920 0.163956
H11   H     H_    0.001560 0.656784 0.716672 0.174180
H12   H     H_    0.041079 0.715749 0.746539 0.191413
O53   O     O_3   0.633996 0.828886 0.423444 -0.547045
C161  C     C_3   0.667746 0.864933 0.343212 -0.140066
H13   H     H_    0.695437 0.903353 0.351411 0.093779
H14   H     H_    0.643629 0.893538 0.317050 0.181694
H15   H     H_    0.693209 0.823579 0.293009 0.245019
O54   O     O_3   0.424024 0.186634 0.382796 -0.539548
C162  C     C_3   0.452279 0.162427 0.293175 -0.240166
H16   H     H_    0.432042 0.115267 0.280817 0.151088
H17   H     H_    0.494997 0.148800 0.273533 0.163463
H18   H     H_    0.452546 0.207038 0.249849 0.205411
O55   O     O_3   0.347434 0.839282 0.602006 -0.563145
C163  C     C_3   0.322103 0.875855 0.685183 -0.148657
H19   H     H_    0.303847 0.928229 0.681208 0.128490
H20   H     H_    0.350911 0.885012 0.711422 0.209433
H21   H     H_    0.288997 0.841272 0.733395 0.219571
O56   O     O_3   0.576507 0.190050 0.622303 -0.543737
C164  C     C_3   0.545909 0.170598 0.712892 -0.255632
H22   H     H_    0.563837 0.122938 0.728671 0.161865
H23   H     H_    0.503035 0.159734 0.731058 0.174391
H24   H     H_    0.546176 0.216703 0.755010 0.189329
Cl13  Cl    Cl    0.656527 0.365007 0.092528 -0.451312
Cl14  Cl    Cl    0.214648 0.584918 0.120343 -0.484645
Cl15  Cl    Cl    0.349487 0.117705 0.979651 -0.473326
Cl16  Cl    Cl    0.665228 0.830594 0.015575 -0.468186
Cl17  Cl    Cl    0.252618 0.883246 0.917466 -0.554053
Cl18  Cl    Cl    0.848969 0.169761 0.896915 -0.375917
Cl19  Cl    Cl    0.852891 0.619214 0.975969 -0.499225
Cl20  Cl    Cl    0.168748 0.338292 0.010619 -0.425259
Cl21  Cl    Cl    0.741735 0.116598 0.881709 -0.395430
Cl22  Cl    Cl    0.323136 0.843658 0.008770 -0.423424
Cl23  Cl    Cl    0.238618 0.375795 0.104588 -0.532395
Cl24  Cl    Cl    0.796057 0.593305 0.856420 -0.576892
Cl25  Cl    Cl    0.155482 0.614897 0.006184 -0.458850
Cl26  Cl    Cl    0.676625 0.260534 0.224647 -0.445095
Cl27  Cl    Cl    0.731470 0.867393 0.115232 -0.642924
Cl28  Cl    Cl    0.292851 0.094021 0.859686 -0.519651
O57   O     O_3   0.590694 0.289476 0.038402 -0.534853
C165  C     C_3   0.570300 0.218681 0.044945 -0.235929
H25   H     H_    0.550538 0.211717 0.002449 0.131526
H26   H     H_    0.539231 0.209557 0.115177 0.185704
H27   H     H_    0.602412 0.176978 0.027432 0.183752
O58   O     O_3   0.369750 0.641891 0.967318 -0.588088
C166  C     C_3   0.347855 0.574646 0.959974 -0.034799
H28   H     H_    0.333380 0.539757 0.020278 0.158228
H29   H     H_    0.379815 0.543616 0.903023 0.194633
H30   H     H_    0.314812 0.583929 0.943712 0.194419
O59   O     O_3   0.387010 0.327859 0.956454 -0.557040
C167  C     C_3   0.433869 0.285584 0.905820 -0.192899
H31   H     H_    0.452862 0.303348 0.835227 0.211343
H32   H     H_    0.423737 0.227385 0.906883 0.187913
H33   H     H_    0.464356 0.292519 0.928979 0.116194
O60   O     O_3   0.638661 0.627858 0.022089 -0.582608
C168  C     C_3   0.661732 0.558400 0.014836 -0.038568
H34   H     H_    0.632812 0.525403 0.071941 0.223591
H35   H     H_    0.670382 0.527907 0.952414 0.113922
H36   H     H_    0.699010 0.563098 0.020735 0.202954
O61   O     O_3   0.111459 0.827890 0.044249 -0.556478
C169  C     C_3   0.066046 0.783234 0.092122 -0.188566
H37   H     H_    0.035193 0.790205 0.069862 0.120193
H38   H     H_    0.046838 0.798827 0.163933 0.215515
H39   H     H_    0.077972 0.725303 0.086564 0.185430
O62   O     O_3   0.831194 0.085071 0.040722 -0.543385
C170  C     C_3   0.785082 0.044602 0.097067 -0.138621
H40   H     H_    0.747248 0.077008 0.122405 0.152208
H41   H     H_    0.781987 0.999076 0.057040 0.271052
H42   H     H_    0.788746 0.021542 0.153854 0.110994
O63   O     O_3   0.884174 0.831349 0.958099 -0.547435
C171  C     C_3   0.931049 0.790192 0.903763 -0.160373
H43   H     H_    0.951352 0.814203 0.836057 0.208685
H44   H     H_    0.920414 0.733662 0.896321 0.188716
H45   H     H_    0.960744 0.790479 0.929192 0.106953
O64   O     O_3   0.138747 0.128559 0.022061 -0.591129
C172  C     C_3   0.161697 0.058777 0.013537 -0.026488
H46   H     H_    0.131799 0.024113 0.067547 0.202645
H47   H     H_    0.172812 0.030417 0.948761 0.138884
H48   H     H_    0.197504 0.062521 0.023803 0.213085
O65   O     O_3   0.635291 0.391684 0.751814 -0.540678
C173  C     C_3   0.670797 0.451358 0.728796 -0.159621
H49   H     H_    0.713381 0.434241 0.684421 0.117310
H50   H     H_    0.667147 0.479990 0.789321 0.115107
H51   H     H_    0.659874 0.490737 0.691338 0.208570
O66   O     O_3   0.401662 0.681681 0.217950 -0.561168
C174  C     C_3   0.435050 0.743411 0.188202 -0.146981
H52   H     H_    0.410813 0.794368 0.211309 0.151232
H53   H     H_    0.460376 0.742950 0.114047 0.137363
H54   H     H_    0.462760 0.742708 0.217221 0.205283
O67   O     O_3   0.365755 0.384623 0.248415 -0.543396
C175  C     C_3   0.329262 0.443554 0.272735 -0.137891
H55   H     H_    0.286758 0.425192 0.313098 0.111858
H56   H     H_    0.334166 0.473738 0.213080 0.128481
H57   H     H_    0.337818 0.481953 0.314815 0.200499
O68   O     O_3   0.598804 0.678095 0.781608 -0.559166
C176  C     C_3   0.565008 0.739842 0.811716 -0.133855
H58   H     H_    0.588806 0.790745 0.787807 0.146021
H59   H     H_    0.540274 0.740908 0.885980 0.135006
H60   H     H_    0.536752 0.737565 0.783793 0.208379
O69   O     O_3   0.135556 0.885817 0.752387 -0.547051
C177  C     C_3   0.172526 0.943741 0.729895 -0.152583
H61   H     H_    0.214793 0.924397 0.688087 0.116897
H62   H     H_    0.168303 0.972866 0.790486 0.123104
H63   H     H_    0.163919 0.983370 0.689838 0.203062
O70   O     O_3   0.907808 0.180741 0.216530 -0.558484
C178  C     C_3   0.938307 0.245006 0.198872 -0.139447
H64   H     H_    0.912451 0.292048 0.236747 0.148442
H65   H     H_    0.960322 0.256570 0.125899 0.142416
H66   H     H_    0.968963 0.237714 0.221173 0.202674
O71   O     O_3   0.868500 0.881199 0.248010 -0.542877
C179  C     C_3   0.833407 0.941798 0.274593 -0.142094
H67   H     H_    0.790222 0.925215 0.308904 0.100806
H68   H     H_    0.842037 0.976817 0.216640 0.118605
H69   H     H_    0.840292 0.974837 0.322871 0.203284
O72   O     O_3   0.098685 0.177497 0.781242 -0.557512
C180  C     C_3   0.064688 0.239082 0.809901 -0.131856
H70   H     H_    0.088335 0.290011 0.785130 0.146482
H71   H     H_    0.039781 0.241043 0.884120 0.133900
H72   H     H_    0.036604 0.235672 0.781703 0.211686
Cl29  Cl    Cl    0.782087 0.249790 0.761847 -0.403812
Cl30  Cl    Cl    0.214339 0.755994 0.247319 -0.458414
Cl31  Cl    Cl    0.253899 0.172280 0.215671 -0.451509
Cl32  Cl    Cl    0.778218 0.776097 0.762256 -0.444609
Cl33  Cl    Cl    0.248503 0.674622 0.781443 -0.431882
Cl34  Cl    Cl    0.779640 0.344077 0.188649 -0.392984
Cl35  Cl    Cl    0.755088 0.670526 0.215566 -0.433393
Cl36  Cl    Cl    0.275347 0.282384 0.765165 -0.447925

loop_
_geom_bond_atom_site_label_1
_geom_bond_atom_site_label_2
_ccdc_geom_bond_type
C39   Cl20  S    
C162  H17   S    
C166  H28   S    
C34   C42   A    
O19   Zn3   S    
O42   Zn12  S    
C16   C113  A    
C110  C118  A    
C168  H34   S    
O37   Zn9   S    
C27   C99   S    
C54   C107  S    
C13   C139  A    
C153  Cl9   S    
C101  O33   A    
C24   C96   S    
C19   O55   S    
C161  H14   S    
C104  O36   A    
C15   O51   S    
O44   Zn11  S    
O52   C160  S    
C30   C38   A    
C103  O41   A    
C177  H63   S    
C92   O24   A    
C109  C127  A    
C87   O11   A    
C68   O72   S    
C88   O12   A    
C111  C125  A    
C173  H49   S    
C156  Cl12  S    
C161  H15   S    
C143  C151  A    
C126  C136  A    
C19   C141  A    
C160  H10   S    
C92   C147  S    
C82   C98   A    
C130  C134  A    
C73   C81   A    
C180  H72   S    
C115  C123  A    
O66   C174  S    
C84   C100  A    
O1    Zn1   S    
C18   C111  A    
O14   Zn1   S    
C128  C135  A    
C112  C120  A    
C1    O25   A    
O6    Zn6   S    
C27   C35   A    
C21   C29   A    
C179  H69   S    
C171  H43   S    
C86   O18   A    
C5    O5    A    
C24   C32   A    
O49   C157  S    
O35   Zn12  S    
O71   C179  S    
C146  C154  A    
C173  H51   S    
C169  H37   S    
C26   C37   A    
O46   Zn10  S    
C157  H2    S    
C129  C133  A    
C167  H31   S    
C123  Cl2   S    
C63   C71   A    
C34   Cl26  S    
C121  Cl4   S    
C36   C44   A    
C148  C153  A    
O60   C168  S    
C168  H36   S    
C57   C104  S    
C48   C96   A    
C165  H27   S    
C59   C102  S    
C104  O42   A    
C16   C138  A    
C175  H55   S    
O3    Zn3   S    
C3    C71   S    
C78   C94   A    
C6    O30   A    
C91   O15   A    
C85   O9    A    
O20   Zn4   S    
C117  C119  A    
C149  C155  A    
C89   O13   A    
C20   O56   S    
C165  H26   S    
C53   C108  S    
C21   C93   S    
O8    Zn8   S    
C23   C95   S    
C119  Cl6   S    
O70   C178  S    
C118  C120  A    
C121  C123  A    
C49   C97   A    
O67   C175  S    
C116  C130  A    
C172  H46   S    
C160  H12   S    
O18   Zn2   S    
C24   C43   A    
C10   C138  A    
C48   O60   S    
C29   Cl21  S    
C110  C128  A    
C15   C137  A    
C9    C133  A    
O32   Zn3   S    
C69   C77   A    
C178  H64   S    
C45   C93   A    
C71   C79   A    
C178  H66   S    
C78   Cl30  S    
C18   O54   S    
C62   C70   A    
O53   C161  S    
C171  H45   S    
C7    O31   A    
C166  H29   S    
C92   O16   A    
C25   C38   A    
C9    C140  A    
O9    Zn6   S    
C51   O63   S    
C66   C74   A    
C8    C76   S    
C49   C57   A    
O22   Zn6   S    
C111  C119  A    
C61   O65   S    
O24   Zn8   S    
O39   Zn10  S    
C52   C60   A    
C59   C67   A    
C53   C61   A    
C167  H33   S    
O56   C164  S    
C55   C63   A    
C56   C64   A    
C47   O59   S    
C45   C53   A    
C3    O3    A    
C22   C94   S    
O12   Zn7   S    
O65   C173  S    
C175  H57   S    
O72   C180  S    
C176  H59   S    
C50   C98   A    
C122  Cl3   S    
C8    O8    A    
C81   Cl33  S    
C62   O66   S    
O27   Zn8   S    
C13   O49   S    
C52   C100  A    
C21   C42   A    
O25   Zn6   S    
C37   Cl18  S    
O4    Zn4   S    
C164  H23   S    
C177  H62   S    
C46   C94   A    
C27   C40   A    
C172  H48   S    
C179  H68   S    
C63   O67   S    
C11   C141  A    
C60   C68   A    
C16   O52   S    
C25   C97   S    
C14   C140  A    
C87   C152  S    
C170  H41   S    
C88   C151  S    
C67   C75   A    
C122  C124  A    
O28   Zn7   S    
C125  C127  A    
C124  Cl1   S    
C126  C128  A    
C22   C30   A    
O29   Zn2   S    
O16   Zn3   S    
C163  H19   S    
C101  O43   A    
C68   C76   A    
C87   O19   A    
C88   O20   A    
C12   C143  A    
C66   O70   S    
C72   C80   A    
C125  C135  A    
C138  C146  A    
C17   O53   S    
C159  H7    S    
C158  H6    S    
C35   Cl27  S    
C5    C73   S    
C174  H54   S    
C103  O35   A    
C82   Cl34  S    
C12   C136  A    
C117  Cl8   S    
C173  H50   S    
C3    O27   A    
C60   C101  S    
C25   C33   A    
C90   O22   A    
O51   C159  S    
C86   O10   A    
C5    O29   A    
C131  C134  A    
C76   C84   A    
C109  C117  A    
C8    O32   A    
C180  H71   S    
C154  Cl10  S    
C137  C145  A    
O11   Zn8   S    
C107  O45   A    
C90   C145  S    
C49   O61   S    
C115  C129  A    
C105  O47   A    
C22   C41   A    
C14   C115  A    
C45   O57   S    
C171  H44   S    
O58   C166  S    
C85   C150  S    
O33   Zn11  S    
C9    C137  A    
C169  H38   S    
C158  H4    S    
C108  O40   A    
O36   Zn11  S    
C112  C126  A    
C79   Cl31  S    
C167  H32   S    
C162  H18   S    
O63   C171  S    
C83   C99   A    
C140  C148  A    
C74   C82   A    
C163  H21   S    
C6    C74   S    
C168  H35   S    
C169  H39   S    
C55   C106  S    
C50   C58   A    
C106  O38   A    
C30   Cl22  S    
O59   C167  S    
C54   C62   A    
C40   Cl19  S    
C161  H13   S    
O5    Zn5   S    
C159  H9    S    
C1    C69   S    
C23   C44   A    
O2    Zn2   S    
C77   Cl29  S    
C174  H52   S    
C79   C95   A    
O54   C162  S    
C102  O44   A    
C152  C155  A    
C2    O2    A    
C155  Cl11  S    
C46   C54   A    
C4    C72   S    
C151  C156  A    
C127  C136  A    
C65   O69   S    
O45   Zn9   S    
C43   Cl16  S    
C44   Cl15  S    
C175  H56   S    
C160  H11   S    
O50   C158  S    
O13   Zn2   S    
O62   C170  S    
C64   O68   S    
C116  C124  A    
C118  Cl7   S    
C57   C65   A    
O38   Zn10  S    
C178  H65   S    
C38   Cl17  S    
C28   C39   A    
C19   C110  A    
C17   C143  A    
C33   C41   A    
C142  C150  A    
C18   C144  A    
C84   Cl36  S    
C75   C83   A    
C7    O7    A    
C77   C93   A    
C102  O34   A    
C12   C142  A    
C157  H1    S    
C56   C105  S    
C13   C116  A    
C10   C139  A    
C106  O48   A    
C28   C36   A    
C144  C152  A    
O61   C169  S    
C29   C37   A    
O17   Zn1   S    
C2    C70   S    
O34   Zn12  S    
C23   C31   A    
C170  H40   S    
C120  Cl5   S    
C70   C78   A    
O47   Zn10  S    
C130  C132  A    
C80   Cl32  S    
C107  O39   A    
C141  C149  A    
C176  H58   S    
C105  O37   A    
C139  C147  A    
O57   C165  S    
C11   C135  A    
O10   Zn5   S    
C46   O58   S    
C165  H25   S    
O23   Zn7   S    
C162  H16   S    
C65   C73   A    
C157  H3    S    
C2    O26   A    
O21   Zn5   S    
C147  C154  A    
C108  O46   A    
C58   C66   A    
C6    O6    A    
C132  C133  A    
C172  H47   S    
C91   O23   A    
O31   Zn4   S    
C85   O17   A    
C89   O21   A    
C80   C96   A    
C31   Cl23  S    
C11   C144  A    
C32   Cl24  S    
C145  C153  A    
C28   C100  S    
C32   C40   A    
C150  C156  A    
C158  H5    S    
C91   C148  S    
C26   C34   A    
C51   C99   A    
C89   C146  S    
C33   Cl25  S    
O43   Zn12  S    
C20   C142  A    
C166  H30   S    
C36   Cl28  S    
C163  H20   S    
C86   C149  S    
O7    Zn7   S    
C7    C75   S    
O48   Zn9   S    
O26   Zn5   S    
C90   O14   A    
C159  H8    S    
C15   C114  A    
C113  C121  A    
C41   Cl14  S    
C4    O28   A    
C174  H53   S    
C50   O62   S    
C26   C98   S    
C51   C59   A    
O55   C163  S    
C17   C112  A    
C14   O50   S    
C35   C43   A    
C47   C55   A    
C164  H22   S    
C176  H60   S    
C61   C69   A    
C48   C56   A    
C47   C95   A    
C113  C131  A    
O30   Zn1   S    
C114  C132  A    
C10   C134  A    
O41   Zn11  S    
C180  H70   S    
C67   O71   S    
O64   C172  S    
C42   Cl13  S    
C1    O1    A    
O15   Zn4   S    
O40   Zn9   S    
C177  H61   S    
C4    O4    A    
C81   C97   A    
C179  H67   S    
C31   C39   A    
C64   C72   A    
C164  H24   S    
C20   C109  A    
C114  C122  A    
C83   Cl35  S    
C52   O64   S    
C170  H42   S    
O68   C176  S    
C58   C103  S    
O69   C177  S    
C129  C131  A    
