data_mof_unit_27366.cif
_audit_creation_date              2012-12-10T16:50:02-0500
_audit_creation_method            fapswitch 2.2
_symmetry_space_group_name_H-M    P1
_symmetry_Int_Tables_number       1
_space_group_crystal_system       triclinic
_cell_length_a                    7.796718
_cell_length_b                    8.581337
_cell_length_c                    10.699746
_cell_angle_alpha                 92.554036
_cell_angle_beta                  86.88587
_cell_angle_gamma                 91.943174
_cell_volume                      713.756972692

loop_
_atom_site_label
_atom_site_type_symbol
_atom_type_description
_atom_site_fract_x
_atom_site_fract_y
_atom_site_fract_z
_atom_type_partial_charge
C1    C     C_R   0.543696 0.794521 0.499941 0.942323
C2    C     C_R   0.457436 0.206255 0.506763 0.905142
C3    C     C_R   0.493600 0.484809 0.259985 0.872422
C4    C     C_R   0.248423 0.677641 0.904036 -0.121662
C5    C     C_R   0.091702 0.702896 0.969294 -0.218140
C6    C     C_R   0.047465 0.617995 0.074499 -0.244446
C7    C     C_R   0.165847 0.518247 0.119631 0.576603
C8    C     C_R   0.337394 0.518371 0.066796 -0.024426
C9    C     C_3   0.024161 0.782645 0.612292 -0.100338
C10   C     C_3   0.105832 0.260132 0.147644 -0.366128
C11   C     C_1   0.366650 0.027138 0.665302 0.137141
C12   C     C_R   0.366664 0.574787 0.947558 0.024040
C13   C     C_R   0.510241 0.520977 0.874141 -0.086580
C14   C     C_R   0.641824 0.445968 0.928449 -0.188377
C15   C     C_R   0.630225 0.424050 0.055082 -0.238992
C16   C     C_R   0.481339 0.465700 0.125972 -0.115482
C17   C     C_2   0.560742 0.956030 0.485182 -0.429034
C18   C     C_2   0.446540 0.051125 0.542222 -0.149609
C19   C     C_R   0.504766 0.511549 0.740091 0.855312
H1    H     H_    0.753010 0.404048 0.873415 0.184093
H2    H     H_    0.151066 0.793213 0.650743 0.169334
H3    H     H_    0.238828 0.218028 0.131987 0.180514
H4    H     H_    0.039313 0.254989 0.057887 0.168185
H5    H     H_    0.034963 0.178945 0.211344 0.182412
H6    H     H_    0.278441 0.738408 0.819971 0.165660
H7    H     H_    0.001074 0.780868 0.934132 0.172060
H8    H     H_    0.919775 0.625834 0.118782 0.177166
H9    H     H_    0.738132 0.375463 0.097799 0.183732
H10   H     H_    0.650303 0.994050 0.410051 0.148975
H11   H     H_    0.011508 0.371402 0.413907 0.200524
H12   H     H_    0.028739 0.820885 0.513977 0.142008
H13   H     H_    0.937303 0.860408 0.669744 0.133257
N1    N     N_2   0.950330 0.457950 0.466250 -0.074764
N2    N     N_2   0.049670 0.542050 0.533750 0.121286
N3    N     N_1   0.304782 0.015777 0.765343 -0.260128
O1    O     O_R   0.389250 0.738570 0.508280 -0.644833
O2    O     O_3   0.105545 0.411358 0.205299 -0.628206
O3    O     O_R   0.678390 0.711630 0.486650 -0.587660
O4    O     O_R   0.355400 0.513470 0.694050 -0.617017
O5    O     O_R   0.644540 0.486530 0.672420 -0.572110
O6    O     O_R   0.321610 0.288370 0.513350 -0.631955
O7    O     O_R   0.610750 0.261430 0.491720 -0.630063
O8    O     O_R   0.355460 0.513470 0.327580 -0.589313
O9    O     O_R   0.644600 0.486530 0.305950 -0.624552
O10   O     O_3   0.962325 0.628891 0.621643 -0.501972
Zn1   Zn    Zn3+2 0.306930 0.517990 0.514440 0.994863
Zn2   Zn    Zn3+2 0.693070 0.482010 0.485560 1.008734

loop_
_geom_bond_atom_site_label_1
_geom_bond_atom_site_label_2
_ccdc_geom_bond_type
O5    Zn2   S    
O6    Zn1   S    
C11   C18   S    
C9    O10   S    
C6    C7    A    
N2    Zn1   S    
C10   H4    S    
C2    C18   S    
C17   H10   S    
C1    C17   S    
C6    H8    S    
H11   N1    S    
O9    Zn2   S    
C8    C12   A    
C3    O8    A    
C11   N3    T    
N1    N2    D    
C7    O2    S    
C7    C8    A    
C8    C16   A    
N2    O10   S    
C13   C14   A    
C10   H3    S    
O1    Zn1   S    
C9    H2    S    
O3    Zn2   S    
C19   O4    A    
C1    O3    A    
C2    O7    A    
C10   O2    S    
C4    H6    S    
O7    Zn2   S    
O4    Zn1   S    
C5    C6    A    
N1    Zn2   S    
O8    Zn1   S    
C3    O9    A    
C4    C12   A    
C19   O5    A    
C9    H12   S    
C2    O6    A    
C15   H9    S    
C15   C16   A    
C14   H1    S    
C12   C13   A    
C17   C18   D    
C13   C19   S    
C14   C15   A    
C9    H13   S    
C10   H5    S    
C3    C16   S    
C5    H7    S    
C1    O1    A    
C4    C5    A    
