data_mof_unit_12689.cif
_audit_creation_date              2012-12-10T17:02:04-0500
_audit_creation_method            fapswitch 2.2
_symmetry_space_group_name_H-M    P1
_symmetry_Int_Tables_number       1
_space_group_crystal_system       triclinic
_cell_length_a                    10.853286
_cell_length_b                    11.004831
_cell_length_c                    9.837967
_cell_angle_alpha                 111.08476
_cell_angle_beta                  99.123713
_cell_angle_gamma                 90.782944
_cell_volume                      1079.2993322

loop_
_atom_site_label
_atom_site_type_symbol
_atom_type_description
_atom_site_fract_x
_atom_site_fract_y
_atom_site_fract_z
_atom_type_partial_charge
C1    C     C_R   0.493277 0.253882 0.440816 0.871406
C2    C     C_R   0.082962 0.539395 0.643892 0.044103
C3    C     C_R   0.129299 0.517690 0.510163 -0.086732
C4    C     C_R   0.045579 0.486068 0.376482 -0.205348
C5    C     C_R   0.918252 0.474617 0.373225 -0.176204
C6    C     C_R   0.872279 0.482411 0.500838 -0.092514
C7    C     C_2   0.499664 0.114714 0.408297 -0.362806
C8    C     C_2   0.540975 0.071523 0.516912 -0.273798
C9    C     C_2   0.523431 0.886019 0.589452 -0.376079
C10   C     C_2   0.548818 0.931836 0.486731 0.439215
C11   C     C_2   0.508584 0.511307 0.080999 0.135367
C12   C     C_R   0.262830 0.509261 0.503535 0.786883
C13   C     C_2   0.485223 0.495813 0.919944 0.126860
C14   C     C_R   0.512854 0.746192 0.558901 0.894780
C15   C     C_R   0.737431 0.490557 0.498470 0.794689
C16   C     C_R   0.157088 0.596923 0.786725 -0.234146
C17   C     C_R   0.117072 0.589988 0.912310 0.190213
C18   C     C_R   0.998582 0.526943 0.896263 0.387034
C19   C     C_R   0.921776 0.480143 0.757362 -0.191577
C20   C     C_R   0.957270 0.499752 0.633827 0.007956
Cu1   Cu    Cu3+1 0.521920 0.521810 0.644910 0.958102
Cu2   Cu    Cu3+1 0.478080 0.478190 0.355090 0.967396
H1    H     H_    0.078448 0.470652 0.273663 0.168725
H2    H     H_    0.472598 0.047698 0.294390 0.159021
H3    H     H_    0.406376 0.431486 0.846497 0.131611
H4    H     H_    0.583172 0.581510 0.155295 0.193828
H5    H     H_    0.246004 0.650301 0.804431 0.192051
H6    H     H_    0.834909 0.426432 0.748293 0.201306
H7    H     H_    0.855777 0.458442 0.269828 0.192639
H8    H     H_    0.563365 0.138737 0.631398 0.168344
H9    H     H_    0.506575 0.952490 0.696192 0.101022
N1    N     N_2   0.445130 0.445430 0.137370 -0.116341
N2    N     N_2   0.554930 0.554500 0.862630 -0.044862
O1    O     O_R   0.511700 0.332330 0.577400 -0.589756
O2    O     O_R   0.474680 0.295500 0.332650 -0.578805
O3    O     O_R   0.338160 0.518420 0.622400 -0.604557
O4    O     O_R   0.301140 0.481590 0.377650 -0.598015
O5    O     O_R   0.525320 0.704500 0.667350 -0.595427
O6    O     O_R   0.488300 0.667670 0.422600 -0.527258
O7    O     O_R   0.698860 0.518410 0.622350 -0.599645
O8    O     O_R   0.661840 0.481580 0.377600 -0.585549
O9    O     O_3   0.653305 0.632938 0.953497 -0.641224
H10   H     H_    0.693442 0.668023 0.890340 0.373067
N3    N     N_2   0.348666 0.357214 0.044571 -0.350694
H11   H     H_    0.276129 0.351131 0.098356 0.281194
C21   C     C_3   0.388629 0.229246 0.967753 -0.657102
H12   H     H_    0.307906 0.166533 0.888349 0.208569
H13   H     H_    0.424637 0.182526 0.047517 0.241211
H14   H     H_    0.463096 0.236182 0.904873 0.210058
N4    N     N_2   0.202223 0.635507 0.049412 -0.431753
H15   H     H_    0.195865 0.584782 0.118314 0.259541
C22   C     C_3   0.215995 0.775708 0.125150 -0.675609
H16   H     H_    0.289096 0.801592 0.225876 0.252583
H17   H     H_    0.126194 0.811960 0.158534 0.219777
H18   H     H_    0.245400 0.824196 0.052790 0.231276
O10   O     O_3   0.951835 0.513174 0.012851 -0.739508
H19   H     H_    0.993814 0.581608 0.106159 0.321201
O11   O     O_3   0.580156 0.848364 0.355470 -0.709051
H20   H     H_    0.615906 0.901043 0.305940 0.333333

loop_
_geom_bond_atom_site_label_1
_geom_bond_atom_site_label_2
_ccdc_geom_bond_type
C17   N4    S    
C11   N1    D    
N4    C22   S    
C9    C14   S    
C12   O3    A    
C13   N2    D    
C19   H6    S    
C14   O5    A    
C6    C20   A    
C9    C10   D    
C19   C20   A    
Cu1   O1    S    
C22   H18   S    
C18   O10   S    
C6    C15   S    
C8    H8    S    
C22   H17   S    
C16   H5    S    
C17   C18   A    
N1    N3    S    
C7    C8    D    
Cu1   O3    S    
Cu1   Cu2   S    
O10   H19   S    
Cu2   O2    S    
C11   C13   S    
C21   H14   S    
C13   H3    S    
Cu1   O7    S    
Cu2   N1    S    
N2    O9    S    
C10   O11   S    
N3    C21   S    
C1    O1    A    
C2    C3    A    
C5    H7    S    
C5    C6    A    
C21   H13   S    
C15   O7    A    
O11   H20   S    
Cu2   O8    S    
Cu1   N2    S    
O9    H10   S    
C9    H9    S    
C15   O8    A    
C2    C20   A    
C3    C4    A    
C2    C16   A    
N3    H11   S    
C1    O2    A    
C8    C10   S    
C18   C19   A    
C12   O4    A    
C4    H1    S    
C21   H12   S    
C16   C17   A    
C3    C12   S    
C11   H4    S    
N4    H15   S    
C14   O6    A    
C1    C7    S    
Cu2   O4    S    
Cu2   O6    S    
Cu1   O5    S    
C7    H2    S    
C22   H16   S    
C4    C5    A    
