data_mof_unit_55337.cif
_audit_creation_date              2013-03-05T16:05:04-0500
_audit_creation_method            fapswitch 2.2
_symmetry_space_group_name_H-M    P1
_symmetry_Int_Tables_number       1
_space_group_crystal_system       triclinic
_cell_length_a                    6.93067
_cell_length_b                    23.259348
_cell_length_c                    25.80997
_cell_angle_alpha                 104.770072
_cell_angle_beta                  90.121569
_cell_angle_gamma                 90.564116
_cell_volume                      4022.91859846

loop_
_atom_site_label
_atom_site_type_symbol
_atom_site_description
_atom_site_fract_x
_atom_site_fract_y
_atom_site_fract_z
_atom_type_partial_charge
O1    O     O_R   0.505750 0.453350 0.547660 -0.597635
O2    O     O_R   0.170990 0.432220 0.437590 -0.596297
O3    O     O_R   0.005600 0.546650 0.452340 -0.596368
C1    C     C_R   0.339849 0.415165 0.417625 0.948996
O4    O     O_R   0.175720 0.446240 0.546340 -0.598847
O5    O     O_R   0.010370 0.560770 0.561860 -0.595377
C2    C     C_R   0.344553 0.434170 0.562835 0.920866
O6    O     O_R   0.500990 0.439230 0.438140 -0.596572
O7    O     O_3   0.340820 0.537560 0.504970 -0.269547
V1    V     V_3+5 0.064050 0.493030 0.499080 1.145610
O8    O     O_R   0.680940 0.567780 0.562410 -0.596750
C3    C     C_R   0.850718 0.584552 0.582463 0.954311
O9    O     O_R   0.676210 0.553760 0.453660 -0.591036
C4    C     C_R   0.845533 0.565961 0.437290 0.933666
V2    V     V_3+5 0.564640 0.506970 0.500920 1.151523
O10   O     O_3   0.837740 0.462440 0.495030 -0.277370
C5    C     C_R   0.777354 0.865626 0.106307 -0.157670
H1    H     H_    0.651467 0.869854 0.082668 0.131698
C6    C     C_R   0.764202 0.829753 0.142338 -0.155226
H2    H     H_    0.628762 0.807459 0.145904 0.114934
C7    C     C_R   0.923078 0.823695 0.174316 0.115969
C8    C     C_R   0.096458 0.853472 0.168931 -0.147554
H3    H     H_    0.221367 0.849192 0.192918 0.117551
C9    C     C_R   0.111032 0.888360 0.132052 -0.160051
H4    H     H_    0.246665 0.910681 0.128803 0.126975
C10   C     C_R   0.951109 0.895274 0.100572 -0.127365
C11   C     C_R   0.958700 0.809908 0.267242 -0.155676
H5    H     H_    0.005786 0.855811 0.281267 0.116061
C12   C     C_R   0.946730 0.774605 0.303777 -0.076390
H6    H     H_    0.984050 0.794091 0.345361 0.103555
C13   C     C_R   0.891010 0.714354 0.286663 0.149117
C14   C     C_R   0.836416 0.691306 0.232769 -0.123471
H7    H     H_    0.791150 0.645261 0.218504 0.111852
C15   C     C_R   0.843676 0.727064 0.196512 -0.159834
H8    H     H_    0.803318 0.707978 0.155081 0.117681
C16   C     C_R   0.908087 0.786420 0.213194 0.087406
C17   C     C_R   0.719155 0.642637 0.328308 -0.149080
H9    H     H_    0.597491 0.643982 0.302357 0.158066
C18   C     C_R   0.703351 0.608303 0.365448 -0.114253
H10   H     H_    0.570566 0.583827 0.366926 0.125373
C19   C     C_R   0.858223 0.604582 0.399428 -0.144977
C20   C     C_R   0.028992 0.636379 0.395664 -0.211792
H11   H     H_    0.150513 0.633009 0.421188 0.170696
C21   C     C_R   0.046704 0.671675 0.358846 -0.043874
C22   C     C_R   0.887795 0.675633 0.324916 -0.001034
C23   C     C_R   0.712771 0.645088 0.668883 -0.255473
C24   C     C_R   0.864227 0.634299 0.631518 -0.144680
C25   C     C_R   0.031348 0.670423 0.641797 -0.245157
C26   C     C_R   0.047412 0.717010 0.688520 0.146427
C27   C     C_R   0.896348 0.726896 0.726218 0.028149
C28   C     C_R   0.728887 0.690600 0.716471 0.151899
C29   C     C_R   0.212070 0.753877 0.698279 -0.213568
C30   C     C_R   0.228227 0.799714 0.745305 -0.205367
C31   C     C_R   0.080409 0.809380 0.783539 0.150220
C32   C     C_R   0.912942 0.773086 0.773789 0.028472
C33   C     C_R   0.761876 0.782972 0.811486 0.150181
C34   C     C_R   0.597211 0.746109 0.801726 -0.220131
C35   C     C_R   0.581060 0.700269 0.754702 -0.207550
C36   C     C_R   0.096540 0.854883 0.831134 -0.255787
C37   C     C_R   0.945088 0.865668 0.868500 -0.144695
C38   C     C_R   0.777948 0.829554 0.858213 -0.252534
H12   H     H_    0.584183 0.617214 0.661478 0.135766
H13   H     H_    0.329195 0.747018 0.669678 0.145818
H14   H     H_    0.357235 0.827365 0.751939 0.144280
H15   H     H_    0.225136 0.882753 0.838543 0.136557
H16   H     H_    0.660900 0.837353 0.886892 0.140775
H17   H     H_    0.480082 0.752969 0.830326 0.142438
H18   H     H_    0.452053 0.672618 0.748068 0.142816
C39   C     C_R   0.288559 0.170350 0.140106 -0.246571
C40   C     C_R   0.456170 0.135325 0.131078 -0.147144
C41   C     C_R   0.604488 0.147228 0.169816 -0.259137
C42   C     C_R   0.583943 0.192403 0.217555 0.153750
C43   C     C_R   0.415455 0.227260 0.226059 0.027009
C44   C     C_R   0.268103 0.216458 0.186934 0.148274
C45   C     C_R   0.727952 0.203030 0.257277 -0.204759
C46   C     C_R   0.707170 0.248339 0.304437 -0.223286
C47   C     C_R   0.541305 0.283674 0.312977 0.148019
C48   C     C_R   0.393956 0.272876 0.273850 0.026995
C49   C     C_R   0.225463 0.307731 0.282357 0.154215
C50   C     C_R   0.081461 0.297106 0.242633 -0.205495
C51   C     C_R   0.102243 0.251796 0.195472 -0.223811
C52   C     C_R   0.520831 0.329770 0.359811 -0.246787
C53   C     C_R   0.353204 0.364786 0.368846 -0.146673
C54   C     C_R   0.204899 0.352895 0.330105 -0.259891
H19   H     H_    0.173650 0.161817 0.110464 0.141686
H20   H     H_    0.733317 0.120304 0.163490 0.136039
H21   H     H_    0.857636 0.176549 0.251723 0.144163
H22   H     H_    0.821698 0.255972 0.334134 0.143008
H23   H     H_    0.635730 0.338294 0.389456 0.141707
H24   H     H_    0.076059 0.379815 0.336438 0.135476
H25   H     H_    0.951775 0.323586 0.248188 0.143788
H26   H     H_    0.987713 0.244162 0.165776 0.142757
C55   C     C_R   0.275732 0.115436 0.877806 -0.151676
H27   H     H_    0.143756 0.096128 0.888599 0.129597
C56   C     C_R   0.264427 0.151022 0.841674 -0.154121
H28   H     H_    0.124625 0.157494 0.825357 0.101552
C57   C     C_R   0.431469 0.176836 0.825964 0.120274
C58   C     C_R   0.610448 0.165980 0.847407 -0.150790
H29   H     H_    0.741784 0.185766 0.836804 0.099543
C59   C     C_R   0.621905 0.130177 0.883505 -0.154379
H30   H     H_    0.761979 0.122859 0.899214 0.126574
C60   C     C_R   0.454560 0.104436 0.899202 -0.131809
C61   C     C_R   0.561195 0.211992 0.748005 -0.164676
H31   H     H_    0.681742 0.182082 0.745000 0.114146
C62   C     C_R   0.547873 0.246955 0.711323 -0.165566
H32   H     H_    0.658786 0.243010 0.681178 0.112436
C63   C     C_R   0.391608 0.285543 0.712830 0.103384
C64   C     C_R   0.248973 0.288145 0.752030 -0.165686
H33   H     H_    0.128421 0.318053 0.755035 0.113282
C65   C     C_R   0.262295 0.253182 0.788711 -0.166208
H34   H     H_    0.151377 0.257128 0.818855 0.111750
C66   C     C_R   0.418539 0.214586 0.787199 0.103376
C67   C     C_R   0.199555 0.334090 0.652610 -0.150557
H35   H     H_    0.068266 0.314296 0.663233 0.099840
C68   C     C_R   0.187977 0.369873 0.616499 -0.154985
H36   H     H_    0.047861 0.377167 0.600803 0.126635
C69   C     C_R   0.355250 0.395626 0.600777 -0.131236
C70   C     C_R   0.534138 0.384653 0.622158 -0.152079
H37   H     H_    0.666061 0.403970 0.611343 0.129201
C71   C     C_R   0.545565 0.349085 0.658304 -0.155021
H38   H     H_    0.685404 0.342633 0.674609 0.101209
C72   C     C_R   0.378585 0.323266 0.674044 0.120365
O11   O     O_R   0.308350 0.060850 0.061810 -0.594998
O12   O     O_R   0.633860 0.053770 0.953650 -0.598123
O13   O     O_R   0.798960 0.939210 0.938150 -0.594677
C73   C     C_R   0.465093 0.065879 0.937136 0.922856
O14   O     O_R   0.638360 0.067800 0.062400 -0.595739
O15   O     O_R   0.803500 0.953330 0.047670 -0.595360
C74   C     C_R   0.469497 0.084910 0.082326 0.950544
O16   O     O_R   0.303810 0.046730 0.952290 -0.596998
O17   O     O_3   0.468430 0.962490 0.995010 -0.274180
V3    V     V_3+5 0.745300 0.006960 0.000930 1.143021
O18   O     O_R   0.132880 0.946160 0.046390 -0.595961
C75   C     C_R   0.963534 0.934008 0.062776 0.920692
O19   O     O_R   0.128380 0.932130 0.937650 -0.598260
C76   C     C_R   0.958608 0.915404 0.917564 0.951480
V4    V     V_3+5 0.244670 0.992930 0.999140 1.143571
O20   O     O_3   0.971670 0.037510 0.005000 -0.274803
C77   C     C_2   0.235721 0.701386 0.355855 0.935208
O21   O     O_2   0.291467 0.710101 0.313561 -0.661465
O22   O     O_R   0.353036 0.718143 0.401504 -0.804774
H39   H     H_    0.477757 0.738101 0.394685 0.329389
H40   H     H_    0.148391 0.662625 0.613117 0.144150

loop_
_geom_bond_atom_site_label_1
_geom_bond_atom_site_label_2
_geom_bond_distance
_ccdc_geom_bond_type
C32   C33   1.410919 A    
O18   V4    1.983620 S    
C55   H27   1.082914 S    
C11   C12   1.401470 A    
C19   C20   1.406091 A    
C2    C69   1.488903 S    
C56   H28   1.082719 S    
C1    O6    1.294223 A    
C57   C58   1.408295 A    
O19   C76   1.300052 A    
C18   C19   1.401900 A    
C7    C16   1.487143 S    
C47   C48   1.409618 A    
C33   C34   1.403723 A    
C62   C63   1.407667 A    
C17   H9    1.081393 S    
C52   H23   1.084360 S    
C54   H24   1.084226 S    
C23   H12   1.084354 S    
O17   V4    1.703376 S    
C5    C10   1.408587 A    
C7    C8    1.405827 A    
C6    C7    1.404286 A    
C9    C10   1.407414 A    
C42   C45   1.403548 A    
O5    C3    1.295240 A    
C49   C54   1.409315 A    
C30   H14   1.083636 S    
C73   O16   1.296809 A    
V3    O20   1.707827 S    
V2    O10   2.153595 S    
C64   H33   1.082687 S    
O12   V3    1.990243 S    
C15   H8    1.083057 S    
C43   C44   1.409622 A    
C70   H37   1.082915 S    
C65   H34   1.082688 S    
C51   H26   1.083657 S    
O8    V2    1.999137 S    
C38   H16   1.084367 S    
C67   C72   1.408286 A    
C24   C25   1.408464 A    
C68   C69   1.407029 A    
C43   C48   1.416331 A    
C40   C41   1.407777 A    
O1    V2    1.984065 S    
O7    V1    2.157480 S    
C46   H22   1.083657 S    
C36   C37   1.407468 A    
C55   C56   1.398385 A    
O9    C4    1.301113 A    
O11   C74   1.294231 A    
C20   C21   1.410091 A    
C34   H17   1.083678 S    
C3    C24   1.483593 S    
O15   V3    1.987240 S    
C71   C72   1.406300 A    
C5    H1    1.083116 S    
C70   C71   1.398422 A    
C31   C36   1.405658 A    
C8    H3    1.083280 S    
C9    H4    1.083128 S    
C18   H10   1.083219 S    
O4    C2    1.301756 A    
C57   C66   1.493032 S    
C48   C49   1.413549 A    
C42   C43   1.413542 A    
C30   C31   1.403431 A    
C23   C28   1.405636 A    
C52   C53   1.410810 A    
C40   C74   1.489009 S    
C25   H40   1.084370 S    
C61   C66   1.406678 A    
C14   C15   1.402210 A    
O2    C1    1.303832 A    
C45   C46   1.400922 A    
O14   C74   1.303813 A    
C12   H6    1.082920 S    
C10   C75   1.489171 S    
O15   C75   1.296729 A    
C41   H20   1.084225 S    
C53   C54   1.407780 A    
C63   C64   1.406670 A    
C26   C29   1.403727 A    
C59   C60   1.407036 A    
C27   C28   1.412162 A    
C39   C44   1.404938 A    
C61   C62   1.399971 A    
C28   C35   1.403424 A    
C23   C24   1.407460 A    
C29   C30   1.399869 A    
C46   C47   1.404576 A    
O14   V3    1.987421 S    
O3    C4    1.296254 A    
C4    C19   1.488626 S    
O13   C76   1.295267 A    
C35   H18   1.083636 S    
C25   C26   1.404147 A    
C26   C27   1.410920 A    
C21   C77   1.486421 S    
C58   C59   1.401578 A    
O9    V2    1.983552 S    
O18   C75   1.301083 A    
C8    C9    1.402615 A    
C20   H11   1.083868 S    
C44   C51   1.404588 A    
C17   C22   1.407048 A    
O17   V3    2.157419 S    
O2    V1    1.987379 S    
C11   H5    1.083069 S    
C39   H19   1.084356 S    
C71   H38   1.082718 S    
O12   C73   1.301804 A    
C67   H35   1.082713 S    
V4    O20   2.153570 S    
C45   H21   1.083603 S    
O19   V4    1.998992 S    
C37   C76   1.483600 S    
C31   C32   1.412163 A    
O1    C2    1.296809 A    
C13   C14   1.406788 A    
C21   C22   1.423846 A    
C50   C51   1.400947 A    
C60   C73   1.488906 S    
C29   H13   1.083678 S    
C55   C60   1.407803 A    
O5    V1    1.989674 S    
C77   O21   1.222727 D    
C56   C57   1.406290 A    
C11   C16   1.404648 A    
O6    V2    1.996036 S    
C62   H32   1.082688 S    
O11   V4    1.996785 S    
C27   C32   1.413996 A    
C14   H7    1.082948 S    
C6    H2    1.083329 S    
O7    V2    1.705271 S    
C41   C42   1.409282 A    
C17   C18   1.399166 A    
O3    V1    1.987419 S    
V1    O10   1.707834 S    
O22   H39   1.013930 S    
C36   H15   1.084353 S    
C77   O22   1.398820 S    
O13   V3    1.989780 S    
C34   C35   1.399854 A    
C1    C53   1.488985 S    
C47   C52   1.404900 A    
C50   H25   1.083603 S    
C59   H30   1.082855 S    
C5    C6    1.401375 A    
C64   C65   1.399939 A    
C15   C16   1.405211 A    
C39   C40   1.410826 A    
C65   C66   1.407659 A    
C49   C50   1.403556 A    
O4    V1    1.990152 S    
C12   C13   1.407538 A    
C58   H29   1.082714 S    
C13   C22   1.496477 S    
C61   H31   1.082687 S    
C33   C38   1.404136 A    
C37   C38   1.408454 A    
C63   C72   1.493033 S    
C69   C70   1.407809 A    
O16   V4    1.989869 S    
C68   H36   1.082856 S    
O8    C3    1.300018 A    
C67   C68   1.401542 A    
