data_mof_unit_32659.cif
_audit_creation_date              2012-12-11T14:43:58-0500
_audit_creation_method            fapswitch 2.2
_symmetry_space_group_name_H-M    P1
_symmetry_Int_Tables_number       1
_space_group_crystal_system       triclinic
_cell_length_a                    18.952806
_cell_length_b                    10.901894
_cell_length_c                    18.869853
_cell_angle_alpha                 90.072813
_cell_angle_beta                  90.02178
_cell_angle_gamma                 90.310804
_cell_volume                      3898.85618773

loop_
_atom_site_label
_atom_site_type_symbol
_atom_type_description
_atom_site_fract_x
_atom_site_fract_y
_atom_site_fract_z
_atom_type_partial_charge
C1    C     C_R   0.729985 0.375797 0.145586 0.547975
C2    C     C_R   0.288482 0.329861 0.861373 0.565213
C3    C     C_R   0.229986 0.875799 0.145587 0.547975
C4    C     C_R   0.788481 0.829864 0.861373 0.565211
C5    C     C_R   0.525782 0.381184 0.923285 -0.095425
C6    C     C_R   0.506225 0.396616 0.069299 -0.086303
C7    C     C_R   0.025777 0.881189 0.923286 -0.095426
C8    C     C_R   0.006220 0.896615 0.069299 -0.086309
C9    C     C_R   0.030085 0.994513 0.957277 -0.137268
C10   C     C_R   0.018234 0.002549 0.029782 -0.145701
C11   C     C_R   0.530096 0.494509 0.957275 -0.137254
C12   C     C_R   0.518245 0.502548 0.029780 -0.145689
C13   C     C_R   0.700084 0.847885 0.039581 -0.015374
C14   C     C_R   0.294837 0.845020 0.959750 -0.020400
C15   C     C_R   0.200089 0.347870 0.039584 -0.015366
C16   C     C_R   0.794818 0.344995 0.959743 -0.020417
C17   C     C_R   0.711895 0.822928 0.968052 -0.112702
C18   C     C_R   0.292584 0.833970 0.033492 -0.113776
C19   C     C_R   0.211900 0.322908 0.968055 -0.112693
C20   C     C_R   0.792567 0.333939 0.033486 -0.113778
C21   C     C_R   0.776986 0.849785 0.936795 0.013253
C22   C     C_R   0.248292 0.909898 0.073874 0.015652
C23   C     C_R   0.276988 0.349779 0.936796 0.013251
C24   C     C_R   0.748292 0.409890 0.073872 0.015657
C25   C     C_R   0.832137 0.895776 0.978025 -0.144807
C26   C     C_R   0.207971 0.999485 0.041168 -0.127022
C27   C     C_R   0.332137 0.395781 0.978024 -0.144791
C28   C     C_R   0.707983 0.499502 0.041172 -0.127025
C29   C     C_R   0.821184 0.923254 0.048587 -0.149307
C30   C     C_R   0.208296 0.009174 0.968896 -0.129974
C31   C     C_R   0.321186 0.423259 0.048586 -0.149294
C32   C     C_R   0.708308 0.509198 0.968900 -0.129966
C33   C     C_R   0.754581 0.905659 0.079568 0.038313
C34   C     C_R   0.251885 0.934519 0.927182 0.045172
C35   C     C_R   0.254584 0.405657 0.079569 0.038314
C36   C     C_R   0.751883 0.434522 0.927181 0.045176
C37   C     C_R   0.473401 0.063434 0.455051 -0.136584
C38   C     C_R   0.464358 0.059709 0.527341 -0.125698
C39   C     C_R   0.973390 0.563444 0.455048 -0.136580
C40   C     C_R   0.964345 0.559718 0.527338 -0.125691
C41   C     C_R   0.481205 0.162360 0.569353 0.034149
C42   C     C_R   0.501418 0.168608 0.423518 0.029031
C43   C     C_R   0.981204 0.662360 0.569353 0.034145
C44   C     C_R   0.001420 0.668610 0.423519 0.029029
C45   C     C_R   0.530717 0.156144 0.147075 0.540744
C46   C     C_R   0.468001 0.155092 0.853839 0.534362
C47   C     C_R   0.030717 0.656144 0.147075 0.540745
C48   C     C_R   0.968001 0.655092 0.853839 0.534364
C49   C     C_R   0.503821 0.271386 0.537441 -0.146405
C50   C     C_R   0.514346 0.274391 0.464484 -0.136612
C51   C     C_R   0.003833 0.771379 0.537444 -0.146425
C52   C     C_R   0.014359 0.774386 0.464487 -0.136620
C53   C     C_R   0.816375 0.936629 0.457307 -0.137128
C54   C     C_R   0.210966 0.024277 0.527078 -0.127396
C55   C     C_R   0.316373 0.436680 0.457313 -0.137115
C56   C     C_R   0.710989 0.524316 0.527072 -0.127389
C57   C     C_R   0.821605 0.926956 0.529723 -0.127496
C58   C     C_R   0.209793 0.011019 0.454605 -0.136769
C59   C     C_R   0.321599 0.427017 0.529730 -0.127497
C60   C     C_R   0.709813 0.511047 0.454599 -0.136769
C61   C     C_R   0.761913 0.897404 0.570644 0.033085
C62   C     C_R   0.249689 0.918949 0.422752 0.029567
C63   C     C_R   0.261911 0.397411 0.570645 0.033090
C64   C     C_R   0.749692 0.418946 0.422751 0.029562
C65   C     C_R   0.697390 0.872234 0.537671 -0.146497
C66   C     C_R   0.295819 0.847273 0.463674 -0.137612
C67   C     C_R   0.197397 0.372187 0.537664 -0.146470
C68   C     C_R   0.795806 0.347246 0.463678 -0.137616
C69   C     C_R   0.691779 0.884303 0.464621 -0.136900
C70   C     C_R   0.298007 0.862314 0.536733 -0.146536
C71   C     C_R   0.191790 0.384253 0.464614 -0.136892
C72   C     C_R   0.797994 0.362293 0.536737 -0.146551
C73   C     C_R   0.750937 0.920789 0.424636 0.029931
C74   C     C_R   0.253838 0.948343 0.568824 0.034521
C75   C     C_R   0.250942 0.420787 0.424635 0.029937
C76   C     C_R   0.753841 0.448353 0.568822 0.034517
C77   C     C_R   0.741592 0.967050 0.147671 0.547076
C78   C     C_R   0.258903 0.970385 0.853198 0.538787
C79   C     C_R   0.241592 0.467050 0.147671 0.547079
C80   C     C_R   0.758903 0.470386 0.853198 0.538779
C81   C     C_R   0.730207 0.379086 0.352139 0.546917
C82   C     C_R   0.272477 0.373679 0.645376 0.557481
C83   C     C_R   0.230207 0.879087 0.352139 0.546918
C84   C     C_R   0.772478 0.873677 0.645375 0.557475
C85   C     C_R   0.531710 0.157624 0.353227 0.547713
C86   C     C_R   0.464114 0.156551 0.644235 0.550859
C87   C     C_R   0.031710 0.657624 0.353228 0.547715
C88   C     C_R   0.964114 0.656551 0.644235 0.550855
C89   C     C_R   0.741458 0.969904 0.354053 0.547801
C90   C     C_R   0.259801 0.976585 0.643584 0.549477
C91   C     C_R   0.241458 0.469902 0.354053 0.547804
C92   C     C_R   0.759802 0.476588 0.643583 0.549472
C93   C     C_R   0.492625 0.161297 0.927461 0.003220
C94   C     C_R   0.499920 0.168266 0.075985 0.000109
C95   C     C_R   0.992628 0.661297 0.927460 0.003219
C96   C     C_R   0.999922 0.668264 0.075984 0.000111
C97   C     C_R   0.508297 0.273849 0.961619 0.015204
C98   C     C_R   0.505010 0.279655 0.036626 0.033566
C99   C     C_R   0.008296 0.773850 0.961619 0.015206
C100  C     C_R   0.005009 0.779655 0.036625 0.033567
C101  C     C_R   0.484293 0.058958 0.040871 -0.163446
C102  C     C_R   0.481469 0.055193 0.968243 -0.144500
C103  C     C_R   0.984300 0.558954 0.040869 -0.163440
C104  C     C_R   0.981477 0.555191 0.968240 -0.144499
Cr1   Cr    Cr6+3 0.772000 0.169640 0.250110 1.007305
Cr2   Cr    Cr6+3 0.228000 0.169640 0.749890 1.006318
Cr3   Cr    Cr6+3 0.272000 0.669640 0.250110 1.007305
Cr4   Cr    Cr6+3 0.728000 0.669640 0.749890 1.006315
Cr5   Cr    Cr6+3 0.614960 0.323350 0.249260 1.005713
Cr6   Cr    Cr6+3 0.385040 0.323350 0.750740 1.002823
Cr7   Cr    Cr6+3 0.114960 0.823350 0.249260 1.005710
Cr8   Cr    Cr6+3 0.885040 0.823350 0.750740 1.002820
Cr9   Cr    Cr6+3 0.616670 0.010620 0.250840 1.003197
Cr10  Cr    Cr6+3 0.383330 0.010620 0.749160 1.003695
Cr11  Cr    Cr6+3 0.116670 0.510620 0.250840 1.003204
Cr12  Cr    Cr6+3 0.883330 0.510620 0.749160 1.003702
H1    H     H_    0.477318 0.973681 0.069549 0.129101
H2    H     H_    0.468294 0.967715 0.944292 0.141434
H3    H     H_    0.977329 0.473676 0.069546 0.129102
H4    H     H_    0.968306 0.467711 0.944289 0.141438
H5    H     H_    0.862787 0.963385 0.427425 0.127116
H6    H     H_    0.178610 0.095484 0.550180 0.136781
H7    H     H_    0.362783 0.463473 0.427437 0.127119
H8    H     H_    0.678648 0.595549 0.550171 0.136795
H9    H     H_    0.873069 0.941422 0.553395 0.137367
H10   H     H_    0.174476 0.068145 0.423989 0.126732
H11   H     H_    0.373057 0.441530 0.553405 0.137353
H12   H     H_    0.674510 0.568191 0.423978 0.126732
H13   H     H_    0.651561 0.845103 0.568277 0.120358
H14   H     H_    0.327029 0.775115 0.439952 0.134754
H15   H     H_    0.151573 0.345015 0.568266 0.120357
H16   H     H_    0.827001 0.275064 0.439961 0.134777
H17   H     H_    0.640510 0.871799 0.440189 0.134322
H18   H     H_    0.333165 0.806118 0.568049 0.120303
H19   H     H_    0.140527 0.371705 0.440176 0.134302
H20   H     H_    0.833137 0.306074 0.568057 0.120310
H21   H     H_    0.536327 0.378718 0.867011 0.136243
H22   H     H_    0.494284 0.408825 0.124801 0.130204
H23   H     H_    0.036322 0.878725 0.867012 0.136245
H24   H     H_    0.994279 0.908821 0.124802 0.130204
H25   H     H_    0.041354 0.076632 0.927047 0.106272
H26   H     H_    0.018539 0.091064 0.055727 0.099680
H27   H     H_    0.541369 0.576625 0.927045 0.106275
H28   H     H_    0.518554 0.591063 0.055725 0.099677
H29   H     H_    0.669094 0.787036 0.936017 0.125599
H30   H     H_    0.322545 0.761971 0.058951 0.134929
H31   H     H_    0.169102 0.287002 0.936022 0.125598
H32   H     H_    0.822517 0.261921 0.058940 0.134937
H33   H     H_    0.882946 0.915672 0.954755 0.151497
H34   H     H_    0.172739 0.057615 0.071174 0.137490
H35   H     H_    0.382945 0.415685 0.954754 0.151495
H36   H     H_    0.672764 0.557648 0.071182 0.137478
H37   H     H_    0.864037 0.965564 0.077764 0.132878
H38   H     H_    0.174581 0.077875 0.945885 0.132564
H39   H     H_    0.364037 0.465576 0.077762 0.132876
H40   H     H_    0.674602 0.577917 0.945892 0.132561
H41   H     H_    0.462249 0.981436 0.424399 0.126931
H42   H     H_    0.443595 0.975838 0.550141 0.137983
H43   H     H_    0.962230 0.481453 0.424394 0.126934
H44   H     H_    0.943570 0.475854 0.550137 0.137993
H45   H     H_    0.514611 0.352577 0.568860 0.118973
H46   H     H_    0.536295 0.356749 0.440956 0.134263
H47   H     H_    0.014633 0.852564 0.568865 0.118972
H48   H     H_    0.036318 0.856737 0.440962 0.134269
O1    O     O_R   0.787540 0.042690 0.170470 -0.531589
O2    O     O_R   0.212460 0.042690 0.829530 -0.539168
O3    O     O_R   0.287540 0.542690 0.170470 -0.531586
O4    O     O_R   0.712460 0.542690 0.829530 -0.539166
O5    O     O_R   0.556540 0.252920 0.323970 -0.507967
O6    O     O_R   0.443460 0.252920 0.676030 -0.507391
O7    O     O_R   0.056540 0.752920 0.323970 -0.507971
O8    O     O_R   0.943460 0.752920 0.676030 -0.507397
O9    O     O_R   0.545870 0.051100 0.330840 -0.524983
O10   O     O_R   0.454130 0.051100 0.669160 -0.523952
O11   O     O_R   0.045870 0.551100 0.330840 -0.524974
O12   O     O_R   0.954130 0.551100 0.669160 -0.523947
O13   O     O_R   0.681340 0.959300 0.325510 -0.507228
O14   O     O_R   0.318660 0.959300 0.674490 -0.505422
O15   O     O_R   0.181340 0.459300 0.325510 -0.507223
O16   O     O_R   0.818660 0.459300 0.674490 -0.505425
O17   O     O_3   0.667880 0.167870 0.250070 -0.235385
O18   O     O_3   0.332120 0.167870 0.749930 -0.264600
O19   O     O_3   0.167880 0.667870 0.250070 -0.235383
O20   O     O_3   0.832120 0.667870 0.749930 -0.264602
O21   O     O_R   0.765660 0.292160 0.175050 -0.509126
O22   O     O_R   0.234340 0.292160 0.824950 -0.506029
O23   O     O_R   0.265660 0.792160 0.175050 -0.509123
O24   O     O_R   0.734340 0.792160 0.824950 -0.506032
O25   O     O_R   0.670190 0.408980 0.168550 -0.521821
O26   O     O_R   0.329810 0.408980 0.831450 -0.518478
O27   O     O_R   0.170190 0.908980 0.168550 -0.521825
O28   O     O_R   0.829810 0.908980 0.831450 -0.518478
O29   O     O_R   0.556580 0.251450 0.175160 -0.507890
O30   O     O_R   0.443420 0.251450 0.824840 -0.526056
O31   O     O_R   0.056580 0.751450 0.175160 -0.507889
O32   O     O_R   0.943420 0.751450 0.824840 -0.526056
O33   O     O_R   0.545920 0.049510 0.170320 -0.532979
O34   O     O_R   0.454080 0.049510 0.829680 -0.522233
O35   O     O_R   0.045920 0.549510 0.170320 -0.532977
O36   O     O_R   0.954080 0.549510 0.829680 -0.522223
O37   O     O_R   0.681390 0.957840 0.176710 -0.506673
O38   O     O_R   0.318610 0.957840 0.823290 -0.504711
O39   O     O_R   0.181390 0.457840 0.176710 -0.506673
O40   O     O_R   0.818610 0.457840 0.823290 -0.504703
O41   O     O_R   0.787500 0.044280 0.330990 -0.526658
O42   O     O_R   0.212500 0.044280 0.669010 -0.526500
O43   O     O_R   0.287500 0.544280 0.330990 -0.526662
O44   O     O_R   0.712500 0.544280 0.669010 -0.526495
O45   O     O_R   0.765610 0.293630 0.323860 -0.506341
O46   O     O_R   0.234390 0.293630 0.676140 -0.500535
O47   O     O_R   0.265610 0.793630 0.323860 -0.506337
O48   O     O_R   0.734390 0.793630 0.676140 -0.500539
O49   O     O_R   0.670140 0.410570 0.329080 -0.527021
O50   O     O_R   0.329860 0.410570 0.670920 -0.524198
O51   O     O_R   0.170140 0.910570 0.329080 -0.527030
O52   O     O_R   0.829860 0.910570 0.670920 -0.524196
C105  C     C_3   0.628370 0.817208 0.069293 -0.385145
H49   H     H_    0.633748 0.762422 0.118529 0.138127
H50   H     H_    0.599204 0.902730 0.079864 0.184185
H51   H     H_    0.596226 0.762479 0.031427 0.087489
C106  C     C_3   0.340025 0.757608 0.917770 -0.379863
H52   H     H_    0.308254 0.714506 0.874906 0.155722
H53   H     H_    0.385836 0.806876 0.894597 0.150732
H54   H     H_    0.361060 0.682811 0.951555 0.119253
C107  C     C_3   0.128377 0.317183 0.069298 -0.385147
H55   H     H_    0.133760 0.262400 0.118535 0.138126
H56   H     H_    0.099206 0.402700 0.079870 0.184177
H57   H     H_    0.096236 0.262448 0.031435 0.087489
C108  C     C_3   0.839986 0.257565 0.917755 -0.379838
H58   H     H_    0.808213 0.214546 0.874861 0.155714
H59   H     H_    0.885825 0.306808 0.894616 0.150696
H60   H     H_    0.860972 0.182698 0.951525 0.119304

loop_
_geom_bond_atom_site_label_1
_geom_bond_atom_site_label_2
_ccdc_geom_bond_type
C58   C62   A    
Cr9   O13   S    
C62   C83   S    
C90   O14   A    
Cr7   O27   S    
C101  C102  A    
C88   O8    A    
C48   C95   S    
C55   C59   A    
C50   H46   S    
C4    O28   A    
C14   C106  S    
C17   H29   S    
C72   C76   A    
C33   C77   S    
C97   C98   A    
Cr8   O20   S    
C71   C75   A    
C66   C70   A    
C105  H51   S    
C15   C19   A    
C41   C86   S    
C37   C38   A    
C57   C61   A    
C7    C99   A    
C48   O36   A    
C56   C76   A    
C43   C88   S    
C56   H8    S    
C47   O31   A    
C69   C73   A    
Cr6   O50   S    
Cr7   O51   S    
C5    C11   A    
C106  H54   S    
Cr5   O49   S    
C64   C68   A    
C71   H19   S    
C84   O48   A    
Cr12  O36   S    
C95   C99   A    
C46   O34   A    
Cr3   O47   S    
C94   C98   A    
C59   H11   S    
Cr2   O46   S    
Cr3   O23   S    
C16   C108  S    
C107  H57   S    
Cr1   O45   S    
C25   H33   S    
C10   H26   S    
C37   H41   S    
C37   C42   A    
C68   H16   S    
C14   C18   A    
C53   C73   A    
Cr8   O32   S    
Cr11  O11   S    
C92   O16   A    
Cr12  O40   S    
C54   C74   A    
Cr9   O33   S    
C84   O52   A    
C40   C43   A    
C89   O41   A    
C20   C24   A    
C29   C33   A    
Cr5   O25   S    
Cr10  O14   S    
C91   O15   A    
C70   C74   A    
C85   O9    A    
Cr4   O44   S    
Cr10  O38   S    
C51   H47   S    
Cr9   O37   S    
C44   C87   S    
C66   H14   S    
C9    C10   A    
C34   C78   S    
Cr3   O43   S    
C102  H2    S    
C75   C91   S    
C55   C75   A    
C44   C52   A    
Cr4   O24   S    
C54   H6    S    
C14   C34   A    
C82   O50   A    
C48   O32   A    
C25   C29   A    
C79   O3    A    
C47   O35   A    
C106  H53   S    
C45   C94   S    
C6    C12   A    
C41   C49   A    
Cr4   O48   S    
C108  H58   S    
Cr5   O5    S    
C60   C64   A    
C46   O30   A    
Cr3   O3    S    
C23   C27   A    
C83   O47   A    
C45   O29   A    
C81   O49   A    
C78   O2    A    
C30   C34   A    
C63   C82   S    
C27   C31   A    
C51   C52   A    
C6    C98   A    
C24   C28   A    
Cr6   O30   S    
C28   C32   A    
C62   C66   A    
Cr2   O22   S    
C38   C41   A    
C36   C80   S    
C47   C96   S    
C39   C40   A    
C53   C57   A    
C82   O46   A    
C78   O38   A    
C105  H49   S    
Cr10  O18   S    
Cr11  O35   S    
Cr6   O26   S    
C19   H31   S    
C12   H28   S    
Cr11  O39   S    
C68   C72   A    
C86   O10   A    
C6    H22   S    
C32   H40   S    
C19   C23   A    
C17   C21   A    
C2    O22   A    
C63   C67   A    
C13   C33   A    
C106  H52   S    
C92   O44   A    
C3    O27   A    
C65   H13   S    
Cr8   O28   S    
C72   H20   S    
C93   C97   A    
C83   O51   A    
C99   C100  A    
C60   H12   S    
C16   C20   A    
C26   H34   S    
C87   O7    A    
Cr7   O19   S    
C107  H55   S    
C42   C85   S    
Cr5   O29   S    
C38   H42   S    
C45   O33   A    
C67   H15   S    
C76   C92   S    
Cr6   O6    S    
Cr12  O12   S    
C94   C101  A    
C42   C50   A    
C26   C30   A    
C30   H38   S    
C89   O13   A    
Cr12  O16   S    
C22   C26   A    
C49   C50   A    
C31   C35   A    
C31   H39   S    
C15   C107  S    
Cr9   O17   S    
C55   H7    S    
Cr2   O2    S    
C103  C104  A    
C95   C104  A    
Cr9   O9    S    
C54   C58   A    
Cr5   O17   S    
C59   C63   A    
C52   H48   S    
C21   C25   A    
C69   H17   S    
C39   H43   S    
C86   O6    A    
C49   H45   S    
C40   H44   S    
C103  H3    S    
C2    O26   A    
C27   H35   S    
C18   H30   S    
C61   C84   S    
C77   O37   A    
C93   C102  A    
Cr2   O42   S    
Cr11  O19   S    
C11   C12   A    
C32   C36   A    
C58   H10   S    
C39   C44   A    
Cr1   O41   S    
C1    O21   A    
C105  H50   S    
C87   O11   A    
C96   C100  A    
Cr1   O21   S    
C88   O12   A    
C13   C17   A    
C8    H24   S    
C79   O39   A    
Cr1   O17   S    
C4    O24   A    
C28   H36   S    
C18   C22   A    
Cr4   O20   S    
C8    C100  A    
C29   H37   S    
C101  H1    S    
C5    H21   S    
C108  H59   S    
C53   H5    S    
C16   C36   A    
C57   H9    S    
C7    H23   S    
C4    C21   S    
C43   C51   A    
C20   H32   S    
Cr8   O8    S    
C46   C93   S    
C11   H27   S    
C65   C69   A    
C74   C90   S    
Cr12  O20   S    
C35   C79   S    
C91   O43   A    
C107  H56   S    
Cr1   O1    S    
C5    C97   A    
C67   C71   A    
Cr8   O52   S    
C61   C65   A    
Cr4   O4    S    
C85   O5    A    
C64   C81   S    
C15   C35   A    
C9    H25   S    
C73   C89   S    
C108  H60   S    
C7    C9    A    
Cr10  O10   S    
C56   C60   A    
C3    O23   A    
Cr6   O18   S    
C1    C24   S    
C8    C10   A    
C81   O45   A    
Cr10  O34   S    
C96   C103  A    
Cr3   O19   S    
C2    C23   S    
C70   H18   S    
C90   O42   A    
C3    C22   S    
C13   C105  S    
C80   O40   A    
C77   O1    A    
C80   O4    A    
Cr11  O15   S    
Cr2   O18   S    
Cr7   O31   S    
C104  H4    S    
Cr7   O7    S    
C1    O25   A    
