data_mof_unit_46468.cif
_audit_creation_date              2013-03-05T15:47:09-0500
_audit_creation_method            fapswitch 2.2
_symmetry_space_group_name_H-M    P1
_symmetry_Int_Tables_number       1
_space_group_crystal_system       triclinic
_cell_length_a                    10.297527
_cell_length_b                    10.88652
_cell_length_c                    14.086957
_cell_angle_alpha                 93.3487
_cell_angle_beta                  101.680285
_cell_angle_gamma                 94.229246
_cell_volume                      1537.93972785

loop_
_atom_site_label
_atom_site_type_symbol
_atom_site_description
_atom_site_fract_x
_atom_site_fract_y
_atom_site_fract_z
_atom_type_partial_charge
O1    O     O_R   0.935190 0.693030 0.507870 -0.553954
O2    O     O_R   0.064810 0.306970 0.492130 -0.560879
O3    O     O_R   0.142080 0.658430 0.482770 -0.622145
O4    O     O_R   0.857920 0.341570 0.517230 -0.628180
C1    C     C_R   0.050797 0.731092 0.492283 0.940337
C2    C     C_R   0.947601 0.268500 0.504647 0.915761
O5    O     O_R   0.969700 0.527180 0.651960 -0.594250
O6    O     O_R   0.030300 0.472820 0.348040 -0.557575
O7    O     O_R   0.176600 0.492580 0.626860 -0.623686
O8    O     O_R   0.823400 0.507420 0.373140 -0.632994
C3    C     C_R   0.094542 0.513330 0.684261 0.887849
C4    C     C_R   0.905685 0.486645 0.315765 0.872964
Zn1   Zn    Zn3+2 0.861850 0.523100 0.516760 1.089925
Zn2   Zn    Zn3+2 0.138150 0.476900 0.483240 1.105386
C5    C     C_R   0.148080 0.532634 0.788373 -0.122344
C6    C     C_R   0.853726 0.467620 0.211528 -0.124461
C7    C     C_R   0.155325 0.642370 0.944206 0.481432
C8    C     C_R   0.851115 0.359251 0.055828 0.462721
C9    C     C_R   0.092895 0.612941 0.847055 -0.178988
C10   C     C_R   0.911337 0.388573 0.153423 -0.182116
C11   C     C_R   0.264246 0.480482 0.826779 -0.116731
C12   C     C_R   0.737800 0.519213 0.172140 -0.125545
C13   C     C_R   0.341696 0.525272 0.916595 0.081825
C14   C     C_R   0.663596 0.475862 0.080746 0.088709
C15   C     C_R   0.280592 0.597140 0.979863 -0.049560
C16   C     C_R   0.725937 0.403864 0.018798 -0.051684
C17   C     C_R   0.474260 0.492619 0.947651 -0.072187
C18   C     C_R   0.531270 0.507531 0.048486 -0.056733
C19   C     C_R   0.452521 0.551148 0.113502 0.383018
C20   C     C_R   0.552498 0.444201 0.883429 0.392453
C21   C     C_R   0.339406 0.610241 0.078432 -0.149360
C22   C     C_R   0.666603 0.387127 0.920544 -0.139589
H1    H     H_    0.287865 0.650321 0.130632 0.238835
H2    H     H_    0.716918 0.342427 0.869604 0.250011
H3    H     H_    0.703828 0.590591 0.215002 0.203618
H4    H     H_    0.295450 0.406983 0.784467 0.174159
H5    H     H_    0.002784 0.349616 0.184459 0.232922
H6    H     H_    0.001239 0.652027 0.817082 0.196266
H7    H     H_    0.098878 0.097990 0.467071 0.238386
H8    H     H_    0.877750 0.895833 0.484923 0.252029
C23   C     C_2   0.076845 0.860864 0.483347 -0.316763
C24   C     C_2   0.915282 0.137360 0.501656 -0.296749
C25   C     C_2   0.977639 0.932475 0.481543 -0.103001
C26   C     C_2   0.003619 0.062932 0.480829 -0.140938
H9    H     H_    0.820349 0.101619 0.516207 0.201191
H10   H     H_    0.176461 0.898140 0.479485 0.191853
H11   H     H_    0.588389 0.389501 0.480751 0.153840
H12   H     H_    0.412206 0.606188 0.526007 0.179081
N1    N     N_2   0.322180 0.446120 0.460900 0.041592
N2    N     N_2   0.677820 0.553880 0.539100 0.033718
C27   C     C_2   0.429638 0.516245 0.498573 0.101605
C28   C     C_2   0.570950 0.481057 0.504733 0.143761
S1    S     S_3+6 0.074949 0.736617 0.017409 0.047490
O9    O     O_2   0.956498 0.787413 0.956502 -0.238981
O10   O     O_2   0.029368 0.660539 0.092138 -0.315742
O11   O     O_3   0.182897 0.854501 0.073966 -0.520140
H13   H     H_    0.134328 0.898598 0.117465 0.403679
S2    S     S_3+6 0.933592 0.265090 0.984056 0.050854
O12   O     O_2   0.059081 0.225226 0.044361 -0.245007
O13   O     O_2   0.842397 0.152701 0.941002 -0.246933
O14   O     O_3   0.972402 0.345681 0.893914 -0.569845
H14   H     H_    0.010100 0.286067 0.853327 0.387115
S3    S     S_3+6 0.460240 0.495426 0.229476 0.038686
O15   O     O_2   0.528128 0.593573 0.306654 -0.340255
O16   O     O_2   0.321175 0.463931 0.243601 -0.218160
O17   O     O_3   0.542193 0.366994 0.236104 -0.498739
H15   H     H_    0.609744 0.379493 0.297414 0.379870
S4    S     S_3+6 0.538619 0.477699 0.760764 0.016935
O18   O     O_2   0.452530 0.581662 0.736461 -0.289368
O19   O     O_2   0.675318 0.514859 0.744311 -0.269489
O20   O     O_3   0.477433 0.349162 0.689002 -0.537038
H16   H     H_    0.388752 0.367313 0.653573 0.379573
S5    S     S_3+6 0.669023 0.709181 0.573361 0.172877
O21   O     O_2   0.636050 0.778372 0.483600 -0.250505
O22   O     O_2   0.567383 0.729585 0.633956 -0.226093
O23   O     O_3   0.816263 0.769619 0.640371 -0.497325
H17   H     H_    0.823655 0.732173 0.703397 0.383219
S6    S     S_3+6 0.324539 0.291877 0.421199 0.154230
O24   O     O_2   0.434837 0.268901 0.369535 -0.254309
O25   O     O_2   0.336701 0.213755 0.506433 -0.304211
O26   O     O_3   0.180389 0.247335 0.342693 -0.499866
H18   H     H_    0.189526 0.161635 0.318843 0.372640

loop_
_geom_bond_atom_site_label_1
_geom_bond_atom_site_label_2
_geom_bond_distance
_ccdc_geom_bond_type
C15   C21   1.392405 A    
S3    O16   1.502915 D    
C16   C22   1.390660 A    
S5    O22   1.499102 D    
S5    O21   1.502229 D    
C8    C16   1.421008 A    
O7    Zn2   1.975971 S    
C19   S3    1.764557 S    
O26   H18   0.990601 S    
C11   H4    1.076347 S    
S1    O9    1.503635 D    
O11   H13   0.990561 S    
C5    C9    1.396305 A    
C12   H3    1.077766 S    
O1    C1    1.296466 A    
C18   C19   1.424291 A    
C14   C16   1.417442 A    
S6    O25   1.501586 D    
Zn2   N1    2.031099 S    
S2    O13   1.503311 D    
N1    S6    1.742058 S    
O4    Zn1   1.974083 S    
C3    C5    1.455541 S    
C8    S2    1.774645 S    
H8    C25   1.086726 S    
C4    C6    1.454418 S    
S4    O18   1.501473 D    
N1    C27   1.295841 D    
N2    C28   1.297973 D    
C23   H10   1.087972 S    
C21   H1    1.080504 S    
C13   C17   1.424476 A    
C6    C10   1.397181 A    
S2    O14   1.681039 S    
O17   H15   0.988617 S    
S3    O17   1.683199 S    
C17   C20   1.430886 A    
C23   C25   1.327146 D    
O2    C2    1.297494 A    
C24   C26   1.326298 D    
S1    O10   1.503020 D    
H12   C27   1.072459 S    
C27   C28   1.518797 S    
O23   H17   0.989807 S    
O4    C2    1.294294 A    
N2    S5    1.744857 S    
S6    O24   1.495869 D    
O6    Zn2   1.997278 S    
S2    O12   1.503716 D    
S3    O15   1.502918 D    
C24   H9    1.087855 S    
C22   H2    1.080333 S    
O5    C3    1.297000 A    
C25   C26   1.426672 S    
C9    H6    1.081209 S    
C5    C11   1.385644 A    
O6    C4    1.294715 A    
O7    C3    1.304745 A    
H7    C26   1.084371 S    
O3    Zn2   1.974083 S    
O8    C4    1.306359 A    
C11   C13   1.391644 A    
S5    O23   1.680372 S    
C12   C14   1.393425 A    
O1    Zn1   1.966632 S    
C7    S1    1.774364 S    
S1    O11   1.681944 S    
C1    C23   1.436052 S    
C6    C12   1.384012 A    
C14   C18   1.420921 A    
O3    C1    1.294442 A    
O8    Zn1   1.975970 S    
H11   C28   1.073070 S    
C7    C15   1.420891 A    
O20   H16   0.987756 S    
C19   C21   1.389013 A    
C20   C22   1.391738 A    
C10   H5    1.082425 S    
S6    O26   1.681700 S    
S4    O20   1.680418 S    
C7    C9    1.396800 A    
C8    C10   1.396742 A    
C13   C15   1.421482 A    
O14   H14   0.991195 S    
O2    Zn2   1.966632 S    
Zn1   N2    2.031099 S    
O5    Zn1   1.997278 S    
S4    O19   1.502646 D    
C2    C24   1.438041 S    
C17   C18   1.417758 A    
C20   S4    1.766533 S    
