data_mof_unit_29221.cif
_audit_creation_date              2013-03-05T16:32:04-0500
_audit_creation_method            fapswitch 2.2
_symmetry_space_group_name_H-M    P1
_symmetry_Int_Tables_number       1
_space_group_crystal_system       triclinic
_cell_length_a                    15.030753
_cell_length_b                    14.364032
_cell_length_c                    14.113671
_cell_angle_alpha                 90.060041
_cell_angle_beta                  91.580007
_cell_angle_gamma                 90.111961
_cell_volume                      3046.00665072

loop_
_atom_site_label
_atom_site_type_symbol
_atom_site_description
_atom_site_fract_x
_atom_site_fract_y
_atom_site_fract_z
_atom_type_partial_charge
O1    O     O_R   0.369060 0.579480 0.500010 -0.577155
O2    O     O_R   0.630940 0.420520 0.499990 -0.578724
O3    O     O_R   0.630940 0.579480 0.499990 -0.576238
O4    O     O_R   0.369060 0.420520 0.500010 -0.576659
C1    C     C_R   0.327879 0.499818 0.504150 0.996093
C2    C     C_R   0.672318 0.499908 0.499670 1.003779
O5    O     O_R   0.500000 0.579500 0.373720 -0.608285
O6    O     O_R   0.500000 0.420500 0.626280 -0.602151
O7    O     O_R   0.500000 0.579500 0.626280 -0.607015
O8    O     O_R   0.500000 0.420500 0.373720 -0.602602
C3    C     C_R   0.500171 0.500021 0.329430 0.873748
C4    C     C_R   0.500074 0.500092 0.670581 0.872251
Zn1   Zn    Zn3+2 0.500000 0.606140 0.500000 0.950100
Zn2   Zn    Zn3+2 0.500000 0.393860 0.500000 0.954482
C5    C     C_R   0.523444 0.104376 0.418716 0.395529
C6    C     C_R   0.543217 0.896207 0.572847 0.392653
C7    C     C_R   0.476647 0.103775 0.580024 0.394872
C8    C     C_R   0.458722 0.895634 0.425723 0.397734
C9    C     C_R   0.511153 0.202343 0.417466 -0.088482
C10   C     C_R   0.532517 0.798053 0.577082 -0.079502
C11   C     C_R   0.488144 0.201871 0.581996 -0.084965
C12   C     C_R   0.467445 0.797335 0.422749 -0.087411
N1    N     N_R   0.500000 0.252470 0.500000 -0.162670
N2    N     N_R   0.500000 0.747530 0.500000 -0.160164
C13   C     C_1   0.501263 0.500377 0.227990 -0.163790
C14   C     C_1   0.499854 0.500535 0.772048 -0.163210
C15   C     C_1   0.501824 0.501207 0.142653 -0.007404
C16   C     C_1   0.499937 0.501308 0.857404 -0.004796
C17   C     C_1   0.501445 0.501922 0.042705 -0.044154
C18   C     C_1   0.500654 0.501948 0.957370 -0.042602
C19   C     C_R   0.500379 0.052837 0.499248 -0.080171
C20   C     C_R   0.501157 0.947104 0.499043 -0.077457
C21   C     C_R   0.089503 0.574442 0.499727 0.435408
C22   C     C_R   0.908859 0.418818 0.487511 0.430528
C23   C     C_R   0.903735 0.565690 0.575196 0.452647
C24   C     C_R   0.099800 0.420235 0.572234 0.447203
C25   C     C_R   0.181581 0.579524 0.499032 0.328592
C26   C     C_R   0.816118 0.419114 0.478556 0.323757
C27   C     C_R   0.814499 0.574352 0.549569 0.343935
C28   C     C_R   0.190723 0.418681 0.555154 0.334672
C29   C     C_R   0.232184 0.499099 0.518749 -0.446499
C30   C     C_R   0.769028 0.498681 0.507153 -0.445528
C31   C     C_R   0.048685 0.495919 0.539236 -0.178227
C32   C     C_R   0.952203 0.490886 0.538441 -0.175022
O9    O     O_3   0.546968 0.059401 0.336248 -0.532088
C33   C     C_3   0.637736 0.035050 0.343573 -0.321453
H1    H     H_    0.649579 0.979753 0.397389 0.141961
H2    H     H_    0.680662 0.096508 0.359753 0.131024
H3    H     H_    0.658022 0.006731 0.274316 0.195211
O10   O     O_3   0.585329 0.941746 0.648306 -0.533972
C34   C     C_3   0.670662 0.970738 0.621288 -0.306307
H4    H     H_    0.666656 0.029375 0.570105 0.139941
H5    H     H_    0.709719 0.912469 0.591554 0.127049
H6    H     H_    0.707619 0.996321 0.685321 0.195600
O11   O     O_3   0.452448 0.058340 0.661975 -0.532008
C35   C     C_3   0.362019 0.032523 0.653282 -0.312493
H7    H     H_    0.352182 0.974733 0.601703 0.141400
H8    H     H_    0.318741 0.092547 0.633323 0.132141
H9    H     H_    0.340330 0.006885 0.723065 0.195578
O12   O     O_3   0.414941 0.940559 0.351218 -0.532157
C36   C     C_3   0.328454 0.964231 0.378979 -0.303995
H10   H     H_    0.330185 0.021404 0.432040 0.138547
H11   H     H_    0.291908 0.903089 0.406817 0.134341
H12   H     H_    0.290459 0.989878 0.315819 0.195035
C37   C     C_R   0.493684 0.243075 0.323486 0.270583
C38   C     C_R   0.562170 0.252992 0.258544 -0.077260
C39   C     C_R   0.541540 0.273820 0.163716 -0.151206
C40   C     C_R   0.452742 0.285145 0.133570 -0.094170
C41   C     C_R   0.384631 0.277448 0.198357 -0.165036
C42   C     C_R   0.404879 0.255759 0.292871 -0.114072
H13   H     H_    0.630869 0.242100 0.280734 0.134015
H14   H     H_    0.594311 0.280574 0.113560 0.125698
H15   H     H_    0.436445 0.301002 0.060323 0.123371
H16   H     H_    0.316030 0.286485 0.174937 0.124315
H17   H     H_    0.351322 0.245621 0.341506 0.097668
C43   C     C_R   0.544484 0.756713 0.671983 0.257097
C44   C     C_R   0.629899 0.745359 0.712955 -0.066331
C45   C     C_R   0.640585 0.723337 0.809014 -0.164380
C46   C     C_R   0.566185 0.715677 0.865646 -0.103265
C47   C     C_R   0.480883 0.728530 0.825955 -0.143797
C48   C     C_R   0.469963 0.749147 0.729549 -0.104065
H18   H     H_    0.688086 0.758526 0.672113 0.177681
H19   H     H_    0.706690 0.714944 0.840151 0.135167
H20   H     H_    0.574632 0.700062 0.940322 0.126149
H21   H     H_    0.423321 0.723175 0.870060 0.124659
H22   H     H_    0.403754 0.761983 0.700253 0.095847
C49   C     C_R   0.501264 0.242901 0.676581 0.270469
C50   C     C_R   0.588619 0.253949 0.712638 -0.114497
C51   C     C_R   0.604138 0.274821 0.808262 -0.159415
C52   C     C_R   0.532654 0.283422 0.868676 -0.092848
C53   C     C_R   0.445297 0.273992 0.833086 -0.156644
C54   C     C_R   0.429438 0.253726 0.737165 -0.076288
H23   H     H_    0.644607 0.242922 0.667422 0.096622
H24   H     H_    0.671622 0.282473 0.835942 0.125599
H25   H     H_    0.545258 0.298567 0.942778 0.123717
H26   H     H_    0.390006 0.281397 0.879999 0.126916
H27   H     H_    0.361788 0.243600 0.710847 0.150198
C55   C     C_R   0.447361 0.753618 0.330275 0.261989
C56   C     C_R   0.513575 0.752955 0.261903 -0.096391
C57   C     C_R   0.492292 0.728372 0.168128 -0.135835
C58   C     C_R   0.404892 0.704196 0.141973 -0.103264
C59   C     C_R   0.338731 0.704686 0.209594 -0.174850
C60   C     C_R   0.359627 0.730727 0.303056 -0.099615
H28   H     H_    0.581015 0.774032 0.280784 0.101402
H29   H     H_    0.543443 0.728488 0.115675 0.123309
H30   H     H_    0.388470 0.685309 0.069301 0.126133
H31   H     H_    0.270808 0.687283 0.189054 0.131263
H32   H     H_    0.307016 0.737282 0.352745 0.183220
O13   O     O_3   0.040142 0.649578 0.466652 -0.542036
C61   C     C_3   0.021954 0.637645 0.368907 -0.324181
H33   H     H_    0.973050 0.580580 0.356354 0.133520
H34   H     H_    0.083548 0.624887 0.328747 0.166333
H35   H     H_    0.991364 0.702553 0.340825 0.180482
O14   O     O_3   0.956447 0.346055 0.449348 -0.550945
C62   C     C_3   0.975072 0.367120 0.354408 -0.319496
H36   H     H_    0.025755 0.423287 0.350787 0.134581
H37   H     H_    0.914039 0.386206 0.312325 0.172656
H38   H     H_    0.003612 0.304289 0.321187 0.181442
O15   O     O_3   0.944811 0.638298 0.624201 -0.533772
C63   C     C_3   0.963599 0.610249 0.718253 -0.318855
H39   H     H_    0.024468 0.566675 0.721907 0.144659
H40   H     H_    0.906509 0.573357 0.750433 0.140043
H41   H     H_    0.977358 0.673341 0.761636 0.186239
O16   O     O_3   0.060424 0.342909 0.612008 -0.544502
C64   C     C_3   0.048677 0.359578 0.709233 -0.310286
H42   H     H_    0.990588 0.405699 0.719565 0.142958
H43   H     H_    0.109569 0.388848 0.745110 0.150157
H44   H     H_    0.033975 0.292289 0.744013 0.185682
O17   O     O_3   0.221014 0.661584 0.471331 -0.585677
C65   C     C_3   0.227410 0.721617 0.550529 -0.238777
H45   H     H_    0.266924 0.783680 0.531154 0.144623
H46   H     H_    0.262579 0.688008 0.611993 0.141466
H47   H     H_    0.160566 0.746040 0.571393 0.195502
O18   O     O_3   0.772141 0.346590 0.432246 -0.578786
C66   C     C_3   0.773074 0.267134 0.491223 -0.195704
H48   H     H_    0.765873 0.284318 0.567707 0.124911
H49   H     H_    0.834770 0.226278 0.481402 0.194662
H50   H     H_    0.715768 0.222220 0.470241 0.142508
O19   O     O_3   0.771305 0.656368 0.569575 -0.578151
C67   C     C_3   0.783969 0.718454 0.493532 -0.236095
H51   H     H_    0.853710 0.744449 0.493685 0.203956
H52   H     H_    0.739501 0.779074 0.502033 0.142596
H53   H     H_    0.766049 0.686391 0.423594 0.138877
O20   O     O_3   0.240273 0.341405 0.581900 -0.575229
C68   C     C_3   0.227507 0.270974 0.512890 -0.204227
H54   H     H_    0.229729 0.298342 0.439085 0.127653
H55   H     H_    0.163726 0.233674 0.523228 0.200343
H56   H     H_    0.282130 0.219594 0.521252 0.140558

loop_
_geom_bond_atom_site_label_1
_geom_bond_atom_site_label_2
_geom_bond_distance
_ccdc_geom_bond_type
C66   H50   1.108697 S    
C49   C50   1.403691 A    
C11   C49   1.466863 S    
C58   C59   1.397213 A    
C12   C55   1.471290 S    
C15   C17   1.410536 S    
C23   O15   1.385547 S    
C67   H53   1.114852 S    
O11   C35   1.410244 S    
O3    C2    1.302370 A    
C68   H54   1.115091 S    
C66   H48   1.115292 S    
O9    C33   1.410168 S    
C5    C9    1.419694 A    
C33   H3    1.109034 S    
C57   H29   1.081923 S    
C47   H21   1.082360 S    
O1    C1    1.302019 A    
C24   O16   1.384252 S    
C67   H52   1.107154 S    
C26   C30   1.409988 A    
C41   C42   1.395673 A    
C46   H20   1.081889 S    
C56   H28   1.083478 S    
C3    C13   1.432248 S    
C37   C42   1.403884 A    
C35   H7    1.110490 S    
C10   C43   1.472321 S    
C39   H14   1.081882 S    
C51   H24   1.082224 S    
C36   H11   1.112736 S    
O7    Zn1   1.823282 S    
C61   H33   1.110742 S    
C59   C60   1.397939 A    
C53   H26   1.082092 S    
C33   H1    1.110786 S    
C45   H19   1.082308 S    
C10   N2    1.384458 A    
C35   H8    1.112856 S    
C40   C41   1.395635 A    
C62   H37   1.113899 S    
C64   H44   1.109106 S    
C6    C20   1.409352 A    
C60   H32   1.075510 S    
C7    O11   1.385595 S    
C48   H22   1.083298 S    
O3    Zn1   2.005773 S    
C63   H41   1.109097 S    
O6    C4    1.302480 A    
C38   C39   1.398278 A    
C8    C12   1.418980 A    
C49   C54   1.404324 A    
C25   C29   1.408164 A    
O2    C2    1.297912 A    
C68   H55   1.110528 S    
C63   H40   1.115191 S    
C54   H27   1.082381 S    
O5    C3    1.301038 A    
C27   C30   1.407158 A    
C27   O19   1.378960 S    
C22   O14   1.384596 S    
O19   C67   1.412804 S    
C33   H2    1.112195 S    
C39   C40   1.399508 A    
C21   C31   1.406066 A    
C52   H25   1.079563 S    
C22   C32   1.408092 A    
C67   H51   1.112030 S    
O8    Zn2   1.823284 S    
C53   C54   1.398361 A    
C45   C46   1.396624 A    
C47   C48   1.398107 A    
C40   H15   1.080429 S    
C44   C45   1.397491 A    
C21   C25   1.386091 A    
C34   H4    1.110831 S    
Zn1   N2    2.030930 S    
C4    C14   1.432180 S    
O12   C36   1.410169 S    
C34   H5    1.111772 S    
Zn2   N1    2.030930 S    
C36   H12   1.109014 S    
C23   C27   1.385401 A    
C31   C32   1.451591 S    
C38   H13   1.082462 S    
C17   C18   1.204133 T    
C56   C57   1.397832 A    
C24   C28   1.394496 A    
C6    C10   1.420230 A    
C62   H38   1.109090 S    
O10   C34   1.410382 S    
C41   H16   1.082195 S    
C43   C44   1.403337 A    
C5    C19   1.408045 A    
C23   C32   1.406092 A    
C61   H35   1.109111 S    
C8    O12   1.385673 S    
C28   C29   1.415194 A    
C37   C38   1.404210 A    
C11   N1    1.382708 A    
C64   H42   1.109768 S    
C7    C19   1.408534 A    
C12   N2    1.383316 A    
C65   H47   1.112075 S    
C8    C20   1.408693 A    
C5    O9    1.385322 S    
C59   H31   1.082290 S    
C68   H56   1.109000 S    
C63   H39   1.109582 S    
C9    N1    1.383086 A    
O17   C65   1.412080 S    
C58   H30   1.082449 S    
C66   H49   1.110230 S    
C1    C29   1.458690 S    
C50   H23   1.081879 S    
O6    Zn2   1.822498 S    
C22   C26   1.396236 A    
C19   C20   1.518826 S    
C6    O10   1.386544 S    
O4    C1    1.299450 A    
C43   C48   1.405867 A    
O15   C63   1.408908 S    
O14   C62   1.409470 S    
O18   C66   1.413172 S    
C13   C15   1.204744 T    
C14   C16   1.204696 T    
C35   H9    1.109023 S    
O20   C68   1.412739 S    
C65   H46   1.114278 S    
C34   H6    1.109587 S    
C28   O20   1.384869 S    
C65   H45   1.108890 S    
O13   C61   1.409175 S    
C52   C53   1.399125 A    
C44   H18   1.077191 S    
C16   C18   1.410640 S    
C57   C58   1.397794 A    
C25   O17   1.380046 S    
C9    C37   1.467519 S    
C26   O18   1.386144 S    
O4    Zn2   2.005776 S    
C36   H10   1.110624 S    
O2    Zn2   2.004304 S    
O7    C4    1.301304 A    
C61   H34   1.114163 S    
O8    C3    1.302707 A    
C46   C47   1.397616 A    
O1    Zn1   2.004307 S    
O5    Zn1   1.822499 S    
C21   O13   1.385006 S    
C50   C51   1.395437 A    
C55   C56   1.405274 A    
C2    C30   1.454682 S    
C42   H17   1.081958 S    
C64   H43   1.115054 S    
C24   C31   1.404844 A    
C62   H36   1.110722 S    
C51   C52   1.395553 A    
C55   C60   1.401707 A    
O16   C64   1.408642 S    
C7    C11   1.419425 A    
