data_mof_unit_54971.cif
_audit_creation_date              2012-10-26T19:40:45-0400
_audit_creation_method            fapswitch 2.2
_symmetry_space_group_name_H-M    P1
_symmetry_Int_Tables_number       1
_space_group_crystal_system       triclinic
_cell_length_a                    9.681403
_cell_length_b                    10.926403
_cell_length_c                    13.434386
_cell_angle_alpha                 90.102656
_cell_angle_beta                  72.622852
_cell_angle_gamma                 90.117405
_cell_volume                      1356.26359129

loop_
_atom_site_label
_atom_site_type_symbol
_atom_type_description
_atom_site_fract_x
_atom_site_fract_y
_atom_site_fract_z
_atom_type_partial_charge
C1    C     C_R   0.502740 0.734502 0.493846 0.579715
C2    C     C_R   0.375379 0.511589 0.815042 0.006470
C3    C     C_2   0.609992 0.066487 0.503503 -0.175742
C4    C     C_R   0.422635 0.506197 0.700120 0.534358
C5    C     C_2   0.491324 0.133830 0.514629 -0.130178
C6    C     C_2   0.599485 0.933231 0.512202 -0.186950
C7    C     C_2   0.513318 0.865063 0.471431 0.007382
C8    C     C_2   0.056989 0.580009 0.550784 0.000491
C9    C     C_2   0.904258 0.585203 0.544088 -0.012388
C10   C     C_R   0.498197 0.265425 0.503774 0.561393
C11   C     C_R   0.577319 0.502152 0.299966 0.555908
C12   C     C_R   0.433040 0.524594 0.980210 0.035678
C13   C     C_R   0.782015 0.608636 0.030654 -0.099553
C14   C     C_R   0.620425 0.520702 0.186941 0.004242
C15   C     C_R   0.236984 0.467341 0.868505 -0.121565
C16   C     C_R   0.194239 0.455950 0.976154 -0.135373
C17   C     C_R   0.291276 0.481659 0.031588 -0.104949
C18   C     C_2   0.445194 0.913564 0.393346 0.219472
C19   C     C_2   0.817111 0.730325 0.825538 0.208794
C20   C     C_R   0.469366 0.550881 0.872369 0.019438
C21   C     C_R   0.539568 0.542420 0.032383 0.017524
C22   C     C_R   0.673445 0.600689 0.980177 0.065613
C23   C     C_R   0.695228 0.647892 0.878784 0.007495
C24   C     C_R   0.595230 0.619850 0.825701 -0.139935
C25   C     C_R   0.517629 0.501027 0.134771 -0.113365
C26   C     C_R   0.754806 0.570675 0.133550 -0.145281
Cu1   Cu    Cu3+1 0.361370 0.499980 0.499980 0.982698
Cu2   Cu    Cu3+1 0.638630 0.500020 0.500020 0.941634
H1    H     H_    0.837169 0.584093 0.172197 0.137864
H2    H     H_    0.250289 0.470244 0.114888 0.109554
H3    H     H_    0.086381 0.423449 0.016740 0.122416
H4    H     H_    0.714709 0.109027 0.493658 0.164783
H5    H     H_    0.662182 0.890204 0.557474 0.141597
H6    H     H_    0.478133 0.001058 0.355688 0.116403
H7    H     H_    0.855185 0.733454 0.741163 0.079894
H8    H     H_    0.612891 0.659232 0.749106 0.122252
H9    H     H_    0.385373 0.091030 0.531904 0.121407
H10   H     H_    0.088567 0.648332 0.598507 0.145417
H11   H     H_    0.126173 0.441681 0.450613 0.205511
H12   H     H_    0.838784 0.663333 0.578908 0.123184
H13   H     H_    0.905178 0.423934 0.473192 0.206065
H14   H     H_    0.888765 0.643940 0.991777 0.173393
H15   H     H_    0.420615 0.452826 0.176554 0.120273
H16   H     H_    0.162033 0.439404 0.826868 0.138905
N1    N     N_2   0.152660 0.501340 0.501130 -0.342284
N2    N     N_2   0.846520 0.501370 0.501160 -0.344807
O1    O     O_R   0.382960 0.678040 0.499980 -0.446232
O2    O     O_2   0.869939 0.801214 0.874407 -0.502141
O3    O     O_R   0.617100 0.678080 0.500020 -0.521207
O4    O     O_R   0.325800 0.499940 0.650950 -0.502203
O5    O     O_R   0.559930 0.499980 0.650990 -0.498326
O6    O     O_R   0.382900 0.321920 0.499980 -0.497374
O7    O     O_R   0.617040 0.321960 0.500020 -0.493464
O8    O     O_R   0.440070 0.500020 0.349010 -0.489279
O9    O     O_R   0.674200 0.500060 0.349050 -0.496201
O10   O     O_2   0.354008 0.854470 0.367831 -0.478423

loop_
_geom_bond_atom_site_label_1
_geom_bond_atom_site_label_2
_ccdc_geom_bond_type
C12   C17   A    
C13   C22   A    
C19   C23   S    
H13   N2    S    
Cu1   O4    S    
C6    C7    D    
C2    C15   A    
C5    H9    S    
Cu2   N2    S    
Cu2   O3    S    
C4    O4    A    
C2    C4    S    
C6    H5    S    
C18   O10   D    
H11   N1    S    
C7    C18   S    
C10   O6    A    
C12   C20   A    
C8    C9    S    
Cu1   O8    S    
C5    C10   S    
C19   H7    S    
C21   C22   A    
C14   C26   A    
Cu2   O7    S    
C17   H2    S    
C18   H6    S    
C25   H15   S    
C24   H8    S    
C11   O8    A    
C8    H10   S    
C13   H14   S    
C11   C14   S    
Cu2   O9    S    
C15   H16   S    
C14   C25   A    
C3    H4    S    
Cu2   O5    S    
C13   C26   A    
Cu1   N1    S    
C4    O5    A    
C2    C20   A    
C15   C16   A    
C20   C24   A    
C9    N2    D    
C11   O9    A    
Cu1   O6    S    
C26   H1    S    
C3    C6    S    
Cu1   O1    S    
Cu1   Cu2   S    
C10   O7    A    
C21   C25   A    
C22   C23   A    
C1    O1    A    
C23   C24   A    
C3    C5    D    
C1    C7    S    
C1    O3    A    
C12   C21   A    
C9    H12   S    
C8    N1    D    
C19   O2    D    
C16   C17   A    
C16   H3    S    
