data_mof_unit_7928.cif
_audit_creation_date              2012-12-10T16:49:24-0500
_audit_creation_method            fapswitch 2.2
_symmetry_space_group_name_H-M    P1
_symmetry_Int_Tables_number       1
_space_group_crystal_system       triclinic
_cell_length_a                    7.807156
_cell_length_b                    8.604276
_cell_length_c                    12.843775
_cell_angle_alpha                 88.915871
_cell_angle_beta                  89.024819
_cell_angle_gamma                 93.492053
_cell_volume                      860.880750967

loop_
_atom_site_label
_atom_site_type_symbol
_atom_type_description
_atom_site_fract_x
_atom_site_fract_y
_atom_site_fract_z
_atom_type_partial_charge
C1    C     C_R   0.455715 0.205692 0.497459 0.915512
C2    C     C_R   0.700450 0.435147 0.143234 -0.230653
C3    C     C_R   0.603269 0.525573 0.871154 0.400759
C4    C     C_R   0.396729 0.474372 0.128851 0.400750
C5    C     C_R   0.581149 0.489941 0.976318 -0.135888
C6    C     C_R   0.418845 0.509996 0.023686 -0.135880
C7    C     C_2   0.433912 0.043852 0.512640 0.090425
C8    C     C_2   0.566088 0.956148 0.487358 0.090422
C9    C     C_3   0.060834 0.713449 0.341041 0.054582
C10   C     C_3   0.939189 0.286543 0.658954 0.054581
C11   C     C_R   0.544285 0.794308 0.502540 0.915513
C12   C     C_R   0.470012 0.514420 0.699258 0.922839
C13   C     C_R   0.529987 0.485572 0.300743 0.922844
C14   C     C_R   0.543193 0.464945 0.189786 -0.232152
C15   C     C_R   0.456806 0.535022 0.810218 -0.232147
C16   C     C_R   0.284876 0.566000 0.964241 0.537410
C17   C     C_R   0.715118 0.433941 0.035765 0.537413
C18   C     C_R   0.299548 0.564812 0.856772 -0.230677
Cl1   Cl    Cl    0.193944 0.395353 0.175588 -0.523595
Cl2   Cl    Cl    0.806070 0.604560 0.824417 -0.523613
Cl3   Cl    Cl    0.114007 0.663092 0.019974 -0.487287
Cl4   Cl    Cl    0.885983 0.336835 0.980039 -0.487257
Cl5   Cl    Cl    0.248815 0.978589 0.587962 -0.512271
Cl6   Cl    Cl    0.751184 0.021410 0.412036 -0.512249
H1    H     H_    0.808375 0.405718 0.190008 0.243879
H2    H     H_    0.191625 0.594252 0.810000 0.243877
H3    H     H_    0.029383 0.617654 0.286607 0.163287
H4    H     H_    0.200710 0.742444 0.342758 0.163963
H5    H     H_    0.000572 0.817953 0.310469 0.194280
H6    H     H_    0.799287 0.257682 0.657268 0.163964
H7    H     H_    0.970795 0.382278 0.713406 0.163276
H8    H     H_    0.999345 0.181962 0.689478 0.194298
N1    N     N_2   0.054030 0.541640 0.471970 0.194226
N2    N     N_2   0.945970 0.458360 0.528030 0.194237
O1    O     O_R   0.609680 0.261530 0.506880 -0.611938
O2    O     O_3   0.007539 0.322797 0.559165 -0.496572
O3    O     O_R   0.390320 0.738470 0.493120 -0.611942
O4    O     O_R   0.323330 0.288220 0.488910 -0.533359
O5    O     O_R   0.676670 0.711780 0.511090 -0.533356
O6    O     O_R   0.619510 0.488830 0.661140 -0.620535
O7    O     O_R   0.380490 0.511170 0.338860 -0.620545
O8    O     O_R   0.333160 0.515520 0.643180 -0.609549
O9    O     O_R   0.666840 0.484480 0.356820 -0.609540
O10   O     O_3   0.992456 0.677202 0.440827 -0.496561
Zn1   Zn    Zn3+2 0.691200 0.482180 0.511990 1.112622
Zn2   Zn    Zn3+2 0.308800 0.517820 0.488010 1.112608

loop_
_geom_bond_atom_site_label_1
_geom_bond_atom_site_label_2
_ccdc_geom_bond_type
C12   O6    A    
C15   C18   A    
C10   O2    S    
O7    Zn2   S    
C16   Cl3   S    
C4    Cl1   S    
C10   H6    S    
C17   Cl4   S    
C18   H2    S    
C12   C15   S    
C9    H5    S    
O5    Zn1   S    
C13   O7    A    
N1    N2    D    
C3    Cl2   S    
N2    Zn1   S    
C13   C14   S    
C2    C17   A    
C11   O5    A    
N1    Zn2   S    
O9    Zn1   S    
C1    O1    A    
C5    C6    A    
C1    O4    A    
C8    C11   S    
C7    Cl5   S    
C16   C18   A    
C8    Cl6   S    
C2    H1    S    
N2    O2    S    
C4    C14   A    
O6    Zn1   S    
C2    C14   A    
O4    Zn2   S    
C5    C17   A    
C6    C16   A    
O1    Zn1   S    
C10   H8    S    
C13   O9    A    
C3    C15   A    
C9    H3    S    
C4    C6    A    
C7    C8    D    
O8    Zn2   S    
C11   O3    A    
C9    O10   S    
C12   O8    A    
O3    Zn2   S    
C1    C7    S    
N1    O10   S    
C10   H7    S    
C9    H4    S    
C3    C5    A    
