data_mof_unit_67738.cif
_audit_creation_date              2012-12-10T19:48:35-0500
_audit_creation_method            fapswitch 2.2
_symmetry_space_group_name_H-M    P1
_symmetry_Int_Tables_number       1
_space_group_crystal_system       triclinic
_cell_length_a                    10.848062
_cell_length_b                    10.603159
_cell_length_c                    9.485879
_cell_angle_alpha                 91.667216
_cell_angle_beta                  91.976158
_cell_angle_gamma                 92.483361
_cell_volume                      1088.91677892

loop_
_atom_site_label
_atom_site_type_symbol
_atom_type_description
_atom_site_fract_x
_atom_site_fract_y
_atom_site_fract_z
_atom_type_partial_charge
C1    C     C_R   0.497539 0.259667 0.498418 0.886887
C2    C     C_R   0.502461 0.740333 0.501582 0.886888
C3    C     C_R   0.871383 0.500555 0.506677 -0.148901
C4    C     C_R   0.128617 0.499445 0.493323 -0.148901
C5    C     C_R   0.945736 0.589015 0.589561 0.072537
C6    C     C_R   0.054263 0.410984 0.410439 0.072537
C7    C     C_3   0.616720 0.049768 0.505941 -0.201019
C8    C     C_3   0.383279 0.950231 0.494059 -0.201019
C9    C     C_3   0.559759 0.958400 0.390222 0.786395
C10   C     C_3   0.440241 0.041600 0.609777 0.786393
C11   C     C_3   0.502219 0.877162 0.503449 -0.275886
C12   C     C_3   0.497780 0.122838 0.496550 -0.275886
C13   C     C_3   0.558320 0.966941 0.620818 -0.237733
C14   C     C_3   0.441679 0.033059 0.379182 -0.237734
C15   C     C_3   0.393696 0.526868 0.046581 0.507838
C16   C     C_3   0.606304 0.473132 0.953419 0.507839
C17   C     C_3   0.419931 0.418292 0.943637 0.510213
C18   C     C_3   0.580068 0.581708 0.056362 0.510211
C19   C     C_3   0.473769 0.609293 0.953745 0.188298
C20   C     C_3   0.526231 0.390707 0.046255 0.188298
C21   C     C_R   0.262584 0.496425 0.497398 0.862644
C22   C     C_R   0.737416 0.503575 0.502602 0.862644
C23   C     C_R   0.102111 0.244717 0.063446 0.344253
C24   C     C_R   0.897889 0.755282 0.936555 0.344254
C25   C     C_R   0.090876 0.342137 0.164260 0.675021
C26   C     C_R   0.909125 0.657862 0.835740 0.675020
C27   C     C_R   0.104929 0.318995 0.309221 -0.268973
C28   C     C_R   0.895071 0.681005 0.690779 -0.268973
C29   C     C_R   0.131880 0.196551 0.351726 0.228730
C30   C     C_R   0.868119 0.803449 0.648275 0.228730
C31   C     C_R   0.143269 0.099635 0.249658 0.575415
C32   C     C_R   0.856730 0.900365 0.750343 0.575416
C33   C     C_R   0.129528 0.124049 0.106322 -0.351066
C34   C     C_R   0.870472 0.875950 0.893678 -0.351066
C35   C     C_R   0.925784 0.410237 0.420311 0.388217
C36   C     C_R   0.074216 0.589763 0.579689 0.388217
Cu1   Cu    Cu3+1 0.500030 0.499990 0.643150 1.153668
Cu2   Cu    Cu3+1 0.499970 0.500010 0.356850 1.153668
H1    H     H_    0.135082 0.047723 0.028736 0.267004
H2    H     H_    0.864917 0.952276 0.971265 0.267004
H3    H     H_    0.711330 0.093709 0.506572 0.282647
H4    H     H_    0.288670 0.906291 0.493428 0.282647
H5    H     H_    0.602444 0.937700 0.721116 0.235810
H6    H     H_    0.397555 0.062300 0.278884 0.235809
N1    N     N_3   0.500090 0.499970 0.858290 -0.360724
N2    N     N_3   0.499910 0.500030 0.141710 -0.360723
O1    O     O_R   0.500060 0.316850 0.620870 -0.497749
O2    O     O_R   0.499940 0.683150 0.379130 -0.497749
O3    O     O_R   0.500000 0.316860 0.379090 -0.560490
O4    O     O_R   0.500000 0.683140 0.620910 -0.560490
O5    O     O_R   0.319670 0.500010 0.620890 -0.490328
O6    O     O_R   0.680330 0.499990 0.379110 -0.490328
O7    O     O_R   0.319620 0.500010 0.379110 -0.553647
O8    O     O_R   0.680380 0.499990 0.620890 -0.553647
F1    F     F_    0.337061 0.330408 0.879649 -0.519906
F2    F     F_    0.662939 0.669591 0.120351 -0.519905
F3    F     F_    0.281690 0.559041 0.098554 -0.517474
F4    F     F_    0.718310 0.440959 0.901446 -0.517474
Cl1   Cl    Cl    0.434903 0.762287 0.899392 -0.362039
Cl2   Cl    Cl    0.565097 0.237713 0.100608 -0.362038
Cl3   Cl    Cl    0.067336 0.269507 0.884439 -0.217004
Cl4   Cl    Cl    0.932665 0.730493 0.115561 -0.217004
F5    F     F_    0.053316 0.455976 0.122342 -0.475105
F6    F     F_    0.946685 0.544024 0.877658 -0.475106
Cl5   Cl    Cl    0.137314 0.159641 0.531480 -0.368029
Cl6   Cl    Cl    0.862685 0.840358 0.468520 -0.368030
F7    F     F_    0.159265 0.979385 0.288864 -0.571279
F8    F     F_    0.840734 0.020615 0.711137 -0.571279
Cl7   Cl    Cl    0.832982 0.288893 0.329864 -0.477114
Cl8   Cl    Cl    0.167018 0.711106 0.670136 -0.477114
F9    F     F_    0.621981 0.912792 0.275997 -0.511109
F10   F     F_    0.378018 0.087207 0.724003 -0.511108

loop_
_geom_bond_atom_site_label_1
_geom_bond_atom_site_label_2
_ccdc_geom_bond_type
C30   C32   A    
C4    C36   A    
Cu1   O4    S    
C27   C29   A    
C21   O5    A    
C22   O8    A    
Cu2   O3    S    
C15   C19   S    
C33   H1    S    
C34   H2    S    
C14   H6    S    
C8    H4    S    
Cu1   O5    S    
Cu2   O6    S    
C5    C36   A    
C17   C20   S    
C6    C35   A    
C7    C9    S    
C18   C19   S    
C25   F5    S    
C26   F6    S    
C2    O4    A    
C23   C33   A    
C8    C14   S    
C31   C33   A    
Cu1   O1    S    
C17   F1    S    
Cu2   O2    S    
C18   F2    S    
C32   F8    S    
C7    H3    S    
C15   F3    S    
C1    C12   S    
C2    C11   S    
C18   N2    S    
C36   Cl8   S    
C7    C12   S    
C4    C6    A    
C1    O1    A    
C19   Cl1   S    
C24   C34   A    
C17   N1    S    
C32   C34   A    
C31   F7    S    
C9    C14   S    
Cu1   Cu2   S    
C5    C28   S    
C6    C27   S    
C3    C35   A    
C16   C20   S    
C16   F4    S    
C9    C11   S    
C30   Cl6   S    
C10   C12   S    
C29   Cl5   S    
Cu1   O8    S    
C8    C10   S    
C12   C14   S    
C20   Cl2   S    
Cu1   N1    S    
C13   H5    S    
C22   O6    A    
C23   Cl3   S    
C15   C17   S    
C24   Cl4   S    
C9    F9    S    
C24   C26   A    
C3    C5    A    
C10   C13   S    
C16   N1    S    
C19   N1    S    
C25   C27   A    
C26   C28   A    
C2    O2    A    
C28   C30   A    
C29   C31   A    
C21   O7    A    
C4    C21   S    
C11   C13   S    
Cu2   O7    S    
C8    C11   S    
C23   C25   A    
Cu2   N2    S    
C7    C13   S    
C35   Cl7   S    
C16   C18   S    
C3    C22   S    
C15   N2    S    
C1    O3    A    
C20   N2    S    
C10   F10   S    
