data_mof_unit_29363.cif
_audit_creation_date              2012-12-11T20:46:27-0500
_audit_creation_method            fapswitch 2.2
_symmetry_space_group_name_H-M    P1
_symmetry_Int_Tables_number       1
_space_group_crystal_system       triclinic
_cell_length_a                    8.383903
_cell_length_b                    18.889657
_cell_length_c                    18.87158
_cell_angle_alpha                 100.690383
_cell_angle_beta                  93.606838
_cell_angle_gamma                 92.139857
_cell_volume                      2927.3233961

loop_
_atom_site_label
_atom_site_type_symbol
_atom_type_description
_atom_site_fract_x
_atom_site_fract_y
_atom_site_fract_z
_atom_type_partial_charge
Ba1   Ba    Ba6+2 0.153490 0.533960 0.468530 1.466996
Ba2   Ba    Ba6+2 0.656680 0.466030 0.531410 1.461032
C1    C     C_3   0.436219 0.731437 0.220809 0.819918
C2    C     C_3   0.457255 0.712515 0.296153 0.460502
C3    C     C_3   0.523723 0.688668 0.656120 0.285273
C4    C     C_3   0.582434 0.764840 0.691945 -0.435441
C5    C     C_3   0.953051 0.286939 0.753078 0.802359
C6    C     C_3   0.927984 0.205120 0.724537 0.278172
C7    C     C_3   0.428518 0.273311 0.709855 0.316392
C8    C     C_3   0.464075 0.224892 0.764870 -0.331125
C9    C     C_R   0.994957 0.953149 0.540728 -0.034181
C10   C     C_R   0.077261 0.906743 0.581018 0.395665
C11   C     C_R   0.218033 0.048326 0.556486 -0.087182
C12   C     C_3   0.923159 0.706549 0.248681 1.023264
C13   C     C_R   0.057693 0.023898 0.535279 0.026445
C14   C     C_R   0.271333 0.119458 0.559217 -0.102222
C15   C     C_R   0.169736 0.169693 0.537326 -0.008831
C16   C     C_R   0.014734 0.145305 0.506854 0.015466
C17   C     C_R   0.958507 0.071980 0.505534 0.004515
C18   C     C_R   0.220234 0.242986 0.542708 -0.028543
C19   C     C_R   0.119905 0.290363 0.514985 -0.262718
C20   C     C_R   0.973812 0.266433 0.476966 -0.006834
C21   C     C_R   0.917644 0.193385 0.475618 -0.042789
C22   C     C_R   0.841604 0.928098 0.505786 -0.070464
C23   C     C_3   0.909591 0.719412 0.171025 -0.227893
C24   C     C_R   0.781988 0.855876 0.505599 -0.022147
C25   C     C_R   0.875165 0.808201 0.538708 -0.134152
C26   C     C_R   0.015293 0.836213 0.579555 -0.053303
C27   C     C_R   0.766150 0.166863 0.445763 -0.050569
C28   C     C_R   0.706435 0.098746 0.450211 -0.055261
C29   C     C_R   0.803573 0.047621 0.474303 0.017685
C30   C     C_R   0.749037 0.974045 0.469207 -0.006718
C31   C     C_R   0.605952 0.944442 0.427563 0.405983
C32   C     C_R   0.630607 0.830696 0.470679 -0.135514
C33   C     C_R   0.546060 0.875538 0.432545 -0.152230
C34   C     C_3   0.808839 0.248893 0.302900 0.750293
C35   C     C_R   0.572488 0.759125 0.469752 -0.042392
C36   C     C_R   0.671565 0.711207 0.498257 0.175624
C37   C     C_R   0.824145 0.734080 0.531163 0.014000
C38   C     C_2   0.623263 0.490642 0.278415 0.228886
C39   C     C_3   0.689942 0.558769 0.256630 -0.057681
C40   C     C_2   0.636064 0.556597 0.178536 -0.185729
C41   C     C_2   0.488020 0.526729 0.154711 -0.036381
C42   C     C_2   0.392635 0.495109 0.207630 -0.166616
C43   C     C_1   0.465903 0.479178 0.267536 -0.014207
C44   C     C_R   0.328735 0.502258 0.934736 0.438497
C45   C     C_3   0.627929 0.232616 0.289398 -0.250102
C46   C     C_R   0.429107 0.519484 0.077471 0.467350
C47   C     C_R   0.377157 0.520090 0.809397 -0.112945
C48   C     C_R   0.331982 0.511890 0.735760 0.049416
C49   C     C_R   0.084856 0.447831 0.753285 0.031843
C50   C     C_R   0.129123 0.457416 0.827733 -0.092568
C51   C     C_R   0.277557 0.492373 0.856340 -0.050255
C52   C     C_R   0.188803 0.473799 0.707662 -0.251557
C53   C     C_3   0.987105 0.628059 0.695897 0.308662
C54   C     C_3   0.936964 0.648532 0.774001 0.681828
C55   C     C_3   0.220015 0.309064 0.279986 0.752880
C56   C     C_3   0.203247 0.320155 0.201297 0.355798
H1    H     H_    0.114466 0.614695 0.695708 -0.047457
H2    H     H_    0.912997 0.579804 0.668341 0.032791
H3    H     H_    0.113480 0.328994 0.307656 -0.030092
H4    H     H_    0.628973 0.660201 0.634637 0.073645
H5    H     H_    0.433571 0.691339 0.611047 0.080900
H6    H     H_    0.684067 0.762923 0.732083 0.154238
H7    H     H_    0.484845 0.793663 0.720269 0.122086
H8    H     H_    0.816272 0.758441 0.164906 0.033846
H9    H     H_    0.069016 0.304763 0.734385 -0.195732
H10   H     H_    0.876259 0.195465 0.667333 0.038437
H11   H     H_    0.297380 0.267897 0.694862 0.008814
H12   H     H_    0.463935 0.330660 0.734948 0.053265
H13   H     H_    0.401178 0.242881 0.814488 0.067314
H14   H     H_    0.162521 0.345678 0.517776 0.083136
H15   H     H_    0.394925 0.133749 0.577520 0.101161
H16   H     H_    0.687423 0.198625 0.419779 0.096341
H17   H     H_    0.309033 0.013106 0.568352 0.112902
H18   H     H_    0.798053 0.699233 0.263881 -0.741209
H19   H     H_    0.264675 0.486924 0.196799 0.141745
H20   H     H_    0.153181 0.468746 0.650759 0.062165
H21   H     H_    0.024303 0.742724 0.157301 0.144886
H22   H     H_    0.862807 0.213002 0.336646 -0.158241
N1    N     N_R   0.476341 0.532076 0.959500 -0.260646
N2    N     N_R   0.525461 0.540372 0.029110 -0.264025
N3    N     N_R   0.280987 0.489775 0.052990 -0.256545
N4    N     N_R   0.231782 0.481320 0.983070 -0.265102
O1    O     O_2   0.117290 0.676350 0.548250 -0.450549
O2    O     O_3   0.360437 0.344022 0.317901 -0.639096
O3    O     O_3   0.015318 0.645916 0.251393 -0.555936
O4    O     O_2   0.693010 0.323600 0.451730 -0.446656
O5    O     O_3   0.941240 0.413050 0.457220 -0.448766
O6    O     O_3   0.453310 0.371360 0.582690 -0.445034
O7    O     O_3   0.837659 0.322323 0.336370 -0.582563
O8    O     O_3   0.371310 0.539060 0.587050 -0.442520
O9    O     O_3   0.867330 0.408540 0.621000 -0.459657
O10   O     O_2   0.750986 0.455461 0.747051 -0.452923
O11   O     O_3   0.825165 0.320840 0.722993 -0.600977
O12   O     O_3   0.869060 0.586940 0.542720 -0.479628
O13   O     O_3   0.438990 0.460930 0.412890 -0.455904
O14   O     O_2   0.623700 0.539890 0.674570 -0.461863
O15   O     O_3   0.453022 0.655081 0.707550 -0.662037
O16   O     O_2   0.530409 0.246153 0.513632 -0.485341
O17   O     O_3   0.517983 0.250960 0.649861 -0.572890
O18   O     O_3   0.356990 0.628630 0.417250 -0.438359
O19   O     O_2   0.233676 0.753862 0.468176 -0.503781
O20   O     O_3   0.966081 0.688108 0.663121 -0.660685
O21   O     O_3   0.331223 0.738149 0.337893 -0.545218
O22   O     O_2   0.186600 0.460070 0.325400 -0.470620
O23   O     O_3   0.942970 0.591450 0.378940 -0.474494
O24   O     O_2   0.993573 0.509785 0.252245 -0.452011
P1    P     P_3+3 0.945300 0.665790 0.568510 0.999875
P2    P     P_3+3 0.360080 0.438780 0.334620 1.021084
P3    P     P_3+3 0.908583 0.578112 0.283940 1.052354
P4    P     P_3+3 0.865000 0.334200 0.431430 1.027312
P5    P     P_3+3 0.884968 0.408683 0.713930 1.012268
P6    P     P_3+3 0.373656 0.721976 0.425336 1.014279
P7    P     P_3+3 0.443916 0.561507 0.677929 0.960125
P8    P     P_3+3 0.426071 0.278285 0.574214 0.970070
H23   H     H_    0.459908 0.653020 0.290457 -0.062397
H24   H     H_    0.565615 0.256579 0.337077 0.124346
H25   H     H_    0.581197 0.255431 0.242743 0.168181
H26   H     H_    0.599640 0.173627 0.278446 0.029726
O25   O     O_3   0.004222 0.717031 0.810194 -0.653906
C57   C     C_3   0.173213 0.718552 0.818183 0.177490
H27   H     H_    0.220761 0.668457 0.832546 0.056834
H28   H     H_    0.215061 0.763772 0.862582 0.053271
H29   H     H_    0.223899 0.729545 0.768173 0.085905
O26   O     O_3   0.973138 0.593631 0.813441 -0.706256
C58   C     C_3   0.892097 0.603570 0.877680 0.184467
H30   H     H_    0.760116 0.599537 0.865752 0.040983
H31   H     H_    0.929773 0.655925 0.913595 0.063632
H32   H     H_    0.923050 0.560170 0.907724 0.074699
H33   H     H_    0.804772 0.653222 0.768300 0.005538
O27   O     O_3   0.226994 0.233699 0.277331 -0.655426
C59   C     C_3   0.236291 0.216064 0.347056 0.200660
H34   H     H_    0.246067 0.263733 0.392241 -0.006151
H35   H     H_    0.343236 0.183713 0.353180 0.050386
H36   H     H_    0.129427 0.181344 0.352529 0.017866
O28   O     O_3   0.309126 0.687292 0.180897 -0.623787
C60   C     C_3   0.309076 0.692357 0.107136 0.157450
H37   H     H_    0.212566 0.655167 0.076467 0.074817
H38   H     H_    0.423904 0.675932 0.084161 0.033428
H39   H     H_    0.284127 0.747819 0.099057 0.061408
H40   H     H_    0.177396 0.376815 0.199416 -0.065687
H41   H     H_    0.098001 0.286177 0.173438 0.035112
O29   O     O_3   0.344586 0.300585 0.167053 -0.651996
C61   C     C_3   0.320689 0.299424 0.092058 0.099899
H42   H     H_    0.287159 0.353122 0.081088 0.065504
H43   H     H_    0.228575 0.256678 0.066357 0.041224
H44   H     H_    0.434607 0.286375 0.066614 0.073073
H45   H     H_    0.573457 0.737710 0.321884 -0.104689
H46   H     H_    0.550533 0.718241 0.194778 -0.129985
H47   H     H_    0.623286 0.794957 0.650645 0.057692
O30   O     O_3   0.399191 0.805049 0.227470 -0.632586
C62   C     C_3   0.535794 0.847763 0.219127 0.105042
H48   H     H_    0.576085 0.832942 0.163513 0.021013
H49   H     H_    0.634313 0.843252 0.260108 0.052442
H50   H     H_    0.504005 0.905002 0.227049 0.121668
O31   O     O_3   0.948694 0.302728 0.829749 -0.664642
C63   C     C_3   0.097016 0.290584 0.864683 0.084149
H51   H     H_    0.094960 0.312951 0.923500 0.080265
H52   H     H_    0.199602 0.318692 0.844786 0.023211
H53   H     H_    0.115179 0.231987 0.859067 0.087729
O32   O     O_3   0.076562 0.172121 0.726405 -0.692250
C64   C     C_3   0.049981 0.097297 0.722683 0.125162
H54   H     H_    0.963626 0.072737 0.676577 0.050791
H55   H     H_    0.006660 0.086365 0.774352 0.047219
H56   H     H_    0.165365 0.071082 0.714599 0.125900
H57   H     H_    0.840917 0.182688 0.758085 0.008613
H58   H     H_    0.423349 0.167761 0.740764 0.128569
O33   O     O_3   0.006298 0.767975 0.291265 -0.619696
C65   C     C_3   0.944622 0.784676 0.359545 0.272041
H59   H     H_    0.940411 0.737116 0.386497 0.053911
H60   H     H_    0.824203 0.806370 0.354360 -0.002280
H61   H     H_    0.024024 0.827453 0.394056 0.072663
H62   H     H_    0.594679 0.227626 0.780691 0.135801
H63   H     H_    0.075927 0.804053 0.613372 0.109330
H64   H     H_    0.436549 0.855602 0.401603 0.114921
O34   O     O_3   0.617505 0.640340 0.493804 -0.672255
C66   C     C_3   0.658159 0.600016 0.427196 0.602300
H65   H     H_    0.737382 0.556839 0.434945 0.089259
H66   H     H_    0.689922 0.633658 0.387104 -0.313907
H67   H     H_    0.560529 0.565269 0.399941 0.004761
O35   O     O_3   0.204528 0.933178 0.630558 -0.668677
C67   C     C_3   0.340626 0.892660 0.614511 0.125087
H68   H     H_    0.361571 0.883965 0.555961 0.034506
H69   H     H_    0.330880 0.840235 0.632520 0.049735
H70   H     H_    0.447504 0.923167 0.644406 0.066007
H71   H     H_    0.580327 0.088967 0.436265 0.120703
O36   O     O_3   0.544053 0.976692 0.371828 -0.662512
C68   C     C_3   0.375414 0.979555 0.370758 0.092625
H72   H     H_    0.330224 0.987162 0.425697 0.015564
H73   H     H_    0.317200 0.930409 0.335854 0.116057
H74   H     H_    0.339453 0.026370 0.346684 0.072045
H75   H     H_    0.713547 0.578001 0.143161 0.094843
H76   H     H_    0.487642 0.550352 0.830133 0.080931
H77   H     H_    0.046643 0.439343 0.863221 0.111346
O37   O     O_3   0.719579 0.432671 0.279355 -0.613895
C69   C     C_3   0.733454 0.395355 0.207804 0.239315
H78   H     H_    0.764906 0.431501 0.169923 0.011874
H79   H     H_    0.621765 0.362746 0.186808 0.064394
H80   H     H_    0.833198 0.358702 0.208014 0.108672
H81   H     H_    0.879162 0.668607 0.131883 0.038458
O38   O     O_3   0.879350 0.237918 0.235721 -0.681224
C70   C     C_3   0.888349 0.163689 0.206399 0.125491
H82   H     H_    0.944317 0.133277 0.245778 0.056429
H83   H     H_    0.964591 0.158392 0.159891 0.088669
H84   H     H_    0.768287 0.139010 0.185390 0.036431

loop_
_geom_bond_atom_site_label_1
_geom_bond_atom_site_label_2
_ccdc_geom_bond_type
C8    H62   S    
C53   C54   S    
O26   C58   S    
C53   H1    S    
C69   H80   S    
C32   C35   A    
C39   C40   S    
C55   O27   S    
C64   H54   S    
O16   P8    D    
C70   H82   S    
C17   C29   A    
C58   H31   S    
C66   H65   S    
C55   C56   S    
C5    C6    S    
C42   C43   D    
C13   C17   A    
C2    H45   S    
C70   H83   S    
O5    P4    S    
Ba2   P4    S    
C1    O30   S    
C49   P5    S    
C10   C26   A    
N3    N4    A    
O18   P6    S    
C33   H64   S    
C21   C27   A    
C42   H19   S    
O2    P2    S    
C35   C36   A    
C7    H11   S    
C12   O3    S    
C48   P7    S    
O1    P1    D    
C67   H69   S    
O15   P7    S    
C3    C4    S    
O3    P3    S    
C65   H59   S    
C9    C22   A    
C15   C18   A    
C55   O2    S    
C3    H5    S    
C34   C45   S    
Ba2   O6    S    
C32   C33   A    
O33   C65   S    
C4    H6    S    
O22   P2    D    
C68   H73   S    
O35   C67   S    
Ba2   O5    S    
C63   H53   S    
Ba1   P1    S    
C9    C13   A    
C56   H41   S    
C24   C32   A    
O31   C63   S    
C10   O35   S    
C3    O15   S    
Ba2   O13   S    
C25   C37   A    
C14   C15   A    
C59   H36   S    
C63   H51   S    
Ba2   O4    S    
C1    O28   S    
C54   O26   S    
C62   H49   S    
C7    C8    S    
Ba1   O22   S    
C8    H13   S    
C45   H25   S    
O28   C60   S    
C36   O34   S    
C19   C20   A    
C63   H52   S    
C69   H78   S    
C50   H77   S    
C34   O38   S    
C12   O33   S    
C64   H56   S    
C61   H43   S    
O10   P5    D    
C61   H42   S    
C45   H24   S    
Ba1   O1    S    
C38   C43   D    
C70   H84   S    
O38   C70   S    
C19   H14   S    
C49   C50   A    
C54   H33   S    
C11   H17   S    
O21   P6    S    
C40   H75   S    
C36   C37   A    
C7    H12   S    
C34   H22   S    
C67   H70   S    
Ba1   O13   S    
C18   P8    S    
C43   P2    S    
C16   C17   A    
C35   P6    S    
C53   O20   S    
C60   H39   S    
N1    N2    A    
C16   C21   A    
O36   C68   S    
C12   H18   S    
O7    P4    S    
C68   H74   S    
C41   C42   S    
C22   C30   A    
C67   H68   S    
C27   C28   A    
C4    H7    S    
C6    H57   S    
Ba1   P2    S    
C44   N1    A    
C56   H40   S    
C29   C30   A    
C28   C29   A    
O19   P6    D    
C15   C16   A    
C24   C25   A    
O9    P5    S    
O30   C62   S    
C62   H50   S    
Ba2   O8    S    
O25   C57   S    
C60   H38   S    
Ba1   O23   S    
C44   N4    A    
C4    H47   S    
C34   O7    S    
C8    H58   S    
C38   C39   S    
C6    H10   S    
Ba1   O8    S    
O6    P8    S    
C11   C13   A    
C39   P3    S    
C59   H34   S    
C47   C48   A    
C2    H23   S    
C40   C41   D    
C57   H28   S    
C58   H30   S    
C61   H44   S    
C50   C51   A    
C38   O37   S    
O32   C64   S    
C41   C46   S    
C2    O21   S    
C45   H26   S    
C1    H46   S    
Ba1   O5    S    
C64   H55   S    
C23   H21   S    
O23   P3    S    
Ba2   O9    S    
C23   H8    S    
C22   C24   A    
O37   C69   S    
C14   H15   S    
C66   H66   S    
C9    C10   A    
C46   N3    A    
C26   H63   S    
C55   H3    S    
C27   H16   S    
C5    O11   S    
O12   P1    S    
C20   P4    S    
O24   P3    D    
O29   C61   S    
C49   C52   A    
C54   O25   S    
C57   H29   S    
C69   H79   S    
C57   H27   S    
C58   H32   S    
C48   C52   A    
C6    O32   S    
C30   C31   A    
O13   P2    S    
O14   P7    D    
O20   P1    S    
C23   H81   S    
C65   H60   S    
O11   P5    S    
Ba1   O12   S    
C47   C51   A    
Ba1   Ba2   S    
C44   C51   S    
Ba2   O12   S    
C31   C33   A    
C46   N2    A    
C3    H4    S    
O27   C59   S    
C31   O36   S    
C12   C23   S    
C68   H72   S    
O8    P7    S    
C66   H67   S    
C60   H37   S    
O34   C66   S    
C5    H9    S    
O4    P4    D    
C56   O29   S    
C37   P1    S    
C18   C19   A    
Ba2   O14   S    
C7    O17   S    
C5    O31   S    
C47   H76   S    
C11   C14   A    
C25   C26   A    
C59   H35   S    
O17   P8    S    
C20   C21   A    
C28   H71   S    
C62   H48   S    
C53   H2    S    
Ba1   O18   S    
C1    C2    S    
C52   H20   S    
C65   H61   S    
