data_mof_unit_36067.cif
_audit_creation_date              2013-03-05T15:59:58-0500
_audit_creation_method            fapswitch 2.2
_symmetry_space_group_name_H-M    P1
_symmetry_Int_Tables_number       1
_space_group_crystal_system       triclinic
_cell_length_a                    12.545472
_cell_length_b                    13.154253
_cell_length_c                    19.23954
_cell_angle_alpha                 90.58605
_cell_angle_beta                  102.846309
_cell_angle_gamma                 82.064831
_cell_volume                      3065.23031576

loop_
_atom_site_label
_atom_site_type_symbol
_atom_site_description
_atom_site_fract_x
_atom_site_fract_y
_atom_site_fract_z
_atom_type_partial_charge
O1    O     O_R   0.366740 0.627160 0.482470 -0.615241
O2    O     O_R   0.544830 0.662520 0.505920 -0.621887
C1    C     C_R   0.438586 0.691081 0.486685 0.855020
O3    O     O_R   0.410920 0.482320 0.590130 -0.619281
O4    O     O_R   0.589010 0.517690 0.613590 -0.622567
C2    C     C_R   0.502255 0.497344 0.634532 0.864024
Zn1   Zn    Zn3+2 0.381090 0.476390 0.484340 0.931038
Zn2   Zn    Zn3+2 0.618910 0.523610 0.515660 0.938071
O5    O     O_R   0.455170 0.337480 0.494080 -0.619080
O6    O     O_R   0.633260 0.372840 0.517530 -0.594205
O7    O     O_R   0.410990 0.482310 0.386410 -0.626281
O8    O     O_R   0.589080 0.517680 0.409870 -0.592724
C3    C     C_R   0.561736 0.308188 0.508200 0.883117
C4    C     C_R   0.499186 0.499734 0.365465 0.869255
C5    C     C_R   0.406751 0.511243 0.732736 -0.235047
H1    H     H_    0.330553 0.538062 0.694780 0.157935
C6    C     C_R   0.403124 0.499889 0.803557 -0.167261
H2    H     H_    0.324701 0.518743 0.818697 0.153935
C7    C     C_R   0.499797 0.465939 0.854082 0.055393
C8    C     C_R   0.600170 0.443231 0.833017 -0.198772
H3    H     H_    0.674768 0.415735 0.872227 0.148004
C9    C     C_R   0.605707 0.453438 0.761806 0.160306
C10   C     C_R   0.506802 0.488578 0.710847 -0.057204
N1    N     N_R   0.593694 0.443701 0.979241 -0.184649
N2    N     N_R   0.593030 0.444020 0.047982 -0.180286
C11   C     C_R   0.496315 0.458245 0.069305 0.313202
N3    N     N_R   0.400008 0.470089 0.019532 -0.180399
N4    N     N_R   0.400710 0.470027 0.950602 -0.182532
C12   C     C_R   0.497709 0.457911 0.929349 0.297102
C13   C     C_R   0.402968 0.456606 0.169924 -0.167481
H4    H     H_    0.329440 0.436368 0.134365 0.158391
C14   C     C_R   0.404193 0.468235 0.241797 -0.262841
H5    H     H_    0.331367 0.455635 0.260141 0.179293
C15   C     C_R   0.498409 0.494388 0.289293 -0.139354
C16   C     C_R   0.591217 0.512089 0.263215 0.463572
C17   C     C_R   0.590695 0.495331 0.191521 -0.275004
H6    H     H_    0.663781 0.504705 0.172421 0.158915
C18   C     C_R   0.496733 0.468787 0.144726 0.030073
C19   C     C_R   0.721934 0.054756 0.475693 -0.322028
H7    H     H_    0.730089 0.864163 0.427773 0.146750
H8    H     H_    0.801288 0.023400 0.465319 0.137357
C20   C     C_R   0.598726 0.198097 0.505884 -0.159425
C21   C     C_R   0.291193 0.839852 0.474766 -0.200486
C22   C     C_R   0.259390 0.945161 0.474391 -0.145087
C23   C     C_R   0.336824 0.011438 0.474697 -0.192309
C24   C     C_R   0.446779 0.972743 0.471154 0.104559
C25   C     C_R   0.472662 0.867348 0.459458 0.084550
C26   C     C_R   0.532355 0.034556 0.479385 0.079548
C27   C     C_R   0.636231 0.994430 0.465558 0.120952
C28   C     C_R   0.653012 0.894617 0.441693 -0.229649
C29   C     C_R   0.571610 0.832087 0.437698 -0.207835
C30   C     C_R   0.518178 0.134406 0.503126 -0.339502
C31   C     C_R   0.704885 0.156608 0.497737 0.475390
C32   C     C_R   0.399292 0.800188 0.470909 -0.122247
H9    H     H_    0.443227 0.165281 0.518927 0.180459
H10   H     H_    0.231832 0.789597 0.479391 0.162757
H11   H     H_    0.307494 0.092354 0.475693 0.133139
H12   H     H_    0.175586 0.975473 0.476850 0.139121
H13   H     H_    0.586900 0.756056 0.417069 0.177471
C33   C     C_R   0.082667 0.360563 0.392139 -0.304978
H14   H     H_    0.251091 0.341871 0.382182 0.134296
H15   H     H_    0.875447 0.329175 0.376262 0.164291
H16   H     H_    0.058893 0.305110 0.351585 0.147355
N5    N     N_R   0.222200 0.444680 0.463280 -0.103655
C34   C     C_R   0.795070 0.633733 0.580761 -0.060240
C35   C     C_R   0.889598 0.681731 0.586794 0.105718
C36   C     C_R   0.970146 0.640615 0.548274 0.111692
C37   C     C_R   0.957004 0.546139 0.510896 -0.082065
C38   C     C_R   0.853284 0.510451 0.501290 0.125937
C39   C     C_R   0.038088 0.487766 0.479165 -0.004249
C40   C     C_R   0.006344 0.412950 0.427580 0.137831
C41   C     C_R   0.900133 0.387770 0.414164 -0.214995
C42   C     C_R   0.826915 0.432171 0.453295 -0.009092
C43   C     C_R   0.151152 0.494575 0.499772 -0.064011
C44   C     C_R   0.191025 0.379722 0.409925 0.010028
N6    N     N_R   0.776960 0.554780 0.536340 -0.155748
H17   H     H_    0.184936 0.537635 0.545044 0.169503
H18   H     H_    0.729979 0.663100 0.606966 0.177479
H19   H     H_    0.749475 0.403938 0.444593 0.230445
C45   C     C_3   0.054525 0.708327 0.536604 -0.405467
C46   C     C_3   0.147056 0.714534 0.603262 -0.909547
H20   H     H_    0.133143 0.788810 0.629980 0.250914
H21   H     H_    0.151991 0.650981 0.641933 0.254160
H22   H     H_    0.228083 0.709656 0.588353 0.257570
H23   H     H_    0.089544 0.684129 0.490125 0.199993
H24   H     H_    0.012414 0.786791 0.519555 0.186263
C47   C     C_3   0.903283 0.778072 0.631417 -0.387591
C48   C     C_3   0.807551 0.819283 0.665935 -0.920902
H25   H     H_    0.730470 0.840350 0.624487 0.271988
H26   H     H_    0.795232 0.761759 0.704238 0.257979
H27   H     H_    0.827053 0.889512 0.695855 0.255634
H28   H     H_    0.978204 0.761191 0.674984 0.225424
H29   H     H_    0.914508 0.841863 0.597678 0.208400
C49   C     C_3   0.717044 0.421184 0.743501 -0.408097
C50   C     C_3   0.721254 0.317430 0.707271 -0.825870
H30   H     H_    0.658085 0.320171 0.656728 0.258948
H31   H     H_    0.803979 0.295848 0.695578 0.244938
H32   H     H_    0.706923 0.257505 0.743089 0.248690
H33   H     H_    0.738891 0.480709 0.710924 0.226659
H34   H     H_    0.784079 0.413241 0.792664 0.193236
O9    O     O_3   0.685296 0.538282 0.308422 -0.603808
C51   C     C_3   0.696937 0.640530 0.293196 0.112997
H35   H     H_    0.621029 0.694060 0.296068 0.125399
H36   H     H_    0.714789 0.647458 0.239462 0.136622
C52   C     C_3   0.793264 0.673072 0.347652 -0.824281
H37   H     H_    0.806197 0.751675 0.334230 0.195899
H38   H     H_    0.775518 0.673177 0.401602 0.252598
H39   H     H_    0.869844 0.619447 0.347653 0.264569
O10   O     O_3   0.788910 0.216971 0.507168 -0.617836
C53   C     C_3   0.874810 0.176704 0.565043 0.098623
H40   H     H_    0.923054 0.106346 0.549227 0.134693
H41   H     H_    0.842105 0.158106 0.612091 0.133474
C54   C     C_3   0.953194 0.255521 0.587719 -0.830920
H42   H     H_    0.907089 0.328775 0.600843 0.260659
H43   H     H_    0.017208 0.226429 0.635577 0.205068
H44   H     H_    0.994746 0.269552 0.544195 0.259342

loop_
_geom_bond_atom_site_label_1
_geom_bond_atom_site_label_2
_geom_bond_distance
_ccdc_geom_bond_type
C47   C48   1.531300 S    
O9    C51   1.413323 S    
C50   H30   1.106841 S    
C46   H20   1.109888 S    
C50   H32   1.110818 S    
C19   H8    1.083684 S    
C23   C24   1.419090 A    
H14   C44   1.081881 S    
Zn1   O7    2.005505 S    
C52   H38   1.108869 S    
C23   H11   1.078547 S    
C11   N3    1.355613 A    
C34   N6    1.349557 A    
C51   C52   1.520516 S    
C33   H16   1.083872 S    
C17   H6    1.083008 S    
C20   C31   1.409446 A    
O4    C2    1.302379 A    
C45   C46   1.536551 S    
C1    C32   1.463566 S    
C5    H1    1.083188 S    
Zn2   N6    2.031820 S    
C13   C18   1.397024 A    
C38   N6    1.355191 A    
C5    C6    1.383675 A    
C15   C16   1.413720 A    
O5    C3    1.306912 A    
N1    C12   1.354225 A    
C45   H24   1.109642 S    
C6    C7    1.396552 A    
C53   H40   1.112180 S    
C16   C17   1.393368 A    
C22   H12   1.082857 S    
C37   C38   1.416914 A    
C43   H17   1.072925 S    
C39   C43   1.400531 A    
C38   C42   1.400421 A    
C39   C40   1.422887 A    
C30   H9    1.077341 S    
C54   H44   1.109425 S    
C5    C10   1.403882 A    
C35   C36   1.427165 A    
C47   H28   1.109601 S    
C9    C49   1.518907 S    
C49   C50   1.525900 S    
O3    Zn1   1.988694 S    
C3    C20   1.461799 S    
C46   H21   1.110958 S    
C28   C29   1.386036 A    
C52   H39   1.110613 S    
C24   C26   1.414777 A    
C36   C37   1.440265 A    
N1    N2    1.324374 A    
O3    C2    1.305982 A    
C35   C47   1.531285 S    
C11   C18   1.455179 S    
C25   C29   1.414044 A    
C33   C40   1.398275 A    
N2    C11   1.353728 A    
O1    C1    1.304362 A    
C14   C15   1.405727 A    
C21   C22   1.387264 A    
C45   H23   1.106443 S    
C21   C32   1.401953 A    
C48   H27   1.110654 S    
C49   H34   1.112162 S    
C13   H4    1.083184 S    
Zn2   O8    1.988694 S    
C6    H2    1.083007 S    
C42   H19   1.065746 S    
H15   C41   1.084321 S    
C48   H25   1.111506 S    
C51   H36   1.112550 S    
C53   C54   1.521092 S    
C25   C32   1.412421 A    
C37   C39   1.431071 A    
C26   C27   1.417397 A    
C19   C27   1.401037 A    
C48   H26   1.110804 S    
C34   C35   1.400887 A    
C29   H13   1.080434 S    
C7    C12   1.459310 S    
C46   H22   1.109503 S    
C22   C23   1.391057 A    
C54   H42   1.110372 S    
C31   O10   1.384817 S    
Zn1   O5    1.923122 S    
C24   C25   1.407106 A    
N4    C12   1.356402 A    
C34   H18   1.078076 S    
O1    Zn1   1.966481 S    
O2    Zn2   1.923121 S    
C36   C45   1.527903 S    
C8    C9    1.395914 A    
C41   C42   1.379150 A    
C16   O9    1.384880 S    
O6    C3    1.302529 A    
C4    C15   1.464400 S    
O4    Zn2   2.005505 S    
C50   H31   1.108804 S    
C52   H37   1.110181 S    
C33   C44   1.383676 A    
C14   H5    1.083115 S    
C7    C8    1.399911 A    
C17   C18   1.399048 A    
O2    C1    1.303804 A    
O8    C4    1.303226 A    
C40   C41   1.385274 A    
O10   C53   1.415136 S    
C13   C14   1.386586 A    
C19   C31   1.403652 A    
C49   H33   1.107575 S    
H7    C28   1.083160 S    
C2    C10   1.461763 S    
C47   H29   1.108932 S    
O7    C4    1.307426 A    
N5    C44   1.353748 A    
C51   H35   1.114994 S    
C53   H41   1.115783 S    
Zn1   N5    2.044156 S    
C21   H10   1.079866 S    
C26   C30   1.387370 A    
C8    H3    1.083484 S    
Zn2   O6    1.966481 S    
C27   C28   1.390446 A    
N3    N4    1.328155 A    
N5    C43   1.351100 A    
C9    C10   1.422851 A    
C20   C30   1.391000 A    
C54   H43   1.110292 S    
