data_mof_unit_19632.cif
_audit_creation_date              2012-10-26T19:59:38-0400
_audit_creation_method            fapswitch 2.2
_symmetry_space_group_name_H-M    P1
_symmetry_Int_Tables_number       1
_space_group_crystal_system       triclinic
_cell_length_a                    10.752475
_cell_length_b                    8.796124
_cell_length_c                    7.492433
_cell_angle_alpha                 102.996906
_cell_angle_beta                  94.836069
_cell_angle_gamma                 92.555976
_cell_volume                      686.547645732

loop_
_atom_site_label
_atom_site_type_symbol
_atom_type_description
_atom_site_fract_x
_atom_site_fract_y
_atom_site_fract_z
_atom_type_partial_charge
C1    C     C_R   0.504875 0.201371 0.453619 0.529170
C2    C     C_R   0.512124 0.799769 0.546052 0.500061
C3    C     C_R   0.737308 0.507234 0.499831 0.530476
C4    C     C_R   0.152478 0.750627 0.768432 -0.102677
C5    C     C_R   0.098522 0.859352 0.899797 -0.129767
C6    C     C_R   0.969304 0.861621 0.895576 -0.116069
C7    C     C_R   0.893492 0.754058 0.761330 -0.083390
C8    C     C_R   0.946142 0.635657 0.634258 0.016227
C9    C     C_2   0.512654 0.947788 0.233198 0.630007
C10   C     C_2   0.582558 0.056316 0.758744 0.619107
C11   C     C_3   0.279340 0.322677 0.963807 0.095584
C12   C     C_R   0.077638 0.634191 0.637639 0.017289
C13   C     C_3   0.198438 0.221170 0.798135 -0.287592
C14   C     C_3   0.059153 0.232736 0.820868 -0.472673
C15   C     C_R   0.129690 0.518641 0.506390 -0.001028
C16   C     C_R   0.053200 0.410920 0.372210 -0.159240
C17   C     C_R   0.925121 0.412278 0.368781 -0.141092
C18   C     C_R   0.871367 0.520958 0.500418 0.009805
C19   C     C_2   0.518244 0.035595 0.426624 -0.012763
C20   C     C_2   0.534662 0.967285 0.571061 -0.037951
C21   C     C_R   0.263130 0.507209 0.502555 0.515372
Cu1   Cu    Cu3+1 0.513920 0.517380 0.684380 1.041992
Cu2   Cu    Cu3+1 0.486080 0.482620 0.315620 1.033694
H1    H     H_    0.093065 0.322297 0.272394 0.105837
H2    H     H_    0.240613 0.440229 0.998446 0.148552
H3    H     H_    0.276340 0.263912 0.080051 0.163626
H4    H     H_    0.217753 0.257637 0.670444 0.187045
H5    H     H_    0.223004 0.097800 0.780133 0.168843
H6    H     H_    0.036563 0.199169 0.949072 0.137179
H7    H     H_    0.003696 0.152999 0.701974 0.185604
H8    H     H_    0.032270 0.354056 0.826265 0.170752
H9    H     H_    0.593392 0.626533 0.052236 0.235493
H10   H     H_    0.252608 0.761372 0.768724 0.146670
H11   H     H_    0.157100 0.945568 0.001760 0.152037
H12   H     H_    0.927548 0.949428 0.993978 0.136887
H13   H     H_    0.794001 0.767173 0.757688 0.156727
H14   H     H_    0.867652 0.324595 0.266481 0.134121
H15   H     H_    0.405680 0.830202 0.007857 0.350808
H16   H     H_    0.721020 0.196710 0.920523 0.340758
N1    N     N_2   0.465100 0.456430 0.038520 0.035637
N2    N     N_2   0.534900 0.543570 0.961480 -0.192681
O1    O     O_R   0.509050 0.286130 0.619770 -0.433310
O2    O     O_R   0.396760 0.897449 0.134094 -0.695615
O3    O     O_2   0.519587 0.057440 0.886852 -0.441934
O4    O     O_R   0.698904 0.140102 0.787184 -0.699774
O5    O     O_3   0.402755 0.334605 0.917981 -0.399366
O6    O     O_R   0.485540 0.256780 0.308360 -0.472815
O7    O     O_R   0.331410 0.514680 0.655740 -0.504818
O8    O     O_R   0.307900 0.485330 0.344330 -0.540976
O9    O     O_R   0.514460 0.743220 0.691640 -0.512929
O10   O     O_R   0.490950 0.713870 0.380230 -0.505891
O11   O     O_R   0.692100 0.514670 0.655670 -0.506047
O12   O     O_R   0.668590 0.485320 0.344260 -0.521779
O13   O     O_2   0.609923 0.917925 0.163068 -0.523183

loop_
_geom_bond_atom_site_label_1
_geom_bond_atom_site_label_2
_ccdc_geom_bond_type
Cu1   O7    S    
H9    N2    S    
C13   H5    S    
C6    C7    A    
C4    C12   A    
C3    O12   A    
C7    H13   S    
C1    O1    A    
Cu2   O10   S    
C19   C20   D    
C12   C15   A    
C8    C12   A    
C14   H8    S    
H16   O4    S    
C21   O7    A    
C5    H11   S    
C10   O4    S    
C21   O8    A    
C17   C18   A    
H15   O2    S    
C16   H1    S    
C17   H14   S    
C13   C14   S    
N1    O5    S    
C11   C13   S    
Cu1   O1    S    
C14   H7    S    
N1    N2    D    
Cu2   O12   S    
C5    C6    A    
C3    O11   A    
C8    C18   A    
C9    O2    S    
Cu1   N2    S    
Cu2   O8    S    
C2    O10   A    
C11   H2    S    
C14   H6    S    
C2    C20   S    
C15   C16   A    
Cu1   O9    S    
C15   C21   S    
Cu2   O6    S    
C6    H12   S    
C3    C18   S    
Cu1   O11   S    
C7    C8    A    
C4    H10   S    
C13   H4    S    
C11   O5    S    
C9    O13   D    
C2    O9    A    
C11   H3    S    
Cu1   Cu2   S    
C1    C19   S    
C10   O3    D    
C9    C19   S    
C1    O6    A    
Cu2   N1    S    
C16   C17   A    
C10   C20   S    
C4    C5    A    
