data_mof_unit_61140.cif
_audit_creation_date              2012-12-10T19:32:07-0500
_audit_creation_method            fapswitch 2.2
_symmetry_space_group_name_H-M    P1
_symmetry_Int_Tables_number       1
_space_group_crystal_system       triclinic
_cell_length_a                    18.863363
_cell_length_b                    18.592099
_cell_length_c                    18.665868
_cell_angle_alpha                 109.026474
_cell_angle_beta                  109.799332
_cell_angle_gamma                 109.452103
_cell_volume                      5047.59442229

loop_
_atom_site_label
_atom_site_type_symbol
_atom_type_description
_atom_site_fract_x
_atom_site_fract_y
_atom_site_fract_z
_atom_type_partial_charge
C1    C     C_R   0.379619 0.379798 0.499466 0.896360
C2    C     C_R   0.249544 0.175439 0.489191 0.039778
C3    C     C_3   0.285929 0.115367 0.477856 -0.451562
C4    C     C_R   0.619819 0.499198 0.620858 0.975036
C5    C     C_3   0.355987 0.185367 0.475337 0.246089
C6    C     C_R   0.314155 0.495657 0.239679 0.125690
C7    C     C_R   0.311325 0.497486 0.313252 -0.093909
C8    C     C_R   0.240391 0.498724 0.322063 -0.210641
C9    C     C_R   0.174901 0.497907 0.256697 -0.213075
C10   C     C_R   0.182095 0.498736 0.184256 -0.094006
C11   C     C_R   0.253184 0.498100 0.178805 0.132471
C12   C     C_3   0.809965 0.504466 0.812227 0.056424
C13   C     C_3   0.296427 0.498815 0.125295 -0.494943
C14   C     C_3   0.366996 0.496977 0.195755 -0.470498
C15   C     C_R   0.764318 0.688384 0.518198 0.059484
C16   C     C_R   0.619623 0.620407 0.499793 0.912739
C17   C     C_R   0.686564 0.687936 0.502619 -0.017450
C18   C     C_R   0.678150 0.759432 0.500305 -0.226562
C19   C     C_R   0.742553 0.823964 0.500519 -0.193372
C20   C     C_R   0.816318 0.818101 0.506378 -0.098555
C21   C     C_R   0.829576 0.754223 0.522297 -0.013387
C22   C     C_3   0.854937 0.692527 0.477841 0.192513
C23   C     C_3   0.776134 0.426142 0.722834 -0.540670
C24   C     C_3   0.782302 0.619483 0.473155 0.157750
C25   C     C_R   0.997840 0.379921 0.878176 0.877637
C26   C     C_R   0.877121 0.503306 0.879505 0.922374
C27   C     C_R   0.997757 0.620504 0.117491 0.886774
C28   C     C_R   0.379144 0.499596 0.379203 0.870684
C29   C     C_R   0.117505 0.499568 0.117931 0.872505
C30   C     C_R   0.999681 0.120039 0.619640 0.876595
C31   C     C_R   0.119413 0.119777 0.499523 0.875902
C32   C     C_R   0.000117 0.879740 0.380199 0.873346
C33   C     C_R   0.880354 0.880180 0.500775 0.879475
C34   C     C_3   0.847014 0.591458 0.809195 0.202555
C35   C     C_R   0.923958 0.245433 0.739791 0.016408
C36   C     C_R   0.999828 0.314354 0.814995 -0.090931
C37   C     C_R   0.079305 0.319142 0.826745 -0.204638
C38   C     C_R   0.079706 0.254131 0.762603 -0.209184
C39   C     C_R   0.000840 0.186219 0.685866 -0.061313
C40   C     C_3   0.660737 0.491428 0.757407 0.200838
C41   C     C_R   0.924501 0.184832 0.676923 0.038066
C42   C     C_3   0.828416 0.136278 0.617607 -0.540134
C43   C     C_3   0.827701 0.206748 0.689349 0.281360
C44   C     C_R   0.923150 0.690098 0.169876 0.126200
C45   C     C_R   0.310136 0.236218 0.486636 0.084323
C46   C     C_R   0.999422 0.688163 0.183145 -0.082273
C47   C     C_R   0.079211 0.757553 0.256828 -0.211594
C48   C     C_R   0.080112 0.821383 0.322620 -0.211104
C49   C     C_R   0.001348 0.816545 0.312755 -0.090850
C50   C     C_R   0.924276 0.754337 0.233704 0.145893
C51   C     C_3   0.838843 0.692048 0.217668 -0.489486
C52   C     C_3   0.733223 0.493699 0.830019 -0.412036
C53   C     C_3   0.837795 0.621016 0.147216 -0.473714
C54   C     C_3   0.703985 0.423152 0.650209 -0.364644
C55   C     C_3   0.773305 0.590045 0.737952 0.114544
C56   C     C_R   0.312004 0.314142 0.497397 -0.103645
C57   C     C_3   0.688033 0.500318 0.689403 0.007744
C58   C     C_R   0.246124 0.327669 0.507878 -0.202651
C59   C     C_R   0.180946 0.262657 0.507235 -0.209961
C60   C     C_R   0.183579 0.185760 0.498867 -0.064837
H1    H     H_    0.899553 0.596318 0.792835 0.133134
H2    H     H_    0.120236 0.498421 0.263484 0.161297
H3    H     H_    0.319771 0.561202 0.123505 0.214013
H4    H     H_    0.369356 0.435172 0.171646 0.216466
H5    H     H_    0.430882 0.558561 0.235016 0.204654
H6    H     H_    0.733861 0.876633 0.493829 0.157430
H7    H     H_    0.845244 0.685949 0.413362 0.144651
H8    H     H_    0.756528 0.548885 0.894816 0.165125
H9    H     H_    0.803348 0.588997 0.512447 0.128357
H10   H     H_    0.140139 0.372089 0.885104 0.149246
H11   H     H_    0.140968 0.257717 0.772075 0.160257
H12   H     H_    0.721961 0.425625 0.599819 0.173596
H13   H     H_    0.810193 0.139880 0.556196 0.190366
H14   H     H_    0.797159 0.069183 0.608496 0.205953
H15   H     H_    0.808038 0.250456 0.669694 0.118289
H16   H     H_    0.139770 0.759681 0.265380 0.157378
H17   H     H_    0.141353 0.872848 0.381368 0.161090
H18   H     H_    0.844400 0.681892 0.274402 0.198092
H19   H     H_    0.706443 0.432128 0.832807 0.221220
H20   H     H_    0.761048 0.642693 0.770668 0.178093
H21   H     H_    0.559232 0.418393 0.757263 0.346101
H22   H     H_    0.830077 0.432336 0.708762 0.159733
H23   H     H_    0.244697 0.387448 0.515738 0.158756
H24   H     H_    0.477905 0.270686 0.541576 0.350973
H25   H     H_    0.257543 0.437813 0.060586 0.197287
H26   H     H_    0.620117 0.762710 0.493591 0.154409
H27   H     H_    0.944805 0.720168 0.590676 0.341834
H28   H     H_    0.733130 0.517675 0.362308 0.334778
H29   H     H_    0.808431 0.138586 0.748999 0.348955
H30   H     H_    0.787481 0.708024 0.191052 0.212055
H31   H     H_    0.842847 0.569621 0.163125 0.219504
H32   H     H_    0.785829 0.595973 0.079926 0.200414
H33   H     H_    0.643386 0.359166 0.616702 0.231974
H34   H     H_    0.130090 0.272949 0.514850 0.152880
H35   H     H_    0.750319 0.363332 0.723737 0.227860
H36   H     H_    0.816055 0.568035 0.655161 0.326820
H37   H     H_    0.918410 0.716717 0.890959 0.348197
H38   H     H_    0.310775 0.107662 0.536462 0.238709
H39   H     H_    0.241346 0.053104 0.414261 0.148035
H40   H     H_    0.354965 0.163473 0.411721 0.094919
H41   H     H_    0.235375 0.499568 0.378429 0.158705
H42   H     H_    0.652117 0.548084 0.788082 0.102506
O1    O     O_R   0.408690 0.356690 0.448570 -0.646288
O2    O     O_R   0.947510 0.091650 0.539220 -0.623808
O3    O     O_R   0.143610 0.091630 0.552030 -0.620929
O4    O     O_R   0.408080 0.460090 0.551420 -0.619077
O5    O     O_R   0.039620 0.091690 0.448080 -0.624471
O6    O     O_R   0.052490 0.908450 0.460880 -0.609777
O7    O     O_R   0.948500 0.908500 0.356930 -0.621310
O8    O     O_R   0.960380 0.908410 0.552020 -0.589921
O9    O     O_R   0.856390 0.908470 0.448070 -0.630180
O10   O     O_R   0.592400 0.448300 0.540680 -0.637631
O11   O     O_R   0.591790 0.551700 0.643540 -0.640519
O12   O     O_R   0.049530 0.460080 0.906210 -0.633586
O13   O     O_R   0.591920 0.539910 0.448580 -0.569798
O14   O     O_R   0.591310 0.643310 0.551430 -0.631335
O15   O     O_R   0.408210 0.448300 0.356460 -0.620807
O16   O     O_R   0.407600 0.551700 0.459320 -0.628859
O17   O     O_R   0.946090 0.356720 0.906270 -0.589178
O18   O     O_3   0.581957 0.412894 0.716096 -0.742912
O19   O     O_3   0.438251 0.226774 0.549064 -0.695929
O20   O     O_3   0.938631 0.710600 0.532808 -0.747899
O21   O     O_3   0.714359 0.558888 0.386835 -0.746509
O22   O     O_3   0.784897 0.173588 0.729695 -0.719369
O23   O     O_R   0.853510 0.448360 0.905260 -0.631702
O24   O     O_3   0.797390 0.609229 0.679842 -0.799807
O25   O     O_3   0.882397 0.664098 0.891439 -0.784098
O26   O     O_R   0.956950 0.551730 0.905200 -0.614707
O27   O     O_R   0.945130 0.540000 0.088470 -0.632105
O28   O     O_R   0.048570 0.643360 0.088400 -0.611994
O29   O     O_R   0.037700 0.448350 0.089480 -0.622801
O30   O     O_R   0.141150 0.551720 0.089410 -0.627031
O31   O     O_R   0.051500 0.091600 0.643170 -0.625616
Zn1   Zn    Zn3+2 0.500410 0.430960 0.431320 0.974867
Zn2   Zn    Zn3+2 0.499590 0.569040 0.568680 0.966766
Zn3   Zn    Zn3+2 0.928260 0.431020 0.997380 0.985225
Zn4   Zn    Zn3+2 0.066400 0.569060 0.997290 0.964119
Zn5   Zn    Zn3+2 0.069430 0.000010 0.569450 0.994083
Zn6   Zn    Zn3+2 0.930570 0.000090 0.430650 0.954854

loop_
_geom_bond_atom_site_label_1
_geom_bond_atom_site_label_2
_ccdc_geom_bond_type
C48   H17   S    
C59   C60   A    
C23   H22   S    
C5    O19   S    
C41   C42   S    
C34   O25   S    
C35   C36   A    
C3    H38   S    
H37   O25   S    
C30   O2    A    
O9    Zn6   S    
C7    C8    A    
C39   C41   A    
O14   Zn2   S    
C12   C23   S    
C18   H26   S    
C36   C37   A    
C1    C56   S    
C47   H16   S    
C28   O15   A    
C51   H30   S    
C38   C39   A    
C2    C60   A    
C29   O30   A    
C25   O17   A    
C19   H6    S    
C18   C19   A    
O12   Zn4   S    
C54   H33   S    
O3    Zn5   S    
C38   H11   S    
C44   C53   S    
C14   H5    S    
C19   C20   A    
C45   C56   A    
C23   H35   S    
C16   C17   S    
C13   H3    S    
C4    C57   S    
C53   H31   S    
C5    H40   S    
C33   O9    A    
C59   H34   S    
C13   C14   S    
C52   H19   S    
C35   C43   S    
C9    C10   A    
C1    O1    A    
C52   H8    S    
C1    O4    A    
C4    O10   A    
C34   C55   S    
C37   H10   S    
C31   O3    A    
H28   O21   S    
O15   Zn1   S    
C16   O14   A    
C12   C52   S    
C44   C46   A    
C24   H9    S    
C22   O20   S    
C2    C45   A    
C43   H15   S    
C22   H7    S    
C42   H14   S    
C32   O7    A    
C9    H2    S    
C4    O11   A    
O8    Zn5   S    
O29   Zn3   S    
C6    C11   A    
C8    C9    A    
C50   C51   S    
O30   Zn4   S    
C40   C52   S    
C5    C45   S    
C34   H1    S    
C7    C28   S    
C12   C26   S    
C51   C53   S    
C26   O23   A    
C31   C60   S    
O26   Zn4   S    
C37   C38   A    
C6    C14   S    
O27   Zn3   S    
C47   C48   A    
H21   O18   S    
C55   O24   S    
C15   C21   A    
C30   O31   A    
C14   H4    S    
C53   H32   S    
C17   C18   A    
H36   O24   S    
C26   O26   A    
C20   C33   S    
O23   Zn3   S    
C48   C49   A    
C40   O18   S    
C55   C57   S    
C32   O6    A    
C27   O27   A    
C22   C24   S    
C42   C43   S    
C12   C34   S    
C16   O13   A    
C27   C46   S    
C23   C54   S    
C8    H41   S    
C44   C50   A    
C15   C17   A    
C46   C47   A    
O4    Zn2   S    
C42   H13   S    
C40   C57   S    
C31   O5    A    
O1    Zn1   S    
O10   Zn1   S    
C3    C5    S    
H27   O20   S    
C6    C7    A    
H29   O22   S    
O17   Zn3   S    
O2    Zn6   S    
O7    Zn6   S    
C2    C3    S    
C58   C59   A    
C51   H18   S    
C28   O16   A    
C58   H23   S    
C15   C24   S    
O6    Zn5   S    
C55   H20   S    
C11   C13   S    
C10   C29   S    
C29   O29   A    
O13   Zn1   S    
C56   C58   A    
C30   C39   S    
C25   O12   A    
C24   O21   S    
O5    Zn6   S    
C35   C41   A    
C32   C49   S    
C10   C11   A    
C25   C36   S    
C40   H42   S    
C3    H39   S    
O31   Zn5   S    
C54   H12   S    
C20   C21   A    
C49   C50   A    
O11   Zn2   S    
C13   H25   S    
C27   O28   A    
C33   O8    A    
C21   C22   S    
O28   Zn4   S    
C43   O22   S    
O16   Zn2   S    
H24   O19   S    
C54   C57   S    
