data_mof_unit_13381.cif
_audit_creation_date              2012-12-10T18:32:00-0500
_audit_creation_method            fapswitch 2.2
_symmetry_space_group_name_H-M    P1
_symmetry_Int_Tables_number       1
_space_group_crystal_system       triclinic
_cell_length_a                    10.63795
_cell_length_b                    14.976386
_cell_length_c                    15.498265
_cell_angle_alpha                 82.581734
_cell_angle_beta                  89.386968
_cell_angle_gamma                 104.347563
_cell_volume                      2369.77565748

loop_
_atom_site_label
_atom_site_type_symbol
_atom_type_description
_atom_site_fract_x
_atom_site_fract_y
_atom_site_fract_z
_atom_type_partial_charge
Br1   Br    Br    0.185258 0.134891 0.271419 -0.555727
C1    C     C_R   0.484333 0.442051 0.662078 0.860495
C2    C     C_R   0.555727 0.451102 0.896450 0.091020
C3    C     C_R   0.543126 0.355975 0.927546 0.168225
C4    C     C_R   0.742126 0.500727 0.500027 0.852454
C5    C     C_R   0.589937 0.519281 0.953091 0.070031
C6    C     C_R   0.586238 0.489640 0.043438 0.064616
C7    C     C_R   0.578670 0.394772 0.072921 -0.209899
C8    C     C_R   0.559945 0.329345 0.015237 -0.211783
C9    C     C_R   0.626294 0.615872 0.922584 -0.229700
C10   C     C_R   0.642529 0.681223 0.980193 -0.233127
C11   C     C_R   0.618122 0.652138 0.069115 0.172622
C12   C     C_3   0.121697 0.500236 0.500003 0.049619
C13   C     C_R   0.588168 0.555896 0.101063 0.091017
C14   C     C_R   0.620258 0.717726 0.126468 -0.194689
C15   C     C_R   0.588140 0.688215 0.214766 -0.201547
C16   C     C_R   0.521280 0.558093 0.337913 0.892414
C17   C     C_R   0.551202 0.528060 0.188807 -0.253783
C18   C     C_R   0.691103 0.843005 0.637417 -0.314205
C19   C     C_R   0.660141 0.753726 0.615042 0.011546
C20   C     C_R   0.514927 0.793542 0.510297 -0.061638
C21   C     C_R   0.541725 0.885522 0.529985 -0.001137
C22   C     C_R   0.632265 0.909299 0.595010 0.182203
C23   C     C_3   0.065380 0.482344 0.408786 0.356871
C24   C     C_R   0.482598 0.953904 0.487756 0.086582
C25   C     C_R   0.515795 0.045638 0.511273 0.106057
C26   C     C_R   0.607067 0.065930 0.576278 -0.235335
C27   C     C_R   0.663667 0.998882 0.617199 -0.209397
C28   C     C_R   0.257946 0.499539 0.500311 0.878154
C29   C     C_R   0.391495 0.933507 0.422970 -0.257846
C30   C     C_R   0.335087 0.000458 0.381765 -0.154207
C31   C     C_R   0.366023 0.090661 0.403465 0.096522
C32   C     C_R   0.456656 0.114066 0.468927 -0.036589
C33   C     C_R   0.307892 0.158374 0.361133 0.162895
C34   C     C_3   0.102500 0.592789 0.528457 -0.404976
C35   C     C_R   0.340113 0.247274 0.384675 -0.033388
C36   C     C_R   0.484076 0.205836 0.489201 -0.082840
C37   C     C_3   0.898682 0.419634 0.566217 -0.407241
C38   C     C_3   0.043615 0.420558 0.568682 -0.490692
C39   C     C_3   0.924600 0.492012 0.406589 -0.470345
C40   C     C_3   0.960557 0.594506 0.525612 -0.400803
C41   C     C_3   0.878900 0.501737 0.499674 0.117365
C42   C     C_3   0.183273 0.625539 0.326551 0.074751
C43   C     C_3   0.221888 0.665772 0.231593 -0.311735
C44   C     C_3   0.278171 0.770928 0.221744 -0.967028
C45   C     C_R   0.495370 0.408686 0.753796 -0.062258
C46   C     C_R   0.551621 0.592909 0.245752 -0.073307
C47   C     C_R   0.511621 0.288790 0.870602 -0.193381
C48   C     C_R   0.489296 0.315234 0.783589 -0.201948
C49   C     C_R   0.525328 0.474877 0.810821 -0.264483
H1    H     H_    0.842975 0.351997 0.547786 0.183873
H2    H     H_    0.521444 0.545183 0.787911 0.162237
H3    H     H_    0.861986 0.425126 0.632382 0.172285
H4    H     H_    0.590101 0.369712 0.140138 0.155217
H5    H     H_    0.645557 0.642701 0.854372 0.142830
H6    H     H_    0.644946 0.791529 0.102839 0.143598
H7    H     H_    0.733000 0.017501 0.666715 0.144761
H8    H     H_    0.550423 0.230597 0.537692 0.134417
H9    H     H_    0.296724 0.300379 0.353131 0.174559
H10   H     H_    0.266316 0.980183 0.332583 0.192341
H11   H     H_    0.760299 0.860094 0.687296 0.142482
H12   H     H_    0.162582 0.656239 0.488959 0.160260
H13   H     H_    0.704696 0.701581 0.647187 0.126526
H14   H     H_    0.448474 0.768282 0.461988 0.118398
H15   H     H_    0.078772 0.430498 0.635050 0.187397
H16   H     H_    0.637820 0.133218 0.597581 0.134119
H17   H     H_    0.360733 0.865984 0.402097 0.133450
H18   H     H_    0.056243 0.351849 0.555603 0.185444
H19   H     H_    0.861499 0.429244 0.383542 0.169547
H20   H     H_    0.057175 0.407206 0.405586 0.135663
H21   H     H_    0.950340 0.654307 0.477836 0.178870
H22   H     H_    0.926563 0.605267 0.590836 0.183365
H23   H     H_    0.915222 0.552447 0.359708 0.169699
H24   H     H_    0.134002 0.597865 0.596388 0.192445
H25   H     H_    0.270261 0.645760 0.365428 0.153504
H26   H     H_    0.105213 0.656253 0.347778 0.136571
H27   H     H_    0.295540 0.632882 0.207011 0.241877
H28   H     H_    0.135124 0.649971 0.191517 0.228605
H29   H     H_    0.205597 0.805576 0.244854 0.267981
H30   H     H_    0.304737 0.797989 0.152107 0.276028
H31   H     H_    0.366836 0.788039 0.259775 0.257046
H32   H     H_    0.553632 0.257210 0.039952 0.158246
H33   H     H_    0.516951 0.455221 0.213376 0.169839
H34   H     H_    0.590472 0.739559 0.258329 0.163488
H35   H     H_    0.668878 0.754601 0.954718 0.146277
H36   H     H_    0.504000 0.216054 0.893413 0.140805
H37   H     H_    0.467840 0.263037 0.739910 0.157445
N1    N     N_R   0.573860 0.731700 0.552730 -0.098787
N2    N     N_R   0.426060 0.268290 0.447230 -0.123257
O1    O     O_R   0.462770 0.383110 0.605620 -0.618173
O2    O     O_R   0.510160 0.531900 0.639510 -0.622560
O3    O     O_R   0.661510 0.425600 0.483070 -0.626696
O4    O     O_R   0.708900 0.574390 0.516960 -0.627858
O5    O     O_R   0.489840 0.468100 0.360490 -0.612498
O6    O     O_R   0.537230 0.616890 0.394380 -0.626026
O7    O     O_R   0.291100 0.425610 0.483040 -0.616545
O8    O     O_R   0.338490 0.574400 0.516930 -0.638082
O9    O     O_3   0.143902 0.527602 0.332834 -0.644061
Zn1   Zn    Zn3+2 0.468350 0.400660 0.477370 0.944156
Zn2   Zn    Zn3+2 0.531650 0.599340 0.522630 0.928466

loop_
_geom_bond_atom_site_label_1
_geom_bond_atom_site_label_2
_ccdc_geom_bond_type
C35   N2    A    
C4    C41   S    
C34   H24   S    
C40   C41   S    
C48   H37   S    
C36   H8    S    
C18   C19   A    
C42   O9    S    
C2    C5    A    
C17   C46   A    
C23   H20   S    
C6    C7    A    
C27   H7    S    
C1    C45   S    
C45   C48   A    
C25   C26   A    
N2    Zn1   S    
C23   O9    S    
C12   C28   S    
C43   H27   S    
C18   H11   S    
C12   C34   S    
C29   C30   A    
C14   C15   A    
O7    Zn1   S    
C15   H34   S    
C39   H23   S    
C38   H18   S    
C1    O1    A    
C13   C17   A    
C20   H14   S    
C6    C13   A    
C7    C8    A    
C21   C24   A    
C49   H2    S    
C16   O6    A    
O2    Zn2   S    
C44   H30   S    
C29   H17   S    
C8    H32   S    
C40   H21   S    
C35   H9    S    
C39   C41   S    
C20   N1    A    
C20   C21   A    
C38   H15   S    
C15   C46   A    
C2    C49   A    
Br1   C33   S    
C42   H25   S    
C39   H19   S    
C7    H4    S    
O6    Zn2   S    
C24   C29   A    
C37   H1    S    
C24   C25   A    
C32   C36   A    
C12   C23   S    
C31   C33   A    
C30   H10   S    
C18   C22   A    
C42   C43   S    
C25   C32   A    
C30   C31   A    
C11   C14   A    
C17   H33   S    
C44   H29   S    
C22   C27   A    
C9    H5    S    
O4    Zn2   S    
N1    Zn2   S    
C40   H22   S    
C47   C48   A    
C11   C13   A    
C47   H36   S    
C2    C3    A    
O1    Zn1   S    
O8    Zn2   S    
C43   C44   S    
C3    C47   A    
C42   H26   S    
C44   H31   S    
C16   C46   S    
C5    C9    A    
C28   O7    A    
C4    O4    A    
C10   C11   A    
C37   C41   S    
C5    C6    A    
C28   O8    A    
C45   C49   A    
C36   N2    A    
C31   C32   A    
C19   H13   S    
C43   H28   S    
C26   H16   S    
C14   H6    S    
C37   C38   S    
C37   H3    S    
O5    Zn1   S    
C10   H35   S    
C19   N1    A    
C23   C39   S    
C34   H12   S    
C33   C35   A    
C1    O2    A    
C34   C40   S    
C12   C38   S    
C4    O3    A    
C9    C10   A    
C26   C27   A    
C21   C22   A    
C16   O5    A    
C3    C8    A    
O3    Zn1   S    
