data_mof_unit_25650.cif
_audit_creation_date              2012-12-10T17:24:12-0500
_audit_creation_method            fapswitch 2.2
_symmetry_space_group_name_H-M    P1
_symmetry_Int_Tables_number       1
_space_group_crystal_system       triclinic
_cell_length_a                    19.336971
_cell_length_b                    10.852662
_cell_length_c                    9.587451
_cell_angle_alpha                 89.24187
_cell_angle_beta                  90.28837
_cell_angle_gamma                 92.823622
_cell_volume                      2009.36156158

loop_
_atom_site_label
_atom_site_type_symbol
_atom_type_description
_atom_site_fract_x
_atom_site_fract_y
_atom_site_fract_z
_atom_type_partial_charge
C1    C     C_R   0.504764 0.262753 0.501783 0.815634
C2    C     C_R   0.291379 0.496212 0.498866 -0.034196
C3    C     C_R   0.929323 0.489249 0.497162 0.435530
C4    C     C_R   0.069597 0.489292 0.496757 0.408363
C5    C     C_R   0.815164 0.428622 0.604456 -0.254665
C6    C     C_R   0.742658 0.431958 0.608769 0.430461
C7    C     C_R   0.708047 0.495028 0.501668 -0.095645
C8    C     C_R   0.746098 0.555504 0.394778 -0.275813
C9    C     C_R   0.817977 0.553836 0.393311 -0.155484
C10   C     C_R   0.853182 0.490785 0.498340 0.002539
C11   C     C_R   0.521477 0.109077 0.766880 -0.215642
C12   C     C_R   0.367481 0.498841 0.499712 0.793465
C13   C     C_R   0.504778 0.042457 0.888606 -0.185466
C14   C     C_R   0.466672 0.930240 0.880637 0.237078
C15   C     C_R   0.454994 0.877137 0.750269 -0.154327
C16   C     C_R   0.482544 0.934727 0.628190 0.046107
C17   C     C_R   0.504534 0.059888 0.634206 0.101356
C18   C     C_R   0.509684 0.128444 0.506878 -0.101348
C19   C     C_R   0.511370 0.065786 0.380252 -0.219700
C20   C     C_R   0.505996 0.938379 0.378911 -0.216876
C21   C     C_R   0.490995 0.871394 0.501482 -0.095150
C22   C     C_R   0.591455 0.665168 0.142670 -0.217918
C23   C     C_R   0.495399 0.737166 0.499763 0.771511
C24   C     C_R   0.635525 0.747579 0.070132 -0.234124
C25   C     C_R   0.635867 0.748230 0.925773 0.178520
C26   C     C_R   0.591974 0.664745 0.854662 -0.127081
C27   C     C_R   0.545380 0.580583 0.924640 0.148817
C28   C     C_R   0.545286 0.580599 0.074002 0.130786
C29   C     C_R   0.455432 0.423815 0.075953 0.537518
C30   C     C_R   0.455477 0.425711 0.926100 -0.206877
C31   C     C_R   0.632304 0.498444 0.500427 0.806600
C32   C     C_R   0.254405 0.478500 0.623753 -0.190268
C33   C     C_R   0.182280 0.475328 0.622875 -0.155116
C34   C     C_R   0.145822 0.490732 0.497253 0.061378
C35   C     C_R   0.182861 0.508330 0.372351 -0.167027
C36   C     C_R   0.254982 0.510500 0.373057 -0.177489
Cu1   Cu    Cu3+1 0.500000 0.499990 0.640660 0.929254
Cu2   Cu    Cu3+1 0.500000 0.500010 0.359340 0.962838
H1    H     H_    0.281122 0.466549 0.722227 0.145756
H2    H     H_    0.550755 0.195484 0.778706 0.183511
H3    H     H_    0.519561 0.080261 0.989024 0.130429
H4    H     H_    0.424828 0.790697 0.745560 0.163385
H5    H     H_    0.513870 0.892360 0.281752 0.167188
H6    H     H_    0.595543 0.672834 0.252535 0.211290
H7    H     H_    0.669418 0.811376 0.127597 0.153605
H8    H     H_    0.596437 0.670461 0.744652 0.202305
H9    H     H_    0.155178 0.461838 0.720873 0.151568
H10   H     H_    0.418697 0.368332 0.868020 0.157979
H11   H     H_    0.156184 0.519854 0.273812 0.152719
H12   H     H_    0.282163 0.523954 0.275101 0.166285
H13   H     H_    0.841692 0.374556 0.681728 0.155611
H14   H     H_    0.720209 0.605419 0.312872 0.158730
H15   H     H_    0.845938 0.602463 0.310089 0.163428
H16   H     H_    0.518267 0.115051 0.281876 0.156291
N1    N     N_R   0.034518 0.526995 0.382164 -0.240769
N2    N     N_R   0.965731 0.527207 0.382451 -0.240445
N3    N     N_R   0.964401 0.451129 0.611539 -0.240425
N4    N     N_R   0.033176 0.451338 0.611423 -0.241465
N5    N     N_R   0.500660 0.501210 0.147910 -0.221041
N6    N     N_R   0.500680 0.501290 0.852040 -0.217056
O1    O     O_R   0.499990 0.319640 0.618810 -0.585906
O2    O     O_R   0.500000 0.319660 0.381240 -0.555103
O3    O     O_R   0.400140 0.499970 0.618820 -0.590106
O4    O     O_R   0.400150 0.500000 0.381250 -0.528179
O5    O     O_R   0.500000 0.680340 0.618760 -0.607508
O6    O     O_R   0.500010 0.680360 0.381190 -0.601048
O7    O     O_R   0.599850 0.500000 0.618750 -0.572678
O8    O     O_R   0.599860 0.500030 0.381180 -0.607629
C37   C     C_3   0.442227 0.864285 0.010830 -0.886372
H17   H     H_    0.415411 0.928374 0.079127 0.227002
H18   H     H_    0.405955 0.784647 0.987247 0.231096
H19   H     H_    0.487516 0.828914 0.066310 0.244766
O9    O     O_3   0.405944 0.355471 0.153230 -0.579521
C38   C     C_3   0.389406 0.236871 0.099331 0.017461
H20   H     H_    0.390835 0.169574 0.187520 0.173857
H21   H     H_    0.427159 0.205947 0.022087 0.119249
C39   C     C_3   0.315945 0.231982 0.038674 -0.357605
H22   H     H_    0.278456 0.248518 0.123135 0.230358
H23   H     H_    0.311013 0.305515 0.958122 0.206352
C40   C     C_3   0.297720 0.107098 0.973224 -0.886563
H24   H     H_    0.334125 0.089466 0.887258 0.265419
H25   H     H_    0.244360 0.106570 0.929862 0.258838
H26   H     H_    0.300129 0.032268 0.052988 0.256002
C41   C     C_3   0.682542 0.838098 0.845639 -0.870627
H27   H     H_    0.714217 0.898690 0.916267 0.237568
H28   H     H_    0.718002 0.786908 0.779391 0.225855
H29   H     H_    0.650800 0.897225 0.777878 0.244871
O10   O     O_3   0.704638 0.360437 0.704992 -0.608721
C42   C     C_3   0.719818 0.400569 0.841900 0.073729
H30   H     H_    0.713805 0.501869 0.850648 0.144411
H31   H     H_    0.773360 0.378396 0.872650 0.140889
C43   C     C_3   0.669589 0.333154 0.942931 -0.344088
H32   H     H_    0.615802 0.356224 0.916267 0.222604
H33   H     H_    0.673571 0.231841 0.932530 0.222248
C44   C     C_3   0.684967 0.368710 0.093787 -0.884910
H34   H     H_    0.736864 0.338679 0.125736 0.259223
H35   H     H_    0.645428 0.323294 0.163500 0.263256
H36   H     H_    0.683608 0.470069 0.105668 0.265087

loop_
_geom_bond_atom_site_label_1
_geom_bond_atom_site_label_2
_ccdc_geom_bond_type
N1    N2    A    
C16   C21   A    
O9    C38   S    
C44   H34   S    
C41   H29   S    
C2    C12   S    
C1    O2    A    
C13   H3    S    
C44   H36   S    
C7    C8    A    
C39   H22   S    
C31   O7    A    
C26   C27   A    
Cu1   Cu2   S    
C38   H21   S    
C24   H7    S    
C23   O6    A    
C30   H10   S    
C41   H28   S    
C18   C19   A    
C27   N6    A    
C5    C6    A    
C12   O4    A    
C28   N5    A    
C29   O9    S    
C15   C16   A    
C6    O10   S    
C2    C32   A    
C34   C35   A    
C32   H1    S    
C37   H18   S    
C22   H6    S    
C29   N5    A    
C8    C9    A    
C38   C39   S    
C30   N6    A    
C35   H11   S    
C25   C41   S    
C42   H31   S    
C9    C10   A    
C8    H14   S    
C22   C28   A    
C13   C14   A    
C11   H2    S    
C40   H26   S    
Cu1   O3    S    
C33   C34   A    
Cu2   O4    S    
C39   H23   S    
C31   O8    A    
C4    C34   S    
C7    C31   S    
C38   H20   S    
Cu2   O6    S    
C24   C25   A    
C40   H25   S    
C12   O3    A    
C16   C17   A    
C25   C26   A    
C43   C44   S    
Cu1   O5    S    
C35   C36   A    
C37   H19   S    
C29   C30   A    
C3    N2    A    
C20   C21   A    
C43   H33   S    
C17   C18   A    
C1    C18   S    
C41   H27   S    
C42   C43   S    
C3    N3    A    
C19   H16   S    
Cu2   O8    S    
C21   C23   S    
C4    N1    A    
C33   H9    S    
C14   C37   S    
C22   C24   A    
C9    H15   S    
C20   H5    S    
C36   H12   S    
C39   C40   S    
C2    C36   A    
C11   C17   A    
C15   H4    S    
C40   H24   S    
C1    O1    A    
Cu1   O1    S    
C44   H35   S    
C6    C7    A    
C32   C33   A    
C23   O5    A    
C19   C20   A    
C5    C10   A    
C3    C10   S    
C11   C13   A    
N3    N4    A    
Cu1   O7    S    
C43   H32   S    
C37   H17   S    
Cu1   N6    S    
C26   H8    S    
Cu2   N5    S    
O10   C42   S    
C4    N4    A    
C27   C28   A    
C14   C15   A    
C5    H13   S    
C42   H30   S    
Cu2   O2    S    
