data_mof_unit_57684.cif
_audit_creation_date              2013-03-05T15:48:50-0500
_audit_creation_method            fapswitch 2.2
_symmetry_space_group_name_H-M    P1
_symmetry_Int_Tables_number       1
_space_group_crystal_system       triclinic
_cell_length_a                    10.097566
_cell_length_b                    10.804272
_cell_length_c                    27.675275
_cell_angle_alpha                 90.091524
_cell_angle_beta                  81.685074
_cell_angle_gamma                 95.335474
_cell_volume                      2974.38777116

loop_
_atom_site_label
_atom_site_type_symbol
_atom_site_description
_atom_site_fract_x
_atom_site_fract_y
_atom_site_fract_z
_atom_type_partial_charge
O1    O     O_R   0.431060 0.692470 0.504020 -0.610880
O2    O     O_R   0.568940 0.307530 0.495980 -0.614074
O3    O     O_R   0.651120 0.659650 0.491200 -0.604076
O4    O     O_R   0.348880 0.340350 0.508800 -0.600829
C1    C     C_R   0.556274 0.732773 0.498125 0.972832
C2    C     C_R   0.443848 0.267271 0.504680 0.978579
O5    O     O_R   0.389980 0.516390 0.577660 -0.577434
O6    O     O_R   0.610020 0.483610 0.422340 -0.573075
O7    O     O_R   0.610040 0.483570 0.564830 -0.597490
O8    O     O_R   0.389960 0.516430 0.435170 -0.591373
C3    C     C_R   0.501170 0.501285 0.593966 1.001312
C4    C     C_R   0.498632 0.498868 0.406004 1.008441
Zn1   Zn    Zn3+2 0.353060 0.521910 0.508560 1.055650
Zn2   Zn    Zn3+2 0.646940 0.478090 0.491440 1.058183
C5    C     C_R   0.536960 0.608177 0.823487 0.653028
C6    C     C_R   0.461370 0.392372 0.176806 0.653110
O9    O     O_2   0.607154 0.703918 0.797068 -0.472945
O10   O     O_2   0.470897 0.283480 0.199346 -0.463134
N1    N     N_R   0.484212 0.507652 0.800400 -0.323856
N2    N     N_R   0.468913 0.500803 0.202011 -0.325155
C7    C     C_R   0.415165 0.407289 0.825619 0.679707
C8    C     C_R   0.462420 0.613470 0.180460 0.684073
C9    C     C_R   0.577997 0.430933 0.720270 0.247511
C10   C     C_R   0.599366 0.541919 0.269566 0.246428
C11   C     C_R   0.580584 0.427593 0.669412 0.173010
C12   C     C_R   0.606221 0.543545 0.319875 0.165175
C13   C     C_R   0.424969 0.590120 0.675088 0.181175
C14   C     C_R   0.375319 0.444275 0.335984 0.192973
C15   C     C_R   0.418635 0.589773 0.725935 0.239169
C16   C     C_R   0.367090 0.447579 0.285936 0.243219
C17   C     C_R   0.494976 0.510284 0.748287 -0.018781
C18   C     C_R   0.479015 0.496002 0.252999 -0.022795
C19   C     C_R   0.448767 0.509455 0.901383 -0.077171
C20   C     C_R   0.440289 0.509010 0.104213 -0.076539
C21   C     C_R   0.517121 0.612640 0.874333 -0.021728
C22   C     C_R   0.443063 0.393915 0.127861 -0.035798
C23   C     C_R   0.565256 0.717526 0.898502 -0.063280
C24   C     C_R   0.429579 0.283052 0.102066 -0.042551
C25   C     C_R   0.398535 0.403925 0.877116 -0.189044
C26   C     C_R   0.451796 0.621113 0.130309 -0.188454
C27   C     C_R   0.503221 0.506682 0.646822 -0.360275
C28   C     C_R   0.493917 0.495010 0.353214 -0.362692
H1    H     H_    0.620926 0.796473 0.878446 0.220514
H2    H     H_    0.434756 0.193862 0.119200 0.241452
C29   C     C_R   0.445357 0.625808 0.028586 -0.095847
C30   C     C_R   0.381855 0.403085 0.979953 -0.089129
C31   C     C_R   0.402430 0.398591 0.029411 0.094239
C32   C     C_R   0.470600 0.622523 0.976964 0.106899
C33   C     C_R   0.427996 0.511335 0.054167 0.071184
C34   C     C_R   0.432505 0.511906 0.952794 0.071113
C35   C     C_R   0.442198 0.737950 0.055364 0.185080
C36   C     C_R   0.318310 0.302229 0.956328 0.169523
C37   C     C_R   0.447519 0.735592 0.105897 0.265686
C38   C     C_R   0.329087 0.301770 0.905033 0.249956
O11   O     O_2   0.465728 0.716675 0.207898 -0.437273
O12   O     O_2   0.362291 0.312498 0.800540 -0.435243
C39   C     C_R   0.542010 0.722598 0.949050 -0.101732
C40   C     C_R   0.408980 0.285301 0.053629 -0.086892
C41   C     C_2   0.588462 0.864806 0.501748 -0.295741
C42   C     C_2   0.412086 0.135353 0.511963 -0.287715
C43   C     C_2   0.488432 0.934000 0.517035 -0.075512
C44   C     C_2   0.512754 0.066313 0.515817 -0.087930
N3    N     N_2   0.842700 0.448890 0.480020 -0.175787
N4    N     N_2   0.157300 0.551110 0.519980 -0.190385
C45   C     C_2   0.926887 0.509295 0.504328 -0.055083
C46   C     C_2   0.072236 0.487982 0.496854 -0.058276
N5    N     N_R   0.351568 0.675495 0.652283 0.257283
O13   O     O_R   0.414831 0.756965 0.620483 -0.368015
O14   O     O_R   0.222102 0.674741 0.664441 -0.282911
N6    N     N_R   0.262898 0.388919 0.369155 0.245032
O15   O     O_R   0.144548 0.428180 0.370146 -0.318257
O16   O     O_R   0.277236 0.294682 0.396537 -0.378029
H3    H     H_    0.308974 0.094596 0.513351 0.170568
H4    H     H_    0.691330 0.905472 0.491517 0.170173
H5    H     H_    0.107870 0.417850 0.471396 0.212564
H6    H     H_    0.890522 0.577133 0.530764 0.169539
H7    H     H_    0.120471 0.617176 0.543910 0.201484
H8    H     H_    0.880275 0.385167 0.455156 0.213449
N7    N     N_R   0.335575 0.671199 0.755080 0.257673
O17   O     O_R   0.346097 0.789546 0.744872 -0.219956
O18   O     O_R   0.250445 0.627708 0.792340 -0.314878
N8    N     N_R   0.245520 0.399954 0.268238 0.260874
O19   O     O_R   0.190789 0.288574 0.280581 -0.231198
O20   O     O_R   0.190680 0.466652 0.238861 -0.296620
N9    N     N_R   0.726813 0.595817 0.336902 0.260191
O21   O     O_R   0.840896 0.551122 0.322195 -0.243095
O22   O     O_R   0.724025 0.692555 0.364975 -0.335067
N10   N     N_R   0.660444 0.342742 0.640996 0.257355
O23   O     O_R   0.789298 0.347921 0.641932 -0.298956
O24   O     O_R   0.603466 0.256121 0.616116 -0.348033
N11   N     N_R   0.712914 0.590522 0.235206 0.260001
O25   O     O_R   0.775359 0.698576 0.242046 -0.223292
O26   O     O_R   0.751348 0.529045 0.195997 -0.311637
N12   N     N_R   0.655626 0.350692 0.743872 0.258790
O27   O     O_R   0.652964 0.233107 0.733407 -0.224364
O28   O     O_R   0.725028 0.393736 0.777377 -0.313454
N13   N     N_R   0.444365 0.849943 0.132106 0.273806
O29   O     O_R   0.331075 0.898434 0.143842 -0.257465
O30   O     O_R   0.556259 0.912509 0.139149 -0.247225
N14   N     N_R   0.265408 0.198431 0.881964 0.280875
O31   O     O_R   0.136384 0.190281 0.881229 -0.245384
O32   O     O_R   0.333874 0.106512 0.866248 -0.233083
N15   N     N_R   0.416420 0.851578 0.032899 0.217816
O33   O     O_R   0.320367 0.851330 0.006202 -0.273185
O34   O     O_R   0.487268 0.955573 0.039379 -0.342353
N16   N     N_R   0.228977 0.208199 0.984209 0.218940
O35   O     O_R   0.140013 0.239902 0.019784 -0.295125
O36   O     O_R   0.233891 0.091195 0.973624 -0.239806
H9    H     H_    0.586701 0.803218 0.965910 0.196528
H10   H     H_    0.405393 0.197705 0.034807 0.219517
H11   H     H_    0.616158 0.106624 0.514349 0.207097
H12   H     H_    0.385245 0.893790 0.527169 0.208580

loop_
_geom_bond_atom_site_label_1
_geom_bond_atom_site_label_2
_geom_bond_distance
_ccdc_geom_bond_type
N3    C45   1.289170 D    
C23   H1    1.083388 S    
C13   C15   1.399390 A    
N4    H7    1.031027 S    
N1    C17   1.430694 S    
N13   O29   1.300785 A    
C32   C39   1.407967 A    
C31   C33   1.417697 A    
N9    O21   1.301184 A    
C5    N1    1.363866 A    
C19   C25   1.413077 A    
C45   H6    1.085339 S    
O1    C1    1.285694 A    
N1    C7    1.367515 A    
C10   C12   1.403988 A    
C25   C38   1.417371 A    
N16   O35   1.301535 A    
C29   C35   1.419751 A    
C35   N15   1.438795 S    
C30   C36   1.419715 A    
C42   H3    1.087507 S    
C42   C44   1.331795 D    
C14   C28   1.415705 A    
O4    Zn1   1.958151 S    
C4    C28   1.469013 S    
C24   C40   1.386532 A    
C39   H9    1.080081 S    
C44   H11   1.088461 S    
C15   N7    1.437804 S    
N6    O15   1.301373 A    
C20   C22   1.410613 A    
C43   C44   1.427419 S    
C6    N2    1.364184 A    
C32   C34   1.417788 A    
C36   N16   1.439430 S    
C38   N14   1.431986 S    
O2    C2    1.285626 A    
C5    C21   1.393793 A    
N13   O30   1.301061 A    
C36   C38   1.408029 A    
N9    O22   1.301298 A    
C41   C43   1.331890 D    
C1    C41   1.439927 S    
N5    O13   1.301033 A    
C2    C42   1.439484 S    
O4    C2    1.290306 A    
C11   C27   1.413626 A    
N11   O25   1.301244 A    
N7    O18   1.301197 A    
C37   N13   1.432238 S    
C19   C34   1.408988 A    
C11   N10   1.435586 S    
N5    O14   1.301191 A    
C9    C17   1.408030 A    
C16   N8    1.437777 S    
O5    C3    1.292944 A    
O7    Zn2   2.013083 S    
C10   C18   1.407659 A    
C24   H2    1.083591 S    
N11   O26   1.301201 A    
C13   C27   1.414362 A    
C7    C25   1.410867 A    
C29   C33   1.410034 A    
O6    C4    1.295536 A    
C8    C26   1.410584 A    
N14   O32   1.301059 A    
N15   O34   1.301302 A    
N12   O28   1.301221 A    
O7    C3    1.295227 A    
C41   H4    1.087476 S    
O3    Zn2   1.958151 S    
O8    C4    1.293720 A    
N10   O24   1.301309 A    
N8    O19   1.301251 A    
N8    O20   1.301239 A    
C20   C26   1.413299 A    
O1    Zn1   1.932393 S    
C10   N11   1.438363 S    
C12   C28   1.414420 A    
N2    C18   1.430782 S    
C29   C32   1.415442 A    
C5    O9    1.350238 S    
C30   C31   1.415417 A    
C20   C33   1.408808 A    
O6    Zn2   2.002589 S    
C21   C23   1.398940 A    
C40   H10   1.079741 S    
C14   N6    1.436370 S    
N2    C8    1.367588 A    
O3    C1    1.290443 A    
O8    Zn1   2.013080 S    
C7    O12   1.348658 S    
C26   C37   1.417462 A    
C8    O11   1.348621 S    
C30   C34   1.410194 A    
C9    N12   1.438398 S    
C22   C24   1.399275 A    
C15   C17   1.406132 A    
C6    C22   1.393684 A    
C31   C40   1.407938 A    
C16   C18   1.405539 A    
Zn1   N4    2.010405 S    
N16   O36   1.301004 A    
C12   N9    1.435615 S    
C46   H5    1.084284 S    
C14   C16   1.400232 A    
N14   O31   1.300723 A    
C19   C21   1.410603 A    
C3    C27   1.466920 S    
Zn2   N3    2.010404 S    
C9    C11   1.404438 A    
N12   O27   1.301271 A    
O2    Zn2   1.932391 S    
C13   N5    1.436249 S    
N7    O17   1.301246 A    
O5    Zn1   2.002592 S    
N10   O23   1.301115 A    
C6    O10   1.350286 S    
C45   C46   1.491562 S    
N15   O33   1.301291 A    
N6    O16   1.301337 A    
C35   C37   1.407671 A    
C43   H12   1.088445 S    
C23   C39   1.386463 A    
N4    C46   1.288895 D    
N3    H8    1.031032 S    
