data_mof_unit_67633.cif
_audit_creation_date              2012-12-10T18:20:00-0500
_audit_creation_method            fapswitch 2.2
_symmetry_space_group_name_H-M    P1
_symmetry_Int_Tables_number       1
_space_group_crystal_system       triclinic
_cell_length_a                    10.682678
_cell_length_b                    10.644444
_cell_length_c                    9.510238
_cell_angle_alpha                 91.365086
_cell_angle_beta                  92.135096
_cell_angle_gamma                 88.591147
_cell_volume                      1080.05877304

loop_
_atom_site_label
_atom_site_type_symbol
_atom_type_description
_atom_site_fract_x
_atom_site_fract_y
_atom_site_fract_z
_atom_type_partial_charge
C1    C     C_R   0.499847 0.259953 0.498709 0.880760
C2    C     C_3   0.403277 0.444690 0.043765 -0.058899
C3    C     C_R   0.259760 0.502623 0.497298 0.933137
C4    C     C_R   0.740312 0.499456 0.502377 0.910528
C5    C     C_3   0.050832 0.419377 0.583811 0.492523
C6    C     C_3   0.948563 0.588534 0.413829 0.465628
C7    C     C_3   0.961407 0.389699 0.458477 -0.087457
C8    C     C_3   0.038753 0.618331 0.538628 -0.027890
C9    C     C_3   0.877499 0.500754 0.506501 -0.116007
C10   C     C_3   0.122643 0.506213 0.491215 -0.112972
C11   C     C_3   0.966866 0.531330 0.633799 -0.381604
C12   C     C_R   0.496455 0.739955 0.501743 0.889266
C13   C     C_3   0.032668 0.477024 0.363112 -0.393960
C14   C     C_3   0.561191 0.045218 0.615810 -0.221611
C15   C     C_3   0.430865 0.954831 0.387770 -0.251433
C16   C     C_3   0.613212 0.954204 0.502337 -0.019991
C17   C     C_3   0.378810 0.045836 0.502096 -0.057746
C18   C     C_3   0.494672 0.876549 0.506201 -0.037628
C19   C     C_3   0.497634 0.123262 0.497255 -0.038076
C20   C     C_2   0.918722 0.260560 0.419502 0.512116
C21   C     C_2   0.081501 0.748747 0.572147 0.334320
C22   C     C_3   0.051117 0.306695 0.788192 0.079543
C23   C     C_3   0.441806 0.966546 0.619166 -0.025485
C24   C     C_3   0.104826 0.189364 0.858688 -0.798821
C25   C     C_3   0.945795 0.726207 0.228048 0.088906
C26   C     C_3   0.866892 0.831292 0.159224 -0.730270
C27   C     C_2   0.744607 0.902769 0.510483 0.399601
C28   C     C_2   0.246941 0.096574 0.498227 0.423366
C29   C     C_2   0.386145 0.934139 0.754966 0.439422
C30   C     C_2   0.611773 0.069829 0.255435 0.380790
C31   C     C_3   0.239965 0.697378 0.991742 0.066113
C32   C     C_3   0.128217 0.768088 0.927380 -0.781146
C33   C     C_3   0.782612 0.332628 0.000118 0.094257
C34   C     C_3   0.550585 0.032953 0.385250 -0.017783
C35   C     C_3   0.774841 0.190571 0.977453 -0.810443
C36   C     C_2   0.700491 0.631495 0.903013 0.381921
C37   C     C_2   0.293094 0.377058 0.093568 0.437454
C38   C     C_3   0.499407 0.614421 0.054284 -0.263605
C39   C     C_3   0.500979 0.385624 0.945683 -0.226138
C40   C     C_3   0.402807 0.557734 0.948727 0.550281
C41   C     C_3   0.597637 0.442558 0.050852 0.645284
C42   C     C_3   0.596740 0.555863 0.955663 -0.039718
Cu1   Cu    Cu3+1 0.500030 0.499990 0.643150 1.025067
Cu2   Cu    Cu3+1 0.499970 0.500010 0.356850 1.048330
H1    H     H_    0.939129 0.552596 0.742583 0.205555
H2    H     H_    0.064275 0.388316 0.861981 0.144622
H3    H     H_    0.208378 0.194619 0.870942 0.256667
H4    H     H_    0.065227 0.181034 0.964269 0.216137
H5    H     H_    0.080402 0.104557 0.794216 0.232957
H6    H     H_    0.963882 0.650533 0.148435 0.191441
H7    H     H_    0.036707 0.764830 0.267815 0.132768
H8    H     H_    0.878720 0.920749 0.219920 0.211184
H9    H     H_    0.894317 0.845734 0.049855 0.219838
H10   H     H_    0.766095 0.807419 0.155271 0.260910
H11   H     H_    0.817112 0.946644 0.453660 0.120169
H12   H     H_    0.059262 0.456026 0.253471 0.158301
H13   H     H_    0.180213 0.062851 0.570676 0.080570
H14   H     H_    0.293543 0.969648 0.779590 0.034673
H15   H     H_    0.585376 0.026700 0.154567 0.069726
H16   H     H_    0.305782 0.769782 0.033090 0.169330
H17   H     H_    0.208051 0.641702 0.080663 0.098577
H18   H     H_    0.051127 0.702871 0.900395 0.256430
H19   H     H_    0.096825 0.841660 0.003350 0.194641
H20   H     H_    0.155545 0.815927 0.832002 0.264671
H21   H     H_    0.880608 0.355495 0.032122 0.158184
H22   H     H_    0.763186 0.376646 0.896259 0.142898
H23   H     H_    0.614992 0.083615 0.708643 0.164399
H24   H     H_    0.676071 0.160927 0.976403 0.252172
H25   H     H_    0.813859 0.161870 0.874806 0.206569
H26   H     H_    0.830767 0.141110 0.060684 0.262732
H27   H     H_    0.679530 0.707093 0.830883 0.166555
H28   H     H_    0.199362 0.415098 0.074254 0.013502
H29   H     H_    0.377397 0.916612 0.294556 0.158705
H30   H     H_    0.504070 0.709786 0.103740 0.155692
H31   H     H_    0.500241 0.289926 0.896866 0.155192
H32   H     H_    0.936764 0.220735 0.315999 0.106074
H33   H     H_    0.016053 0.819207 0.611629 0.122565
H34   H     H_    0.949440 0.293292 0.765295 0.163444
N1    N     N_3   0.500090 0.499970 0.858290 -0.239184
N2    N     N_3   0.499910 0.500030 0.141710 -0.223616
O1    O     O_R   0.500060 0.316850 0.620870 -0.622183
O2    O     O_2   0.189524 0.777020 0.553825 -0.616882
O3    O     O_3   0.114654 0.326072 0.663969 -0.563309
O4    O     O_3   0.877564 0.679201 0.337693 -0.566271
O5    O     O_2   0.771744 0.815299 0.587243 -0.584030
O6    O     O_2   0.212730 0.172414 0.409858 -0.520294
O7    O     O_2   0.446876 0.872081 0.840713 -0.566834
O8    O     O_2   0.694171 0.146723 0.264023 -0.528719
O9    O     O_3   0.295777 0.619026 0.888340 -0.530203
O10   O     O_3   0.703377 0.376699 0.108612 -0.521966
O11   O     O_2   0.808326 0.610709 0.943264 -0.635667
O12   O     O_R   0.499940 0.683150 0.379130 -0.618906
O13   O     O_2   0.308253 0.277995 0.154416 -0.500805
O14   O     O_R   0.500000 0.316860 0.379090 -0.503699
O15   O     O_R   0.500000 0.683140 0.620910 -0.539273
O16   O     O_R   0.316880 0.499960 0.620870 -0.511304
O17   O     O_R   0.683120 0.500040 0.379130 -0.514697
O18   O     O_R   0.316830 0.499970 0.379090 -0.607791
O19   O     O_R   0.683170 0.500030 0.620910 -0.617061
O20   O     O_2   0.864475 0.199415 0.504301 -0.595083

loop_
_geom_bond_atom_site_label_1
_geom_bond_atom_site_label_2
_ccdc_geom_bond_type
C31   H16   S    
C15   C18   S    
C41   C42   S    
C31   H17   S    
C36   C42   S    
C2    C37   S    
C6    C9    S    
C33   H21   S    
C39   C41   S    
C28   H13   S    
C17   C23   S    
C23   C29   S    
Cu1   O19   S    
C5    C11   S    
C5    O3    S    
C27   H11   S    
C1    O1    A    
C20   H32   S    
C15   C17   S    
C27   O5    D    
C25   H6    S    
C16   C34   S    
Cu2   O18   S    
C2    C39   S    
C35   H26   S    
C1    O14   A    
C31   O9    S    
C25   O4    S    
Cu1   O15   S    
C14   H23   S    
C12   O15   A    
C3    O16   A    
C39   H31   S    
C40   O9    S    
C15   C34   S    
Cu2   O12   S    
C36   H27   S    
C13   H12   S    
C16   C27   S    
C41   O10   S    
C42   N1    S    
C4    O17   A    
C24   H3    S    
C37   H28   S    
C41   N2    S    
C26   H10   S    
C33   H22   S    
Cu1   O16   S    
C1    C19   S    
C6    O4    S    
C30   C34   S    
C18   C23   S    
C24   H4    S    
Cu2   N2    S    
C2    N2    S    
C32   H20   S    
C5    C7    S    
C6    C8    S    
C25   C26   S    
C10   C13   S    
C39   N1    S    
C14   C23   S    
Cu1   Cu2   S    
C25   H7    S    
C33   C35   S    
C26   H8    S    
Cu2   O17   S    
C31   C32   S    
C20   O20   D    
C30   H15   S    
C12   C18   S    
C8    C21   S    
C40   N1    S    
C37   O13   D    
C21   O2    D    
C9    C11   S    
C22   H34   S    
C36   O11   D    
C16   C18   S    
C22   H2    S    
C28   O6    D    
Cu1   O1    S    
C14   C16   S    
C11   H1    S    
C30   O8    D    
C26   H9    S    
C38   H30   S    
C24   H5    S    
C7    C9    S    
C15   H29   S    
C17   C28   S    
C14   C19   S    
C12   O12   A    
C32   H19   S    
C19   C34   S    
C38   C42   S    
C22   O3    S    
C32   H18   S    
C5    C10   S    
C3    C10   S    
C33   O10   S    
C6    C13   S    
C38   C40   S    
C3    O18   A    
C38   N2    S    
C35   H24   S    
C8    C11   S    
C17   C19   S    
C22   C24   S    
C29   O7    D    
Cu2   O14   S    
C2    C40   S    
C7    C13   S    
C29   H14   S    
C35   H25   S    
C8    C10   S    
C7    C20   S    
C4    O19   A    
C21   H33   S    
C4    C9    S    
Cu1   N1    S    
