data_mof_unit_22726.cif
_audit_creation_date              2012-10-26T20:31:44-0400
_audit_creation_method            fapswitch 2.2
_symmetry_space_group_name_H-M    P1
_symmetry_Int_Tables_number       1
_space_group_crystal_system       triclinic
_cell_length_a                    15.881144
_cell_length_b                    10.850986
_cell_length_c                    9.596302
_cell_angle_alpha                 90.1451
_cell_angle_beta                  89.798859
_cell_angle_gamma                 90.740517
_cell_volume                      1653.53960154

loop_
_atom_site_label
_atom_site_type_symbol
_atom_type_description
_atom_site_fract_x
_atom_site_fract_y
_atom_site_fract_z
_atom_type_partial_charge
C1    C     C_R   0.500117 0.262640 0.499960 0.542767
C2    C     C_R   0.494445 0.129571 0.499973 -0.042223
C3    C     C_R   0.479557 0.065219 0.375852 -0.172529
C4    C     C_R   0.340422 0.499707 0.500158 0.547110
C5    C     C_R   0.476040 0.936718 0.374163 0.059453
C6    C     C_R   0.490375 0.870949 0.499236 0.018946
C7    C     C_R   0.495688 0.936910 0.624695 0.016578
C8    C     C_3   0.559409 0.929672 0.739570 -0.037258
C9    C     C_3   0.563101 0.070902 0.736664 0.025932
C10   C     C_R   0.561668 0.561178 0.073509 0.056880
C11   C     C_R   0.436871 0.443519 0.075673 0.390825
C12   C     C_3   0.949329 0.356086 0.511446 0.375074
C13   C     C_R   0.433940 0.450849 0.926141 0.386125
C14   C     C_R   0.562872 0.557986 0.926681 0.093502
C15   C     C_3   0.654608 0.528789 0.923012 0.150656
C16   C     C_R   0.498103 0.737563 0.499893 0.550126
C17   C     C_3   0.653598 0.535710 0.081116 -0.224212
C18   C     C_R   0.659533 0.499956 0.499643 0.525936
C19   C     C_3   0.048226 0.362583 0.512668 -0.184672
C20   C     C_3   0.049169 0.557455 0.355974 0.206142
C21   C     C_3   0.950259 0.545990 0.342804 0.375450
C22   C     C_1   0.748901 0.498212 0.498249 -0.056150
C23   C     C_3   0.916381 0.494375 0.490716 0.074159
C24   C     C_3   0.083189 0.497744 0.496592 0.031230
C25   C     C_3   0.851022 0.209870 0.410492 -0.096765
C26   C     C_3   0.369817 0.257029 0.113834 -0.109298
C27   C     C_3   0.294475 0.472598 0.878679 -0.102149
C28   C     C_3   0.754919 0.385912 0.865213 -0.119952
C29   C     C_3   0.113865 0.410745 0.200470 -0.118674
C30   C     C_3   0.893080 0.753419 0.380847 -0.143514
C31   C     C_3   0.951623 0.574909 0.616910 -0.266444
C32   C     C_3   0.050368 0.574713 0.625492 0.184961
C33   C     C_1   0.824300 0.495959 0.495353 -0.038138
C34   C     C_1   0.175472 0.498219 0.498410 0.023346
C35   C     C_1   0.250930 0.498972 0.499891 -0.002215
C36   C     C_R   0.498209 0.064193 0.624286 0.045560
Cu1   Cu    Cu3+1 0.500000 0.499980 0.640670 1.037389
Cu2   Cu    Cu3+1 0.500000 0.500020 0.359330 1.007282
H1    H     H_    0.073782 0.318573 0.607378 0.095203
H2    H     H_    0.060961 0.657040 0.367547 0.166484
H3    H     H_    0.923951 0.542606 0.716642 0.104496
H4    H     H_    0.800879 0.260223 0.466270 0.140076
H5    H     H_    0.863149 0.121459 0.464380 0.115071
H6    H     H_    0.826925 0.187462 0.304962 0.119364
H7    H     H_    0.934672 0.348825 0.731384 0.187380
H8    H     H_    0.943707 0.212452 0.653781 0.223586
H9    H     H_    0.403654 0.904608 0.204762 0.229828
H10   H     H_    0.508526 0.901926 0.174442 0.225634
H11   H     H_    0.571361 0.874957 0.941067 0.209627
H12   H     H_    0.928911 0.670198 0.616143 0.093921
H13   H     H_    0.503220 0.788976 0.849345 0.259873
H14   H     H_    0.571638 0.113942 0.944299 0.228938
H15   H     H_    0.471195 0.099141 0.887581 0.258152
H16   H     H_    0.345046 0.204921 0.204740 0.122815
H17   H     H_    0.432230 0.218501 0.085908 0.106826
H18   H     H_    0.324538 0.241475 0.027693 0.148365
H19   H     H_    0.243627 0.439342 0.808657 0.162185
H20   H     H_    0.306784 0.571534 0.854166 0.133716
H21   H     H_    0.270410 0.463741 0.986785 0.145083
H22   H     H_    0.785104 0.391747 0.969481 0.096094
H23   H     H_    0.474171 0.113641 0.278521 0.129173
H24   H     H_    0.786262 0.451140 0.791960 0.123476
H25   H     H_    0.764336 0.291341 0.824395 0.152234
H26   H     H_    0.059684 0.346720 0.212215 0.163345
H27   H     H_    0.168642 0.380019 0.261802 0.131775
H28   H     H_    0.132872 0.404588 0.089434 0.128782
H29   H     H_    0.863716 0.446978 0.226572 0.234184
H30   H     H_    0.948647 0.489769 0.136235 0.254453
H31   H     H_    0.948147 0.794193 0.433319 0.092607
H32   H     H_    0.841138 0.726528 0.451867 0.112713
H33   H     H_    0.867300 0.829127 0.317084 0.141510
H34   H     H_    0.618941 0.884297 0.707467 0.096292
H35   H     H_    0.050194 0.435399 0.779823 0.199559
H36   H     H_    0.061191 0.575951 0.841737 0.238664
H37   H     H_    0.075271 0.745157 0.718423 0.234766
H38   H     H_    0.056743 0.758171 0.551335 0.190241
H39   H     H_    0.624485 0.109869 0.700351 0.120649
H40   H     H_    0.074262 0.301702 0.431317 0.124444
H41   H     H_    0.692319 0.602596 0.870254 0.086297
H42   H     H_    0.667132 0.446377 0.132462 0.169188
H43   H     H_    0.690010 0.615832 0.122601 0.098347
N1    N     N_R   0.500530 0.500930 0.147930 -0.240631
N2    N     N_R   0.500530 0.500890 0.852020 -0.220324
N3    N     N_3   0.917690 0.299981 0.642728 -0.656671
N4    N     N_3   0.461185 0.874825 0.244248 -0.587277
N5    N     N_3   0.522906 0.879587 0.867899 -0.641107
N6    N     N_3   0.531199 0.132988 0.861593 -0.559708
N7    N     N_3   0.929277 0.455823 0.233408 -0.537404
N8    N     N_3   0.078755 0.519652 0.758173 -0.619251
N9    N     N_3   0.085928 0.701606 0.622747 -0.600606
O1    O     O_R   0.500000 0.319640 0.618810 -0.431370
O2    O     O_3   0.374087 0.383023 0.150324 -0.547348
O3    O     O_3   0.366456 0.399718 0.855312 -0.552515
O4    O     O_3   0.667754 0.407529 0.873958 -0.520423
O5    O     O_3   0.094522 0.534905 0.229400 -0.571736
O6    O     O_3   0.915774 0.658386 0.289044 -0.580669
O7    O     O_R   0.500010 0.319680 0.381230 -0.500783
O8    O     O_R   0.379430 0.499990 0.618840 -0.468746
O9    O     O_R   0.379440 0.500030 0.381260 -0.438777
O10   O     O_R   0.499990 0.680320 0.618770 -0.536551
O11   O     O_R   0.500000 0.680360 0.381190 -0.458427
O12   O     O_R   0.620560 0.499970 0.618740 -0.464210
O13   O     O_R   0.620570 0.500010 0.381160 -0.521694
O14   O     O_3   0.927255 0.277992 0.396069 -0.550431

loop_
_geom_bond_atom_site_label_1
_geom_bond_atom_site_label_2
_ccdc_geom_bond_type
C4    O8    A    
C7    C36   A    
C26   H17   S    
C25   H5    S    
C15   O4    S    
C30   H33   S    
C7    C8    S    
C12   C23   S    
H29   N7    S    
Cu2   O13   S    
H9    N4    S    
H36   N8    S    
C1    C2    S    
Cu2   O11   S    
C29   H26   S    
Cu1   O12   S    
C20   H2    S    
C10   C17   S    
C26   O2    S    
C12   N3    S    
C28   O4    S    
C34   C35   T    
C18   O12   A    
C30   O6    S    
H37   N9    S    
C11   O2    S    
C32   N9    S    
C32   N8    S    
C8    C9    S    
C23   C33   S    
C9    C36   S    
C8    N5    S    
C5    N4    S    
C3    H23   S    
C21   N7    S    
C1    O1    A    
Cu2   N1    S    
C14   N2    A    
Cu2   O7    S    
C26   H16   S    
C25   H6    S    
Cu1   O8    S    
C30   H32   S    
C28   H22   S    
C11   N1    A    
C15   H41   S    
C8    H34   S    
Cu1   O1    S    
C20   C24   S    
C27   H19   S    
C1    O7    A    
C29   O5    S    
C16   O10   A    
C10   N1    A    
C17   H42   S    
C24   C34   S    
C13   O3    S    
C23   C31   S    
C19   H40   S    
C24   C32   S    
Cu1   Cu2   S    
C31   C32   S    
H15   N6    S    
C9    H39   S    
C19   H1    S    
C29   H27   S    
C20   O5    S    
C21   C23   S    
C10   C14   A    
H30   N7    S    
H8    N3    S    
C27   O3    S    
H7    N3    S    
C31   H12   S    
C30   H31   S    
C2    C36   A    
C15   C17   S    
C22   C33   T    
C31   H3    S    
C18   C22   S    
H11   N5    S    
H10   N4    S    
H14   N6    S    
Cu2   O9    S    
C3    C5    A    
C27   H20   S    
C26   H18   S    
C25   H4    S    
C25   O14   S    
C12   O14   S    
C6    C7    A    
C21   O6    S    
C13   N2    A    
C2    C3    A    
H35   N8    S    
C27   H21   S    
C9    N6    S    
C11   C13   A    
C5    C6    A    
C12   C19   S    
C19   C24   S    
C17   H43   S    
C18   O13   A    
H13   N5    S    
C4    C35   S    
C6    C16   S    
C29   H28   S    
C28   H25   S    
C16   O11   A    
C20   C21   S    
C4    O9    A    
C14   C15   S    
Cu1   N2    S    
Cu1   O10   S    
H38   N9    S    
C28   H24   S    
