data_mof_unit_24025.cif
_audit_creation_date              2012-12-11T14:51:50-0500
_audit_creation_method            fapswitch 2.2
_symmetry_space_group_name_H-M    P1
_symmetry_Int_Tables_number       1
_space_group_crystal_system       triclinic
_cell_length_a                    6.933757
_cell_length_b                    16.762706
_cell_length_c                    16.857192
_cell_angle_alpha                 101.389692
_cell_angle_beta                  89.932005
_cell_angle_gamma                 90.617579
_cell_volume                      1920.58940357

loop_
_atom_site_label
_atom_site_type_symbol
_atom_type_description
_atom_site_fract_x
_atom_site_fract_y
_atom_site_fract_z
_atom_type_partial_charge
O1    O     O_R   0.506340 0.439070 0.579550 -0.539099
O2    O     O_R   0.170010 0.404890 0.412100 -0.543298
O3    O     O_R   0.005010 0.560930 0.420450 -0.541385
C1    C     C_R   0.339612 0.381502 0.383195 0.667732
O4    O     O_R   0.176280 0.429360 0.578400 -0.507744
O5    O     O_R   0.011320 0.585570 0.587940 -0.532956
C2    C     C_R   0.342361 0.413914 0.605939 0.736541
O6    O     O_R   0.500030 0.414430 0.412060 -0.542713
O7    O     O_3   0.340950 0.551220 0.502940 -0.373349
V1    V     V_3+5 0.064020 0.490500 0.499460 1.445646
O8    O     O_R   0.681910 0.595110 0.587900 -0.544835
C3    C     C_R   0.851783 0.619118 0.616105 0.678812
O9    O     O_R   0.675640 0.570640 0.421600 -0.543174
C4    C     C_R   0.843119 0.586141 0.394477 0.688765
V2    V     V_3+5 0.564670 0.509500 0.500540 1.406973
O10   O     O_3   0.837610 0.448780 0.497060 -0.359722
C5    C     C_R   0.925902 0.861258 0.167458 -0.070956
C6    C     C_R   0.839759 0.638521 0.332466 -0.068162
C7    C     C_R   0.650147 0.694049 0.233759 -0.202039
C8    C     C_R   0.671167 0.639210 0.285672 -0.164436
C9    C     C_R   0.989985 0.693309 0.324489 -0.246741
C10   C     C_R   0.968749 0.749466 0.272629 0.160114
C11   C     C_R   0.796995 0.750200 0.227165 0.160337
C12   C     C_R   0.775754 0.806390 0.175330 -0.245479
C13   C     C_R   0.094475 0.860541 0.214250 -0.163941
C14   C     C_R   0.115569 0.805628 0.266069 -0.202174
H1    H     H_    0.646079 0.805461 0.139294 0.122369
H2    H     H_    0.212909 0.902133 0.209906 0.126468
H3    H     H_    0.517765 0.693056 0.199438 0.121839
H4    H     H_    0.247941 0.806612 0.300389 0.121635
H5    H     H_    0.552681 0.597660 0.290089 0.125895
H6    H     H_    0.119701 0.694235 0.360503 0.121394
C15   C     C_3   0.793559 0.817063 0.731437 -0.137765
C16   C     C_3   0.963941 0.772436 0.682666 -0.139655
H7    H     H_    0.029878 0.788908 0.627972 0.100981
H8    H     H_    0.719613 0.871273 0.717942 0.099524
C17   C     C_3   0.866488 0.690220 0.686251 -0.013427
C18   C     C_3   0.695920 0.734036 0.734089 -0.115049
C19   C     C_3   0.803148 0.731516 0.814108 -0.136736
C20   C     C_3   0.973759 0.687149 0.765560 -0.133069
C21   C     C_3   0.071125 0.770007 0.762773 -0.120894
C22   C     C_3   0.900635 0.813507 0.810696 -0.010296
H9    H     H_    0.541303 0.718651 0.721923 0.104947
H10   H     H_    0.736045 0.716517 0.869168 0.107516
H11   H     H_    0.051754 0.634356 0.779472 0.102971
H12   H     H_    0.225752 0.785264 0.775093 0.105748
C23   C     C_3   0.555288 0.281241 0.275912 -0.104497
C24   C     C_3   0.489642 0.192119 0.273051 -0.147106
H13   H     H_    0.578842 0.144412 0.291758 0.100777
H14   H     H_    0.698599 0.306929 0.297332 0.112164
C25   C     C_3   0.408416 0.189004 0.187616 -0.009083
C26   C     C_3   0.473587 0.277373 0.189748 -0.147599
C27   C     C_3   0.276477 0.308022 0.226832 -0.147905
C28   C     C_3   0.210832 0.218898 0.223970 -0.105692
C29   C     C_3   0.292535 0.222765 0.310133 -0.146855
C30   C     C_3   0.357704 0.311133 0.312266 -0.005739
H15   H     H_    0.549435 0.299606 0.140157 0.101439
H16   H     H_    0.187280 0.355730 0.208125 0.099469
H17   H     H_    0.067518 0.193212 0.202552 0.113043
H18   H     H_    0.216685 0.200536 0.359725 0.102985
C31   C     C_R   0.429570 0.137202 0.831265 -0.070448
C32   C     C_R   0.334469 0.359613 0.666968 -0.169521
C33   C     C_R   0.142562 0.293832 0.758980 -0.294298
C34   C     C_R   0.163350 0.354984 0.713155 0.421217
C35   C     C_R   0.486896 0.306714 0.674814 -0.322112
C36   C     C_R   0.468405 0.249269 0.725665 0.162218
C37   C     C_R   0.294047 0.242599 0.767518 0.104873
C38   C     C_R   0.274184 0.186113 0.819029 -0.219936
C39   C     C_R   0.601759 0.142856 0.787583 -0.174167
C40   C     C_R   0.620378 0.197624 0.735064 -0.176343
H19   H     H_    0.141191 0.182920 0.852235 0.121810
H20   H     H_    0.724315 0.105369 0.794778 0.125385
H21   H     H_    0.006870 0.287026 0.789031 0.127250
H22   H     H_    0.754814 0.200414 0.702850 0.123935
H23   H     H_    0.618473 0.309434 0.640598 0.168314
O11   O     O_R   0.266070 0.085680 0.087850 -0.540579
O12   O     O_R   0.590090 0.070660 0.921580 -0.542981
O13   O     O_R   0.754780 0.914400 0.912080 -0.538030
C41   C     C_R   0.423703 0.085413 0.893771 0.697134
O14   O     O_R   0.596110 0.095130 0.087880 -0.539982
O15   O     O_R   0.760850 0.939050 0.079570 -0.537857
C42   C     C_R   0.426499 0.118594 0.116723 0.678392
O16   O     O_R   0.260010 0.061030 0.920360 -0.538076
O17   O     O_3   0.425070 0.948840 0.997010 -0.366656
V3    V     V_3+5 0.702100 0.009490 0.000550 1.394659
O18   O     O_R   0.090200 0.929250 0.078500 -0.541471
C43   C     C_R   0.922644 0.913730 0.105527 0.699209
O19   O     O_R   0.084180 0.904770 0.912200 -0.541903
C44   C     C_R   0.914769 0.882625 0.882404 0.679796
V4    V     V_3+5 0.201420 0.990350 0.999580 1.397790
O20   O     O_3   0.928580 0.051150 0.002990 -0.368783
O21   O     O_3   0.008730 0.405555 0.707917 -0.563641
C45   C     C_3   0.970696 0.454623 0.784757 0.064865
H24   H     H_    0.082011 0.503528 0.798578 0.100773
H25   H     H_    0.971531 0.420124 0.834750 0.115975
C46   C     C_3   0.771027 0.492037 0.783732 -0.264881
H26   H     H_    0.768966 0.533322 0.739871 0.184562
H27   H     H_    0.662526 0.443062 0.764017 0.204593
C47   C     C_3   0.714541 0.538798 0.867476 -0.875370
H28   H     H_    0.695350 0.496176 0.909753 0.234325
H29   H     H_    0.576270 0.570543 0.863406 0.227184
H30   H     H_    0.827716 0.584422 0.891915 0.230261

loop_
_geom_bond_atom_site_label_1
_geom_bond_atom_site_label_2
_ccdc_geom_bond_type
C24   C29   S    
C29   C30   S    
C45   H24   S    
C16   C17   S    
C21   C22   S    
C4    C6    S    
O2    C1    A    
C7    C8    A    
C12   H1    S    
C1    O6    A    
V3    O20   S    
C27   C28   S    
C13   H2    S    
C17   C18   S    
C15   C22   S    
C9    C10   A    
C17   C20   S    
O5    C3    A    
C18   C19   S    
V2    O10   S    
C6    C9    A    
C46   C47   S    
C15   H8    S    
C16   H7    S    
C3    C17   S    
C32   C34   A    
O8    V2    S    
C24   C25   S    
C23   C24   S    
C46   H27   S    
C40   H22   S    
C21   H12   S    
O1    V2    S    
C23   H14   S    
O7    V1    S    
C36   C37   A    
O12   V3    S    
C45   H25   S    
C5    C43   S    
O9    C4    A    
C1    C30   S    
C16   C21   S    
O17   V4    S    
C19   C22   S    
C28   H17   S    
O12   C41   A    
O13   C44   A    
C20   H11   S    
C9    H6    S    
C33   C37   A    
C5    C12   A    
C25   C26   S    
O17   V3    S    
O14   C42   A    
O18   V4    S    
O11   C42   A    
C19   C20   S    
O4    C2    A    
O18   C43   A    
C33   H21   S    
C13   C14   A    
C37   C38   A    
C39   H20   S    
C7    C11   A    
C2    C32   S    
O14   V3    S    
C47   H28   S    
C11   C12   A    
C46   H26   S    
C15   C16   S    
C25   C42   S    
O15   C43   A    
O3    C4    A    
O13   V3    S    
C20   C21   S    
C47   H29   S    
O19   V4    S    
C14   H4    S    
C45   C46   S    
O9    V2    S    
C34   O21   S    
O2    V1    S    
C26   C27   S    
C27   C30   S    
C31   C39   A    
O16   V4    S    
C28   C29   S    
C24   H13   S    
C32   C35   A    
O1    C2    A    
O5    V1    S    
C27   H16   S    
C19   H10   S    
O6    V2    S    
C15   C18   S    
C35   H23   S    
C25   C28   S    
C5    C13   A    
C22   C44   S    
O7    V2    S    
O4    V1    S    
O3    V1    S    
V1    O10   S    
C41   O16   A    
C31   C38   A    
V4    O20   S    
C36   C40   A    
C31   C41   S    
C38   H19   S    
O21   C45   S    
C6    C8    A    
C39   C40   A    
C26   H15   S    
C33   C34   A    
C18   H9    S    
C47   H30   S    
O19   C44   A    
C35   C36   A    
C10   C14   A    
C23   C26   S    
C10   C11   A    
C29   H18   S    
O15   V3    S    
O8    C3    A    
O11   V4    S    
C23   C30   S    
C8    H5    S    
C7    H3    S    
