data_mof_unit_43692.cif
_audit_creation_date              2012-10-26T20:20:44-0400
_audit_creation_method            fapswitch 2.2
_symmetry_space_group_name_H-M    P1
_symmetry_Int_Tables_number       1
_space_group_crystal_system       triclinic
_cell_length_a                    8.732922
_cell_length_b                    10.818505
_cell_length_c                    9.524207
_cell_angle_alpha                 90.47886
_cell_angle_beta                  97.962809
_cell_angle_gamma                 90.13806
_cell_volume                      891.107240189

loop_
_atom_site_label
_atom_site_type_symbol
_atom_type_description
_atom_site_fract_x
_atom_site_fract_y
_atom_site_fract_z
_atom_type_partial_charge
C1    C     C_R   0.501524 0.262250 0.499374 0.570686
C2    C     C_R   0.424149 0.066830 0.595790 -0.165114
C3    C     C_R   0.498618 0.871576 0.502337 0.016205
C4    C     C_R   0.501382 0.128424 0.497663 0.016205
C5    C     C_R   0.397319 0.428686 0.060641 0.005692
C6    C     C_R   0.602681 0.571314 0.939359 0.005691
C7    C     C_R   0.397445 0.428618 0.911886 0.007213
C8    C     C_R   0.602555 0.571382 0.088114 0.007213
C9    C     C_3   0.584764 0.123182 0.159090 -0.283263
C10   C     C_3   0.415239 0.876815 0.840909 -0.283261
C11   C     C_R   0.498476 0.737749 0.500626 0.570686
C12   C     C_R   0.203736 0.499955 0.463706 0.548940
C13   C     C_R   0.796263 0.500045 0.536294 0.548939
C14   C     C_2   0.037881 0.499985 0.443730 -0.154755
C15   C     C_2   0.962119 0.500015 0.556270 -0.154755
C16   C     C_R   0.577388 0.061531 0.400404 0.111763
C17   C     C_R   0.422612 0.938469 0.599596 0.111763
C18   C     C_R   0.575851 0.933170 0.404210 -0.165114
Cu1   Cu    Cu3+1 0.500000 0.500020 0.640660 0.942874
Cu2   Cu    Cu3+1 0.500000 0.499980 0.359340 0.942874
H1    H     H_    0.977877 0.500004 0.335785 0.124798
H2    H     H_    0.579557 0.027993 0.113971 0.110645
H3    H     H_    0.650041 0.183015 0.093872 0.146707
H4    H     H_    0.465608 0.160167 0.154427 0.159015
H5    H     H_    0.225749 0.907797 0.690282 0.238565
H6    H     H_    0.420453 0.972004 0.886030 0.110645
H7    H     H_    0.534393 0.839825 0.845570 0.159016
H8    H     H_    0.349961 0.816984 0.906127 0.146706
H9    H     H_    0.022123 0.499996 0.664215 0.124798
H10   H     H_    0.636414 0.881526 0.330942 0.119644
H11   H     H_    0.363587 0.118474 0.669058 0.119643
H12   H     H_    0.315173 0.371414 0.105658 0.102071
H13   H     H_    0.684827 0.628585 0.894342 0.102070
H14   H     H_    0.315465 0.371187 0.844912 0.102459
H15   H     H_    0.684535 0.628813 0.155088 0.102459
H16   H     H_    0.774252 0.092206 0.309721 0.238566
N1    N     N_R   0.500040 0.500030 0.852080 -0.221711
N2    N     N_R   0.499960 0.499970 0.147920 -0.221711
N3    N     N_2   0.661713 0.122694 0.303719 -0.487216
N4    N     N_2   0.338287 0.877306 0.696281 -0.487215
O1    O     O_R   0.499990 0.319660 0.618740 -0.518121
O2    O     O_R   0.500010 0.680340 0.381260 -0.518121
O3    O     O_R   0.499990 0.319630 0.381170 -0.470836
O4    O     O_R   0.500010 0.680370 0.618830 -0.470837
O5    O     O_R   0.274840 0.500010 0.591370 -0.499839
O6    O     O_R   0.725160 0.499990 0.408630 -0.499839
O7    O     O_R   0.274830 0.499980 0.353800 -0.506422
O8    O     O_R   0.725170 0.500020 0.646200 -0.506421

loop_
_geom_bond_atom_site_label_1
_geom_bond_atom_site_label_2
_ccdc_geom_bond_type
C10   H7    S    
C4    C16   A    
C13   O8    A    
C2    C4    A    
Cu1   O5    S    
C9    H4    S    
C15   H9    S    
C18   H10   S    
Cu2   N2    S    
Cu2   O2    S    
Cu1   Cu2   S    
C6    H13   S    
C5    H12   S    
C1    C4    S    
C7    N1    A    
C6    N1    A    
C11   O4    A    
C5    N2    A    
C2    C17   A    
C10   H6    S    
C8    N2    A    
C3    C18   A    
C12   O7    A    
C14   H1    S    
C1    O1    A    
C17   N4    S    
C12   C14   S    
C3    C17   A    
C12   O5    A    
C13   C15   S    
H5    N4    S    
C13   O6    A    
C7    H14   S    
C9    H2    S    
Cu2   O7    S    
C3    C11   S    
C16   N3    S    
C9    N3    S    
Cu2   O3    S    
Cu1   O4    S    
C11   O2    A    
C16   C18   A    
C10   H8    S    
C5    C7    A    
C14   C15   D    
C9    H3    S    
C10   N4    S    
C6    C8    A    
Cu1   N1    S    
Cu1   O8    S    
C1    O3    A    
H16   N3    S    
Cu2   O6    S    
Cu1   O1    S    
C2    H11   S    
C8    H15   S    
