data_mof_unit_28278.cif
_audit_creation_date              2012-10-26T18:31:59-0400
_audit_creation_method            fapswitch 2.2
_symmetry_space_group_name_H-M    P1
_symmetry_Int_Tables_number       1
_space_group_crystal_system       triclinic
_cell_length_a                    12.404481
_cell_length_b                    13.281732
_cell_length_c                    14.424144
_cell_angle_alpha                 92.374248
_cell_angle_beta                  108.50423
_cell_angle_gamma                 117.0182
_cell_volume                      1958.56211872

loop_
_atom_site_label
_atom_site_type_symbol
_atom_type_description
_atom_site_fract_x
_atom_site_fract_y
_atom_site_fract_z
_atom_type_partial_charge
C1    C     C_R   0.648376 0.713051 0.504532 0.561629
C2    C     C_R   0.171897 0.453895 0.003092 0.017309
C3    C     C_R   0.111863 0.446118 0.073981 -0.004030
C4    C     C_R   0.614838 0.510749 0.685498 0.642920
C5    C     C_R   0.299146 0.470438 0.035664 -0.041314
C6    C     C_R   0.366816 0.476012 0.134483 0.077512
C7    C     C_R   0.182577 0.452676 0.174519 -0.132930
C8    C     C_R   0.143638 0.973165 0.360056 -0.071593
C9    C     C_R   0.249445 0.163147 0.465030 0.039560
C10   C     C_R   0.706338 0.919866 0.534788 -0.093208
C11   C     C_R   0.782964 0.035186 0.534327 -0.059285
C12   C     C_R   0.811641 0.451765 0.913101 0.034755
C13   C     C_R   0.888796 0.067467 0.505320 -0.013318
C14   C     C_R   0.920386 0.984750 0.476689 0.029053
C15   C     C_R   0.827357 0.866460 0.457340 -0.024838
C16   C     C_R   0.345901 0.285836 0.486359 0.594969
C17   C     C_R   0.036720 0.016736 0.458821 -0.036967
C18   C     C_R   0.040496 0.935505 0.394543 0.029401
C19   C     C_R   0.940786 0.819243 0.365783 0.272505
C20   C     C_R   0.835390 0.786382 0.396170 -0.096886
C21   C     C_R   0.151737 0.125140 0.505784 0.187136
C22   C     C_R   0.244125 0.086681 0.392222 -0.164420
C23   C     C_R   0.780212 0.488793 0.987969 -0.003902
C24   C     C_R   0.727262 0.833786 0.497199 0.014537
C25   C     C_R   0.261531 0.724637 0.603408 0.190760
C26   C     C_R   0.653447 0.328060 0.382436 0.121572
C27   C     C_R   0.730070 0.285109 0.364067 0.064532
C28   C     C_R   0.380270 0.482274 0.313404 0.534779
C29   C     C_R   0.865922 0.350835 0.406925 -0.091863
C30   C     C_R   0.928137 0.462133 0.468001 0.018341
C31   C     C_R   0.846118 0.503053 0.487203 0.192586
C32   C     C_R   0.069022 0.534221 0.511271 -0.007992
C33   C     C_R   0.124057 0.652486 0.555641 0.039863
C34   C     C_R   0.925362 0.440934 0.942171 0.024442
C35   C     C_R   0.040485 0.695233 0.555261 -0.049283
C36   C     C_R   0.912415 0.620026 0.543555 0.095837
C37   C     C_R   0.158426 0.495305 0.510880 0.086574
C38   C     C_R   0.341780 0.677784 0.604541 0.121635
C39   C     C_R   0.673827 0.506013 0.790384 -0.002163
C40   C     C_R   0.309830 0.469403 0.205884 0.010537
C41   C     C_R   0.710886 0.548948 0.966565 -0.074019
C42   C     C_R   0.674004 0.571408 0.870979 0.205536
C43   C     C_R   0.734181 0.436336 0.812420 0.121605
C44   C     C_R   0.987849 0.441015 0.043474 0.033771
C45   C     C_R   0.928542 0.446375 0.111521 -0.084278
C46   C     C_R   0.828574 0.473816 0.084333 -0.040913
C47   C     C_R   0.987810 0.449164 0.875263 -0.040742
C48   C     C_R   0.106482 0.451694 0.902619 0.252453
Cu1   Cu    Cu3+1 0.416420 0.526630 0.522910 1.050350
Cu2   Cu    Cu3+1 0.583580 0.473370 0.477090 1.037700
H1    H     H_    0.791914 0.487040 0.139305 0.217907
H2    H     H_    0.141251 0.445827 0.230734 0.120561
H3    H     H_    0.080081 0.786469 0.583808 0.198096
H4    H     H_    0.124943 0.409382 0.471971 0.132342
H5    H     H_    0.548219 0.275599 0.349324 0.145970
H6    H     H_    0.920294 0.314115 0.388749 0.105439
H7    H     H_    0.700239 0.590249 0.026623 0.211261
H8    H     H_    0.962858 0.439089 0.188114 0.111062
H9    H     H_    0.950614 0.465557 0.803002 0.169911
H10   H     H_    0.095060 0.658507 0.311506 0.360674
H11   H     H_    0.131617 0.045053 0.690481 0.374628
H12   H     H_    0.351274 0.484358 0.986235 0.204178
H13   H     H_    0.332149 0.938674 0.530111 0.355119
H14   H     H_    0.327264 0.431424 0.803371 0.400007
H15   H     H_    0.685955 0.823952 0.774057 0.380942
H16   H     H_    0.802239 0.407316 0.647177 0.342308
H17   H     H_    0.317614 0.114793 0.359388 0.145635
H18   H     H_    0.145501 0.917573 0.304559 0.221290
H19   H     H_    0.629256 0.897993 0.563228 0.155183
H20   H     H_    0.943086 0.156801 0.502188 0.165699
H21   H     H_    0.761921 0.100228 0.558407 0.195158
H22   H     H_    0.756576 0.698596 0.365919 0.204867
H23   H     H_    0.446677 0.731683 0.638241 0.172855
I1    I     I_    0.640030 0.119150 0.271944 -0.312140
I2    I     I_    0.914491 0.686335 0.682313 -0.231663
I3    I     I_    0.555548 0.498411 0.163773 -0.273346
N1    N     N_R   0.290690 0.566960 0.557640 -0.253828
N2    N     N_R   0.709100 0.433710 0.442970 -0.242825
O1    O     O_R   0.545970 0.684450 0.528810 -0.520817
O2    O     O_2   0.919732 0.721484 0.191353 -0.279763
O3    O     O_3   0.101291 0.727326 0.347452 -0.564604
O4    O     O_2   0.333266 0.250595 0.689932 -0.210939
O5    O     O_2   0.156288 0.292936 0.619469 -0.232327
O6    O     O_3   0.106068 0.105845 0.688372 -0.441949
O7    O     O_2   0.289286 0.879821 0.746540 -0.181299
O8    O     O_2   0.483697 0.925308 0.709782 -0.232029
O9    O     O_3   0.298689 0.947622 0.581999 -0.494916
O10   O     O_2   0.067883 0.424124 0.706684 -0.243421
O11   O     O_2   0.269196 0.590384 0.823890 -0.236275
O12   O     O_R   0.687130 0.639470 0.490120 -0.504923
O13   O     O_3   0.248582 0.384964 0.818492 -0.435494
O14   O     O_2   0.500713 0.645877 0.814268 -0.242625
O15   O     O_2   0.701453 0.768495 0.959911 -0.213088
O16   O     O_3   0.714880 0.765505 0.783808 -0.495910
O17   O     O_2   0.695567 0.219387 0.785699 -0.172766
O18   O     O_2   0.540578 0.255598 0.660170 -0.195463
O19   O     O_3   0.768354 0.325831 0.653085 -0.496148
O20   O     O_R   0.519670 0.535100 0.660030 -0.420953
O21   O     O_R   0.660830 0.490120 0.621340 -0.493009
O22   O     O_R   0.312870 0.360530 0.509880 -0.480274
O23   O     O_R   0.454030 0.315550 0.471190 -0.500157
O24   O     O_R   0.339170 0.509880 0.378660 -0.535342
O25   O     O_R   0.480330 0.464900 0.339970 -0.485543
O26   O     O_2   0.854399 0.593183 0.304486 -0.336412
S1    S     S_3+6 0.950217 0.710798 0.298695 -0.047658
S2    S     S_3+6 0.189996 0.197753 0.628285 0.078886
S3    S     S_3+6 0.337488 0.872272 0.664578 0.060572
S4    S     S_3+6 0.173508 0.464607 0.809270 0.065184
S5    S     S_3+6 0.644957 0.689989 0.858978 0.064789
S6    S     S_3+6 0.681702 0.306297 0.726507 0.077167

loop_
_geom_bond_atom_site_label_1
_geom_bond_atom_site_label_2
_ccdc_geom_bond_type
C1    O12   A    
C4    O20   A    
C35   H3    S    
C41   C42   A    
O8    S3    D    
C26   H5    S    
C45   C46   A    
C12   C23   A    
Cu2   O21   S    
C26   N2    A    
C5    C6    A    
H16   O19   S    
C42   S5    S    
C7    H2    S    
C12   C43   A    
C3    C7    A    
C30   C31   A    
O10   S4    D    
C11   H21   S    
O14   S5    D    
C27   C29   A    
C13   H20   S    
C28   C40   S    
C18   C19   A    
Cu1   O20   S    
Cu2   O12   S    
C35   C36   A    
O6    S2    S    
C7    C40   A    
C43   S6    S    
C27   I1    S    
C21   S2    S    
Cu2   O25   S    
C23   C46   A    
C13   C14   A    
C14   C17   A    
Cu2   N2    S    
O26   S1    D    
C39   C42   A    
C15   C20   A    
C45   H8    S    
O3    S1    S    
C3    C44   A    
C34   C44   A    
Cu1   O24   S    
C16   O22   A    
C39   C43   A    
C2    C48   A    
C37   N1    A    
O2    S1    D    
O17   S6    D    
C8    C18   A    
Cu1   O1    S    
C29   C30   A    
C36   I2    S    
C25   C38   A    
H10   O3    S    
C8    C22   A    
C47   C48   A    
C4    C39   S    
C17   C18   A    
C26   C27   A    
C32   C37   A    
Cu2   O23   S    
C37   H4    S    
C19   S1    S    
C15   C24   A    
C29   H6    S    
C8    H18   S    
C1    O1    A    
C6    C40   A    
C2    C5    A    
C12   C34   A    
C44   C45   A    
C25   S3    S    
C31   N2    A    
H15   O16   S    
H13   O9    S    
C31   C36   A    
O13   S4    S    
C9    C16   S    
H11   O6    S    
C6    I3    S    
C38   N1    A    
O16   S5    S    
C23   C41   A    
O5    S2    D    
C10   C24   A    
C32   C33   A    
C19   C20   A    
C2    C3    A    
C41   H7    S    
Cu1   O22   S    
C30   C32   A    
O19   S6    S    
C11   C13   A    
C28   O25   A    
C9    C21   A    
C48   S4    S    
O18   S6    D    
C46   H1    S    
O11   S4    D    
C33   C35   A    
Cu1   N1    S    
C5    H12   S    
O4    S2    D    
C9    C22   A    
C17   C21   A    
C22   H17   S    
C10   C11   A    
C47   H9    S    
C10   H19   S    
C28   O24   A    
C16   O23   A    
O9    S3    S    
C1    C24   S    
Cu1   Cu2   S    
C4    O21   A    
C25   C33   A    
C14   C15   A    
C20   H22   S    
C34   C47   A    
H14   O13   S    
O7    S3    D    
O15   S5    D    
C38   H23   S    
