data_mof_unit_48942.cif
_audit_creation_date              2012-12-10T17:03:44-0500
_audit_creation_method            fapswitch 2.2
_symmetry_space_group_name_H-M    P1
_symmetry_Int_Tables_number       1
_space_group_crystal_system       triclinic
_cell_length_a                    10.059748
_cell_length_b                    10.721861
_cell_length_c                    13.013236
_cell_angle_alpha                 91.079517
_cell_angle_beta                  72.27483
_cell_angle_gamma                 90.37131
_cell_volume                      1336.72795504

loop_
_atom_site_label
_atom_site_type_symbol
_atom_type_description
_atom_site_fract_x
_atom_site_fract_y
_atom_site_fract_z
_atom_type_partial_charge
C1    C     C_R   0.498206 0.737434 0.505696 0.807751
C2    C     C_R   0.386814 0.573695 0.812374 -0.138214
C3    C     C_2   0.609165 0.067752 0.505643 -0.117452
C4    C     C_R   0.425905 0.521367 0.701425 0.858456
C5    C     C_2   0.506354 0.130455 0.485136 -0.245695
C6    C     C_2   0.608525 0.933839 0.500009 -0.140920
C7    C     C_2   0.490026 0.867337 0.533994 -0.181917
C8    C     C_2   0.103287 0.457675 0.420274 0.013468
C9    C     C_2   0.958849 0.482960 0.414620 -0.215739
C10   C     C_R   0.501329 0.262613 0.496207 0.966723
C11   C     C_R   0.575785 0.497930 0.295993 0.902726
C12   C     C_R   0.449577 0.605703 0.976410 0.094767
C13   C     C_R   0.794066 0.504774 0.004368 0.012590
C14   C     C_R   0.618473 0.506334 0.179098 -0.057051
C15   C     C_R   0.246034 0.589586 0.870645 -0.159218
C16   C     C_R   0.207544 0.626577 0.978852 -0.246659
C17   C     C_R   0.307721 0.635765 0.033484 0.004444
C18   C     C_2   0.356541 0.913786 0.611357 0.392014
C19   C     C_2   0.192667 0.382897 0.329269 0.483670
C20   C     C_2   0.930793 0.453762 0.938766 0.350493
C21   C     C_2   0.262170 0.695314 0.142359 0.350602
C22   C     C_2   0.666412 0.713962 0.713062 0.500961
C23   C     C_R   0.489230 0.604362 0.863333 -0.027897
C24   C     C_R   0.552959 0.569621 0.023937 0.060310
C25   C     C_R   0.694786 0.556021 0.959420 0.102078
C26   C     C_R   0.733242 0.599925 0.853930 -0.153628
C27   C     C_R   0.630403 0.631471 0.807402 -0.048129
C28   C     C_R   0.516760 0.533892 0.130751 -0.147517
C29   C     C_R   0.756815 0.489407 0.115950 -0.304533
H1    H     H_    0.833657 0.458049 0.152811 0.143290
H2    H     H_    0.423291 0.083691 0.462028 0.173692
H3    H     H_    0.707489 0.889934 0.457062 0.180758
H4    H     H_    0.258984 0.867320 0.615322 0.095987
H5    H     H_    0.179683 0.390466 0.249802 -0.009300
H6    H     H_    0.009143 0.432115 0.977471 0.079284
H7    H     H_    0.153637 0.689596 0.191356 0.060091
H8    H     H_    0.583701 0.762105 0.692986 0.058037
H9    H     H_    0.081490 0.555568 0.555917 0.180024
H10   H     H_    0.940803 0.475943 0.336627 0.147318
H11   H     H_    0.869686 0.492224 0.572616 0.209268
H12   H     H_    0.841950 0.615473 0.809915 0.203237
H13   H     H_    0.408576 0.527328 0.177634 0.155064
H14   H     H_    0.166490 0.578286 0.831128 0.191711
H15   H     H_    0.099091 0.648347 0.020039 0.133075
H16   H     H_    0.697035 0.113914 0.522335 0.184776
N1    N     N_2   0.148270 0.498670 0.498870 -0.179712
N2    N     N_2   0.852610 0.498640 0.498840 -0.157137
O1    O     O_R   0.386950 0.680940 0.500020 -0.623183
O2    O     O_2   0.274189 0.306061 0.342742 -0.537122
O3    O     O_2   0.954520 0.426947 0.843271 -0.567409
O4    O     O_2   0.343354 0.756496 0.176152 -0.543110
O5    O     O_2   0.787475 0.732059 0.659518 -0.596282
O6    O     O_R   0.613110 0.680900 0.499980 -0.598172
O7    O     O_R   0.330780 0.500000 0.653640 -0.594626
O8    O     O_R   0.556930 0.499960 0.653610 -0.610969
O9    O     O_R   0.386890 0.319100 0.500020 -0.536629
O10   O     O_R   0.613050 0.319060 0.499980 -0.621194
O11   O     O_R   0.443070 0.500040 0.346390 -0.588009
O12   O     O_R   0.669220 0.500000 0.346360 -0.624230
O13   O     O_2   0.355078 0.999106 0.675215 -0.533232
Zn1   Zn    Zn3+2 0.349000 0.500030 0.500020 1.025476
Zn2   Zn    Zn3+2 0.651000 0.499970 0.499980 0.982743

loop_
_geom_bond_atom_site_label_1
_geom_bond_atom_site_label_2
_ccdc_geom_bond_type
C12   C17   A    
H11   N2    S    
C2    C4    S    
C1    O1    A    
C6    C7    D    
O7    Zn1   S    
C23   C27   A    
C11   O11   A    
C10   O9    A    
O6    Zn2   S    
C16   H15   S    
C6    H3    S    
C9    H10   S    
C7    C18   S    
C4    O7    A    
C3    C6    S    
O11   Zn1   S    
O1    Zn1   S    
C15   H14   S    
C5    C10   S    
C21   H7    S    
C1    O6    A    
C2    C15   A    
C22   H8    S    
C12   C23   A    
C13   C25   A    
C26   C27   A    
C29   H1    S    
N2    Zn2   S    
C11   O12   A    
C13   C29   A    
C11   C14   S    
C9    N2    D    
C22   C27   S    
C4    O8    A    
N1    Zn1   S    
C18   H4    S    
C8    N1    D    
H9    N1    S    
C8    C19   S    
O10   Zn2   S    
C14   C29   A    
C15   C16   A    
O8    Zn2   S    
C3    C5    D    
C21   O4    D    
C10   O10   A    
C24   C25   A    
C22   O5    D    
C12   C24   A    
C18   O13   D    
C2    C23   A    
C19   O2    D    
O9    Zn1   S    
C16   C17   A    
O12   Zn2   S    
C20   O3    D    
C28   H13   S    
C13   C20   S    
C14   C28   A    
C25   C26   A    
C1    C7    S    
C20   H6    S    
C3    H16   S    
C17   C21   S    
C24   C28   A    
C26   H12   S    
C8    C9    S    
C5    H2    S    
C19   H5    S    
