data_mof_unit_54459.cif
_audit_creation_date              2012-10-26T21:08:08-0400
_audit_creation_method            fapswitch 2.2
_symmetry_space_group_name_H-M    P1
_symmetry_Int_Tables_number       1
_space_group_crystal_system       triclinic
_cell_length_a                    15.860301
_cell_length_b                    10.895577
_cell_length_c                    9.603544
_cell_angle_alpha                 91.47756
_cell_angle_beta                  89.952005
_cell_angle_gamma                 92.945199
_cell_volume                      1656.81755683

loop_
_atom_site_label
_atom_site_type_symbol
_atom_type_description
_atom_site_fract_x
_atom_site_fract_y
_atom_site_fract_z
_atom_type_partial_charge
C1    C     C_R   0.502327 0.262460 0.498302 0.543680
C2    C     C_R   0.581867 0.082157 0.855437 -0.104552
C3    C     C_R   0.537839 0.970831 0.880643 0.004048
C4    C     C_R   0.339927 0.499527 0.500005 0.550478
C5    C     C_R   0.505397 0.899183 0.768166 -0.089085
C6    C     C_R   0.510217 0.943183 0.630926 0.003504
C7    C     C_R   0.533826 0.067975 0.614402 0.003940
C8    C     C_R   0.504151 0.127854 0.495738 0.008371
C9    C     C_R   0.463714 0.057045 0.386418 -0.030491
C10   C     C_R   0.463244 0.929356 0.390251 -0.141516
C11   C     C_R   0.487973 0.871076 0.510209 -0.023459
C12   C     C_3   0.082780 0.500499 0.500237 0.062304
C13   C     C_R   0.619738 0.653260 0.147667 -0.094119
C14   C     C_R   0.681028 0.722856 0.076957 -0.179997
C15   C     C_R   0.679760 0.724420 0.933391 -0.167489
C16   C     C_R   0.495202 0.737275 0.502766 0.534181
C17   C     C_R   0.617798 0.655366 0.859920 -0.092076
C18   C     C_R   0.558339 0.575774 0.927183 0.142206
C19   C     C_R   0.558801 0.575164 0.076697 0.150992
C20   C     C_R   0.444515 0.427727 0.071811 -0.011443
C21   C     C_R   0.444707 0.427474 0.923967 -0.003663
C22   C     C_R   0.660056 0.500376 0.500000 0.535498
C23   C     C_3   0.975252 0.600978 0.571598 -0.089274
C24   C     C_3   0.967880 0.398410 0.561378 -0.087748
C25   C     C_3   0.024337 0.400699 0.429326 -0.112262
C26   C     C_1   0.250149 0.499802 0.500074 -0.039627
C27   C     C_1   0.749825 0.500738 0.499991 -0.038045
C28   C     C_3   0.027304 0.498493 0.630546 0.034107
C29   C     C_3   0.520172 0.931419 0.026228 -0.411321
C30   C     C_3   0.059367 0.495964 0.779513 -0.409017
C31   C     C_3   0.416944 0.113550 0.269059 -0.386076
C32   C     C_3   0.917140 0.500920 0.500470 0.042730
C33   C     C_3   0.031708 0.602772 0.439516 -0.111992
C34   C     C_3   0.971941 0.502968 0.368425 -0.108149
C35   C     C_1   0.174555 0.500126 0.500079 -0.063954
C36   C     C_1   0.825427 0.500934 0.500148 -0.065708
C37   C     C_R   0.580796 0.130129 0.722518 -0.109356
Cu1   Cu    Cu3+1 0.499990 0.499990 0.640660 0.910101
Cu2   Cu    Cu3+1 0.500010 0.500010 0.359340 0.914576
H1    H     H_    0.045623 0.318775 0.370713 0.100957
H2    H     H_    0.940682 0.314991 0.612196 0.101138
H3    H     H_    0.947699 0.504839 0.260127 0.107090
H4    H     H_    0.059034 0.686370 0.389248 0.102463
H5    H     H_    0.954054 0.682688 0.630742 0.099622
H6    H     H_    0.613675 0.218188 0.707227 0.144238
H7    H     H_    0.611808 0.135908 0.939854 0.112921
H8    H     H_    0.556122 0.990114 0.104182 0.138977
H9    H     H_    0.451654 0.936163 0.046150 0.122032
H10   H     H_    0.536004 0.835177 0.038351 0.152552
H11   H     H_    0.005122 0.494927 0.852615 0.125075
H12   H     H_    0.470244 0.815002 0.792199 0.151426
H13   H     H_    0.095239 0.412359 0.793624 0.131269
H14   H     H_    0.101328 0.578754 0.801971 0.133768
H15   H     H_    0.377520 0.043695 0.209115 0.104987
H16   H     H_    0.372716 0.180845 0.311547 0.143734
H17   H     H_    0.462311 0.159060 0.196330 0.153208
H18   H     H_    0.439361 0.874697 0.301571 0.136492
H19   H     H_    0.398910 0.368633 0.125224 0.107442
H20   H     H_    0.621422 0.667962 0.257342 0.185685
H21   H     H_    0.727276 0.780590 0.134330 0.118851
H22   H     H_    0.725057 0.783217 0.878619 0.122050
H23   H     H_    0.617980 0.670317 0.751078 0.186524
H24   H     H_    0.399403 0.367877 0.867154 0.120591
N1    N     N_R   0.500800 0.501210 0.147910 -0.241723
N2    N     N_R   0.500830 0.501290 0.852040 -0.247178
O1    O     O_R   0.499990 0.319640 0.618810 -0.505637
O2    O     O_R   0.500000 0.319660 0.381240 -0.501380
O3    O     O_R   0.379070 0.499980 0.618770 -0.495139
O4    O     O_R   0.379080 0.500000 0.381190 -0.497408
O5    O     O_R   0.500000 0.680340 0.618760 -0.534211
O6    O     O_R   0.500010 0.680360 0.381190 -0.522721
O7    O     O_R   0.620920 0.500000 0.618810 -0.517717
O8    O     O_R   0.620930 0.500020 0.381230 -0.510272

loop_
_geom_bond_atom_site_label_1
_geom_bond_atom_site_label_2
_ccdc_geom_bond_type
Cu1   O5    S    
C1    C8    S    
C34   H3    S    
C7    C8    A    
C29   H10   S    
C2    H7    S    
C18   N2    A    
Cu2   N1    S    
C12   C28   S    
C32   C36   S    
C25   H1    S    
Cu1   Cu2   S    
C18   C19   A    
C3    C29   S    
Cu1   O1    S    
C8    C9    A    
C23   C33   S    
C31   H17   S    
C9    C10   A    
C25   C34   S    
C30   H11   S    
C13   C14   A    
C24   H2    S    
C16   O6    A    
C22   O7    A    
C4    O4    A    
C17   C18   A    
Cu2   O4    S    
C30   H14   S    
Cu1   O7    S    
C13   C19   A    
C29   H9    S    
C33   H4    S    
C10   H18   S    
C16   O5    A    
C24   C25   S    
C6    C11   A    
C4    O3    A    
C23   H5    S    
C7    C37   A    
C32   C34   S    
C20   N1    A    
C24   C32   S    
C17   H23   S    
C11   C16   S    
Cu1   N2    S    
C19   N1    A    
C1    O1    A    
C15   H22   S    
C23   C28   S    
C12   C35   S    
C29   H8    S    
C22   C27   S    
C20   H19   S    
C15   C17   A    
C30   H13   S    
C21   N2    A    
Cu2   O2    S    
C24   C28   S    
Cu1   O3    S    
C3    C5    A    
C4    C26   S    
C6    C7    A    
C13   H20   S    
C27   C36   T    
C14   H21   S    
C12   C25   S    
C23   C32   S    
C28   C30   S    
C2    C3    A    
C2    C37   A    
C5    C6    A    
C1    O2    A    
C33   C34   S    
Cu2   O8    S    
C31   H15   S    
C21   H24   S    
C10   C11   A    
C9    C31   S    
C26   C35   T    
C20   C21   A    
Cu2   O6    S    
C14   C15   A    
C5    H12   S    
C22   O8    A    
C31   H16   S    
C12   C33   S    
C37   H6    S    
