data_mof_unit_6389.cif
_audit_creation_date              2012-12-10T18:44:20-0500
_audit_creation_method            fapswitch 2.2
_symmetry_space_group_name_H-M    P1
_symmetry_Int_Tables_number       1
_space_group_crystal_system       triclinic
_cell_length_a                    12.993405
_cell_length_b                    10.807277
_cell_length_c                    9.839968
_cell_angle_alpha                 87.824538
_cell_angle_beta                  94.999686
_cell_angle_gamma                 92.358591
_cell_volume                      1374.51720939

loop_
_atom_site_label
_atom_site_type_symbol
_atom_type_description
_atom_site_fract_x
_atom_site_fract_y
_atom_site_fract_z
_atom_type_partial_charge
Br1   Br    Br    0.660585 0.692875 0.852673 -0.297158
Br2   Br    Br    0.337481 0.309647 0.147120 -0.314875
C1    C     C_R   0.503213 0.259854 0.504059 0.994454
C2    C     C_R   0.700748 0.487253 0.523835 0.946557
C3    C     C_R   0.810966 0.462606 0.531807 -0.300368
C4    C     C_R   0.187405 0.507737 0.461709 -0.314373
C5    C     C_R   0.029671 0.586221 0.350721 -0.138975
C6    C     C_R   0.969481 0.403132 0.659753 -0.160405
C7    C     C_R   0.136754 0.589965 0.364676 0.345735
C8    C     C_R   0.862674 0.409091 0.651398 0.336007
C9    C     C_R   0.130024 0.432230 0.550347 0.325629
C10   C     C_R   0.868093 0.495152 0.418447 0.375226
C11   C     C_R   0.025446 0.453094 0.554342 -0.049335
C12   C     C_R   0.504710 0.740386 0.498133 0.968915
C13   C     C_R   0.973953 0.514948 0.442593 -0.077116
C14   C     C_R   0.545061 0.074318 0.397838 -0.236344
C15   C     C_R   0.481001 0.927108 0.613556 -0.239297
C16   C     C_R   0.549288 0.947774 0.390861 0.388666
C17   C     C_R   0.489722 0.052752 0.629348 0.473536
C18   C     C_R   0.510678 0.873477 0.497078 -0.209675
C19   C     C_R   0.512590 0.127811 0.513232 -0.211013
C20   C     C_R   0.565065 0.577665 0.076696 -0.030849
C21   C     C_R   0.433166 0.424302 0.922807 -0.091535
C22   C     C_R   0.565708 0.578289 0.933628 0.366264
C23   C     C_R   0.433299 0.422828 0.066159 0.324258
C24   C     C_R   0.298682 0.503344 0.475048 0.995830
H1    H     H_    0.989228 0.641257 0.270477 0.217484
H2    H     H_    0.089187 0.762006 0.099782 0.380487
H3    H     H_    0.738442 0.821278 0.379968 0.354857
H4    H     H_    0.561441 0.206266 0.950791 0.382298
H5    H     H_    0.008895 0.359527 0.749090 0.242858
H6    H     H_    0.569405 0.131914 0.313047 0.232635
H7    H     H_    0.452286 0.869684 0.695640 0.233763
H8    H     H_    0.616222 0.639673 0.134819 0.268534
H9    H     H_    0.381061 0.363747 0.863909 0.257302
H10   H     H_    0.702333 0.351406 0.137337 0.394365
H11   H     H_    0.254564 0.224504 0.461196 0.369932
H12   H     H_    0.896689 0.164652 0.814333 0.383776
N1    N     N_R   0.499970 0.499970 0.857200 -0.143814
N2    N     N_R   0.500030 0.500030 0.142800 -0.148994
O1    O     O_R   0.499990 0.316750 0.614620 -0.525334
O2    O     O_2   0.908766 0.410310 0.175801 -0.206371
O3    O     O_3   0.722863 0.358238 0.236159 -0.518534
O4    O     O_2   0.206642 0.313976 0.777130 -0.236899
O5    O     O_2   0.096651 0.190737 0.616163 -0.249591
O6    O     O_3   0.281784 0.247544 0.554370 -0.535340
O7    O     O_2   0.746933 0.403770 0.865488 -0.213390
O8    O     O_2   0.717172 0.237663 0.701677 -0.287087
O9    O     O_3   0.880012 0.231969 0.873440 -0.449966
O10   O     O_2   0.286475 0.766373 0.343003 -0.264521
O11   O     O_2   0.249802 0.630478 0.149975 -0.251408
O12   O     O_R   0.500010 0.683250 0.385380 -0.538372
O13   O     O_3   0.120447 0.801353 0.183692 -0.470790
O14   O     O_2   0.524440 0.836249 0.153869 -0.204830
O15   O     O_2   0.666217 0.991402 0.178889 -0.222758
O16   O     O_3   0.690671 0.780516 0.309875 -0.544176
O17   O     O_2   0.362506 0.144082 0.797866 -0.186037
O18   O     O_2   0.483431 0.993450 0.896633 -0.230219
O19   O     O_3   0.555457 0.214513 0.849817 -0.477675
O20   O     O_R   0.499990 0.316780 0.385290 -0.621425
O21   O     O_R   0.500010 0.683220 0.614710 -0.632396
O22   O     O_R   0.346360 0.499970 0.595710 -0.597119
O23   O     O_R   0.653640 0.500030 0.404290 -0.561766
O24   O     O_R   0.346360 0.499990 0.366380 -0.552815
O25   O     O_R   0.653640 0.500010 0.633620 -0.556689
O26   O     O_2   0.792883 0.581867 0.172576 -0.276406
S1    S     S_3+6 0.822718 0.462800 0.245837 0.088878
S2    S     S_3+6 0.178729 0.292930 0.628460 0.082891
S3    S     S_3+6 0.797672 0.320422 0.774863 0.109472
S4    S     S_3+6 0.202438 0.697672 0.258682 0.099631
S5    S     S_3+6 0.607865 0.890003 0.252102 0.088744
S6    S     S_3+6 0.470580 0.101506 0.796436 0.115806
Zn1   Zn    Zn3+2 0.500000 0.499980 0.653120 1.112333
Zn2   Zn    Zn3+2 0.500000 0.500020 0.346880 1.118920

loop_
_geom_bond_atom_site_label_1
_geom_bond_atom_site_label_2
_ccdc_geom_bond_type
O15   S5    D    
H2    O13   S    
O22   Zn1   S    
O6    S2    S    
C14   C19   A    
O23   Zn2   S    
C14   H6    S    
O19   S6    S    
O12   Zn2   S    
O7    S3    D    
Br1   C22   S    
C10   C13   A    
O8    S3    D    
H12   O9    S    
O16   S5    S    
C20   N2    A    
C1    O20   A    
C6    C11   A    
C4    C7    A    
C5    C13   A    
O26   S1    D    
O10   S4    D    
C5    H1    S    
C3    C8    A    
O17   S6    D    
O11   S4    D    
O9    S3    S    
C10   S1    S    
C7    S4    S    
C9    C11   A    
C2    O23   A    
O18   S6    D    
C17   S6    S    
C4    C24   S    
C11   C13   A    
C15   H7    S    
O5    S2    D    
C21   N1    A    
O13   S4    S    
O3    S1    S    
H3    O16   S    
N2    Zn2   S    
Br2   C23   S    
C16   C18   A    
N1    Zn1   S    
C23   N2    A    
C24   O22   A    
O2    S1    D    
C20   H8    S    
C21   H9    S    
C20   C22   A    
C1    C19   S    
O4    S2    D    
O14   S5    D    
O1    Zn1   S    
C8    S3    S    
C12   C18   S    
C16   S5    S    
C15   C18   A    
O25   Zn1   S    
C9    S2    S    
O21   Zn1   S    
C3    C10   A    
C6    C8    A    
C21   C23   A    
O20   Zn2   S    
C4    C9    A    
C5    C7    A    
H4    O19   S    
O24   Zn2   S    
C2    O25   A    
C1    O1    A    
H10   O3    S    
C24   O24   A    
C15   C17   A    
C17   C19   A    
H11   O6    S    
C12   O21   A    
C22   N1    A    
C14   C16   A    
C12   O12   A    
C6    H5    S    
C2    C3    S    
