data_mof_unit_34640.cif
_audit_creation_date              2012-12-10T19:50:11-0500
_audit_creation_method            fapswitch 2.2
_symmetry_space_group_name_H-M    P1
_symmetry_Int_Tables_number       1
_space_group_crystal_system       triclinic
_cell_length_a                    14.1887
_cell_length_b                    14.863745
_cell_length_c                    15.347536
_cell_angle_alpha                 89.257783
_cell_angle_beta                  69.009357
_cell_angle_gamma                 88.283211
_cell_volume                      3020.59327111

loop_
_atom_site_label
_atom_site_type_symbol
_atom_type_description
_atom_site_fract_x
_atom_site_fract_y
_atom_site_fract_z
_atom_type_partial_charge
C1    C     C_R   0.499818 0.672968 0.496408 0.975620
C2    C     C_R   0.554929 0.175317 0.533772 0.378971
C3    C     C_R   0.503783 0.769026 0.476815 -0.306689
C4    C     C_R   0.510550 0.231691 0.484258 -0.268627
C5    C     C_R   0.598662 0.808335 0.442692 -0.379587
C6    C     C_R   0.479382 0.198061 0.414616 -0.413419
C7    C     C_R   0.606956 0.899366 0.420905 0.566310
C8    C     C_R   0.490110 0.107007 0.394136 0.572532
C9    C     C_R   0.518502 0.952428 0.441413 -0.084621
C10   C     C_R   0.524339 0.048870 0.449556 -0.091184
C11   C     C_R   0.890479 0.583185 0.503240 0.315970
C12   C     C_R   0.501658 0.327390 0.499278 0.992220
C13   C     C_R   0.133321 0.448610 0.433786 0.319281
C14   C     C_R   0.790078 0.579760 0.506322 -0.167827
C15   C     C_R   0.231252 0.449389 0.436485 -0.150562
C16   C     C_R   0.437621 0.497460 0.676298 0.877574
C17   C     C_R   0.562497 0.498189 0.323576 0.831040
C18   C     C_R   0.803895 0.421895 0.489402 0.648375
C19   C     C_R   0.178921 0.550286 0.564660 0.646762
C20   C     C_R   0.900626 0.421581 0.495308 -0.345709
C21   C     C_R   0.078652 0.550914 0.564254 -0.385601
C22   C     C_R   0.947544 0.502472 0.499074 0.040149
C23   C     C_R   0.374328 0.413517 0.107313 0.418373
C24   C     C_R   0.054580 0.500812 0.498232 0.041362
C25   C     C_R   0.400333 0.480428 0.776940 -0.090361
C26   C     C_R   0.599345 0.479345 0.223284 -0.082183
C27   C     C_R   0.264080 0.459941 0.924629 -0.152775
C28   C     C_R   0.730021 0.428981 0.080281 -0.146839
C29   C     C_R   0.296894 0.479028 0.829496 -0.211434
C30   C     C_R   0.701146 0.459044 0.172236 -0.221216
C31   C     C_R   0.470211 0.458329 0.819287 -0.157064
C32   C     C_R   0.527774 0.470425 0.181322 -0.159614
C33   C     C_R   0.438866 0.433621 0.913362 0.057161
C34   C     C_R   0.611503 0.382289 0.905451 0.450551
C35   C     C_R   0.553508 0.432787 0.092752 0.053407
C36   C     C_R   0.334436 0.440123 0.967997 -0.038135
C37   C     C_R   0.656790 0.415379 0.039754 -0.044820
C38   C     C_R   0.510168 0.411746 0.955924 -0.203510
C39   C     C_R   0.478987 0.419298 0.053340 -0.215496
C40   C     C_3   0.171586 0.515924 0.154718 -0.184038
C41   C     C_3   0.800770 0.269256 0.913700 -0.303855
C42   C     C_3   0.806652 0.324062 0.377040 -0.298364
C43   C     C_3   0.131159 0.619240 0.710913 -0.320638
C44   C     C_3   0.359361 0.297062 0.208035 -0.180064
C45   C     C_R   0.302466 0.427734 0.064963 0.411372
C46   C     C_3   0.589636 0.261169 0.824662 -0.276349
C47   C     C_3   0.289675 0.988233 0.578124 -0.242746
C48   C     C_3   0.509104 0.006486 0.659104 -0.325543
C49   C     C_3   0.293377 0.768690 0.436487 -0.126503
C50   C     C_3   0.685182 0.182279 0.590773 -0.089626
C51   C     C_3   0.758396 0.909393 0.301279 -0.312626
C52   C     C_3   0.536216 0.087012 0.238293 -0.361233
C53   C     C_R   0.684276 0.383885 0.947771 0.418997
C54   C     C_R   0.422948 0.913578 0.470953 0.389042
C55   C     C_R   0.555218 0.081909 0.520499 0.389611
C56   C     C_R   0.415917 0.820450 0.484247 0.368766
Cl1   Cl    Cl    0.942588 0.689985 0.498755 -0.645038
Cl2   Cl    Cl    0.114546 0.383582 0.346651 -0.621581
H1    H     H_    0.747280 0.641983 0.511244 0.198429
H2    H     H_    0.809419 0.415414 0.041605 0.178065
H3    H     H_    0.666810 0.768743 0.433680 0.207796
H4    H     H_    0.448436 0.242891 0.374739 0.190047
H5    H     H_    0.185212 0.566667 0.097820 0.105934
H6    H     H_    0.211088 0.534828 0.202466 0.192026
H7    H     H_    0.089358 0.517413 0.195751 0.204790
H8    H     H_    0.753022 0.224390 0.890525 0.170397
H9    H     H_    0.787878 0.257144 0.988767 0.138357
H10   H     H_    0.880804 0.250861 0.873272 0.194584
H11   H     H_    0.889304 0.309150 0.353540 0.194518
H12   H     H_    0.291360 0.409752 0.387126 0.210394
H13   H     H_    0.770339 0.263523 0.363231 0.179909
H14   H     H_    0.790682 0.380428 0.335436 0.165374
H15   H     H_    0.166001 0.642845 0.760391 0.188640
H16   H     H_    0.090169 0.556825 0.740960 0.144196
H17   H     H_    0.078537 0.673834 0.705063 0.188772
H18   H     H_    0.441714 0.280768 0.183466 0.123251
H19   H     H_    0.322610 0.256602 0.169163 0.174682
H20   H     H_    0.326741 0.276979 0.282478 0.204038
H21   H     H_    0.527371 0.270148 0.797314 0.212794
H22   H     H_    0.559174 0.231910 0.896463 0.113048
H23   H     H_    0.939592 0.357657 0.494321 0.209592
H24   H     H_    0.644424 0.210508 0.781127 0.175557
H25   H     H_    0.332466 0.040412 0.598158 0.130037
H26   H     H_    0.279409 0.928452 0.624792 0.169824
H27   H     H_    0.213493 0.017474 0.588946 0.197459
H28   H     H_    0.454206 0.960603 0.647974 0.151607
H29   H     H_    0.470277 0.069641 0.693904 0.165551
H30   H     H_    0.540827 0.972034 0.707412 0.196534
H31   H     H_    0.221023 0.732824 0.459968 0.199293
H32   H     H_    0.350178 0.726157 0.382483 0.119152
H33   H     H_    0.280693 0.833825 0.405443 0.182718
H34   H     H_    0.019065 0.590144 0.614653 0.205349
H35   H     H_    0.733319 0.166013 0.517244 0.172482
H36   H     H_    0.682857 0.123413 0.636554 0.167496
H37   H     H_    0.722381 0.236451 0.614419 0.200603
H38   H     H_    0.716326 0.916776 0.252549 0.133688
H39   H     H_    0.785158 0.838513 0.302495 0.175138
H40   H     H_    0.826141 0.951378 0.273604 0.198558
H41   H     H_    0.607413 0.050949 0.234706 0.161626
H42   H     H_    0.550020 0.159823 0.222858 0.151327
H43   H     H_    0.512258 0.058955 0.183124 0.193784
H44   H     H_    0.451374 0.494365 0.218384 0.197198
H45   H     H_    0.549712 0.463401 0.778803 0.212107
H46   H     H_    0.757995 0.465476 0.203451 0.151931
H47   H     H_    0.241504 0.493599 0.797437 0.167691
H48   H     H_    0.183684 0.461979 0.964146 0.175618
N1    N     N_R   0.747530 0.500020 0.500000 -0.150988
N2    N     N_R   0.252470 0.499980 0.500000 -0.158838
O1    O     O_R   0.420530 0.630930 0.499990 -0.536026
O2    O     O_3   0.783596 0.360477 0.895982 -0.577720
O3    O     O_3   0.765990 0.342324 0.473519 -0.599953
O4    O     O_3   0.208593 0.603550 0.623794 -0.546548
O5    O     O_3   0.340472 0.390117 0.200776 -0.594803
O6    O     O_3   0.639602 0.343487 0.817958 -0.588801
O7    O     O_3   0.336813 0.965998 0.482994 -0.556452
O8    O     O_3   0.588831 0.022707 0.574205 -0.569302
O9    O     O_3   0.321973 0.781895 0.514411 -0.560825
O10   O     O_3   0.586079 0.212302 0.601457 -0.618589
O11   O     O_3   0.700049 0.939598 0.391868 -0.561213
O12   O     O_R   0.579470 0.369070 0.500010 -0.523756
O13   O     O_3   0.458926 0.073774 0.325481 -0.554745
O14   O     O_R   0.579480 0.630940 0.499990 -0.644817
O15   O     O_R   0.420520 0.369060 0.500010 -0.638006
O16   O     O_R   0.375120 0.499990 0.632240 -0.573968
O17   O     O_R   0.624880 0.500010 0.367760 -0.624152
O18   O     O_R   0.534080 0.500000 0.632240 -0.607997
O19   O     O_R   0.465920 0.500000 0.367760 -0.632755
O20   O     O_3   0.200700 0.428306 0.118887 -0.560713
Zn1   Zn    Zn3+2 0.393860 0.499990 0.500000 0.993846
Zn2   Zn    Zn3+2 0.606140 0.500010 0.500000 0.987193

loop_
_geom_bond_atom_site_label_1
_geom_bond_atom_site_label_2
_ccdc_geom_bond_type
C53   O2    S    
C25   C31   A    
C51   H39   S    
C23   C45   A    
C27   C29   A    
C56   O9    S    
C2    C4    A    
C49   H32   S    
C2    O10   S    
C41   H9    S    
C19   O4    S    
C26   C32   A    
C14   H1    S    
C40   H5    S    
O12   Zn2   S    
C17   C26   S    
C47   H27   S    
C22   C24   S    
C44   H19   S    
C35   C37   A    
C2    C55   A    
C46   H21   S    
C11   C14   A    
C50   H37   S    
C55   O8    S    
O18   Zn2   S    
C45   O20   S    
C40   O20   S    
C33   C36   A    
C50   O10   S    
C52   O13   S    
C44   H18   S    
C18   N1    A    
C1    O1    A    
C12   O12   A    
O17   Zn2   S    
C49   O9    S    
C51   O11   S    
C48   H30   S    
C47   H25   S    
C4    C12   S    
C9    C10   S    
C51   H38   S    
C48   O8    S    
C37   C53   A    
C19   N2    A    
C43   H16   S    
C46   H24   S    
C20   H23   S    
O15   Zn1   S    
C25   C29   A    
C29   H47   S    
C49   H33   S    
N1    Zn2   S    
C42   H14   S    
C41   H10   S    
C28   H2    S    
C43   H17   S    
C54   C56   A    
C52   H43   S    
C46   O6    S    
C32   C35   A    
C7    O11   S    
C18   O3    S    
C4    C6    A    
C5    C7    A    
C50   H36   S    
C6    C8    A    
C13   Cl2   S    
C27   H48   S    
C52   H42   S    
C42   H11   S    
C13   C24   A    
C1    C3    S    
C31   H45   S    
C15   N2    A    
C35   C39   A    
C42   O3    S    
O19   Zn1   S    
C23   O5    S    
C3    C56   A    
C54   O7    S    
C31   C33   A    
C48   H29   S    
C5    H3    S    
C36   C45   A    
C47   H26   S    
C10   C55   A    
N2    Zn1   S    
C47   O7    S    
C14   N1    A    
C20   C22   A    
C44   O5    S    
C26   C30   A    
C40   H7    S    
C13   C15   A    
O1    Zn1   S    
C48   H28   S    
C43   O4    S    
C16   C25   S    
C7    C9    A    
C15   H12   S    
C11   C22   A    
C19   C21   A    
C34   C38   A    
C17   O19   A    
C49   H31   S    
C3    C5    A    
C50   H35   S    
C41   H8    S    
C32   H44   S    
C27   C36   A    
C34   O6    S    
C52   H41   S    
C33   C38   A    
C40   H6    S    
C43   H15   S    
C41   O2    S    
C6    H4    S    
C44   H20   S    
C16   O16   A    
C46   H22   S    
C17   O17   A    
C38   C39   A    
C12   O15   A    
C28   C37   A    
C51   H40   S    
C23   C39   A    
C28   C30   A    
C42   H13   S    
O16   Zn1   S    
C18   C20   A    
C8    O13   S    
C34   C53   A    
C8    C10   A    
C21   C24   A    
C30   H46   S    
C9    C54   A    
C11   Cl1   S    
C16   O18   A    
O14   Zn2   S    
C1    O14   A    
C21   H34   S    
