data_mof_unit_29856.cif
_audit_creation_date              2012-12-10T18:29:34-0500
_audit_creation_method            fapswitch 2.2
_symmetry_space_group_name_H-M    P1
_symmetry_Int_Tables_number       1
_space_group_crystal_system       triclinic
_cell_length_a                    11.566018
_cell_length_b                    15.004562
_cell_length_c                    15.072911
_cell_angle_alpha                 82.177052
_cell_angle_beta                  90.02078
_cell_angle_gamma                 104.504919
_cell_volume                      2507.30309168

loop_
_atom_site_label
_atom_site_type_symbol
_atom_type_description
_atom_site_fract_x
_atom_site_fract_y
_atom_site_fract_z
_atom_type_partial_charge
C1    C     C_R   0.483679 0.441283 0.663938 0.852099
C2    C     C_R   0.518353 0.558498 0.335937 0.860124
C3    C     C_R   0.520453 0.337875 0.941460 0.046054
C4    C     C_R   0.666865 0.639329 0.067606 -0.021172
C5    C     C_R   0.633017 0.496129 0.960377 -0.060581
C6    C     C_R   0.610555 0.472610 0.052570 -0.036136
C7    C     C_R   0.585612 0.377113 0.089371 -0.078615
C8    C     C_R   0.712458 0.583455 0.928830 -0.020305
C9    C     C_R   0.543549 0.309033 0.032193 0.028492
C10   C     C_R   0.730451 0.655492 0.983220 0.059311
C11   C     C_R   0.689415 0.849132 0.629797 0.037790
C12   C     C_R   0.306464 0.155952 0.367443 0.002554
C13   C     C_R   0.656106 0.758485 0.610264 0.228496
C14   C     C_R   0.349105 0.248017 0.385339 0.248806
C15   C     C_R   0.507128 0.793331 0.513634 -0.084677
C16   C     C_R   0.486530 0.203635 0.487565 -0.016945
C17   C     C_R   0.535172 0.886418 0.532192 -0.052971
C18   C     C_R   0.457277 0.112820 0.464448 -0.030971
C19   C     C_R   0.637592 0.916881 0.583103 0.088323
C20   C     C_R   0.355207 0.085743 0.413318 0.105426
C21   C     C_R   0.469021 0.951153 0.497420 -0.034764
C22   C     C_R   0.523304 0.047725 0.495072 0.064757
C23   C     C_R   0.718152 0.501063 0.500207 0.898033
C24   C     C_R   0.281845 0.498947 0.499777 0.907613
C25   C     C_R   0.642509 0.076791 0.523074 -0.056825
C26   C     C_R   0.350404 0.923183 0.466437 -0.081777
C27   C     C_R   0.691727 0.013279 0.577592 0.013532
C28   C     C_R   0.300213 0.989896 0.415609 0.091052
C29   C     C_1   0.839277 0.502693 0.500611 -0.175972
C30   C     C_1   0.160715 0.497357 0.499363 -0.164355
C31   C     C_1   0.941064 0.501420 0.500314 0.031325
C32   C     C_1   0.058938 0.498674 0.499658 0.037269
C33   C     C_R   0.487918 0.403292 0.759732 -0.149937
C34   C     C_R   0.552539 0.593677 0.240216 -0.187202
C35   C     C_R   0.449830 0.276513 0.886124 -0.047133
C36   C     C_R   0.658589 0.711428 0.118759 -0.019712
C37   C     C_R   0.435217 0.309251 0.794909 -0.063041
C38   C     C_R   0.604445 0.688118 0.206558 -0.045908
C39   C     C_R   0.550143 0.463229 0.816194 -0.269272
C40   C     C_R   0.546749 0.526651 0.184236 -0.247546
C41   C     C_R   0.571911 0.431979 0.904729 0.064360
C42   C     C_R   0.611140 0.545687 0.102974 0.070640
H1    H     H_    0.491673 0.457381 0.205527 0.174785
H2    H     H_    0.579134 0.536393 0.791163 0.157448
H3    H     H_    0.549638 0.223498 0.538644 0.112991
H4    H     H_    0.443830 0.770195 0.463852 0.164160
N1    N     N_R   0.566020 0.731700 0.552730 -0.131458
N2    N     N_R   0.433980 0.268300 0.447270 -0.099502
O1    O     O_R   0.466720 0.383110 0.605620 -0.637460
O2    O     O_R   0.533280 0.616890 0.394380 -0.614362
O3    O     O_R   0.509090 0.531900 0.639510 -0.621249
O4    O     O_R   0.490910 0.468100 0.360490 -0.576980
O5    O     O_R   0.644370 0.425610 0.483050 -0.590296
O6    O     O_R   0.355630 0.574390 0.516950 -0.599155
O7    O     O_R   0.686740 0.574390 0.516930 -0.628112
O8    O     O_R   0.313260 0.425610 0.483070 -0.597901
Zn1   Zn    Zn3+2 0.471710 0.400660 0.477370 0.977400
Zn2   Zn    Zn3+2 0.528290 0.599340 0.522630 0.952384
N3    N     N_3   0.531306 0.212290 0.063668 -0.447956
H5    H     H_    0.465605 0.190227 0.115085 0.229045
H6    H     H_    0.613002 0.203172 0.087619 0.244629
N4    N     N_3   0.819979 0.740167 0.954924 -0.368501
H7    H     H_    0.779572 0.792317 0.928300 0.197491
H8    H     H_    0.873608 0.759514 0.008432 0.224192
C43   C     C_2   0.722937 0.169037 0.486852 0.379843
H9    H     H_    0.791696 0.205313 0.527416 0.051751
O9    O     O_2   0.715272 0.203988 0.409710 -0.506315
C44   C     C_2   0.272306 0.829161 0.499450 0.351317
H10   H     H_    0.281961 0.796676 0.566985 0.096548
O10   O     O_2   0.200469 0.785812 0.451599 -0.576843
C45   C     C_2   0.591827 0.761804 0.259788 0.479170
H11   H     H_    0.506316 0.757461 0.292028 0.048817
O11   O     O_2   0.677098 0.825638 0.270932 -0.491914
C46   C     C_2   0.356028 0.247020 0.739145 0.505511
H12   H     H_    0.392847 0.224096 0.682719 0.067221
O12   O     O_2   0.248853 0.220457 0.756818 -0.557869
C47   C     C_2   0.382990 0.180657 0.924139 0.506829
H13   H     H_    0.332215 0.168865 0.987007 0.065139
O13   O     O_2   0.385258 0.114268 0.886054 -0.553208
C48   C     C_2   0.689434 0.809957 0.076953 0.393738
H14   H     H_    0.640500 0.831180 0.019874 0.051212
O14   O     O_2   0.771744 0.866997 0.103880 -0.488590
C49   C     C_2   0.621043 0.351074 0.182765 0.397477
H15   H     H_    0.688874 0.400547 0.213256 0.100418
O15   O     O_2   0.573441 0.276782 0.227520 -0.553450
C50   C     C_2   0.789085 0.592666 0.846610 0.404465
H16   H     H_    0.791446 0.531244 0.816765 0.058403
O16   O     O_2   0.850987 0.667546 0.811593 -0.526152
N5    N     N_3   0.803885 0.046117 0.618224 -0.485891
H17   H     H_    0.870427 0.075221 0.568244 0.196290
H18   H     H_    0.795978 0.096500 0.657813 0.190320
N6    N     N_3   0.186587 0.961553 0.375471 -0.397833
H19   H     H_    0.192633 0.915851 0.330187 0.249792
H20   H     H_    0.121120 0.928995 0.425362 0.226457
N7    N     N_3   0.300731 0.320759 0.341638 -0.391756
H21   H     H_    0.314783 0.325821 0.272460 0.164264
H22   H     H_    0.208868 0.304038 0.356261 0.165242
N8    N     N_3   0.731022 0.699501 0.642863 -0.385977
H23   H     H_    0.681461 0.634154 0.670328 0.218021
H24   H     H_    0.789148 0.696557 0.591085 0.222476
N9    N     N_3   0.778227 0.869032 0.695945 -0.397067
H25   H     H_    0.751427 0.907779 0.740997 0.212466
H26   H     H_    0.860965 0.903425 0.664666 0.232748
N10   N     N_3   0.216585 0.134762 0.302405 -0.421192
H27   H     H_    0.140228 0.153281 0.322220 0.194226
H28   H     H_    0.248849 0.173468 0.240462 0.192060

loop_
_geom_bond_atom_site_label_1
_geom_bond_atom_site_label_2
_ccdc_geom_bond_type
C7    C49   S    
C21   C26   A    
C4    C36   A    
N9    H25   S    
N7    H21   S    
C15   N1    A    
C37   C46   S    
C16   N2    A    
N10   H28   S    
C1    C33   S    
N2    Zn1   S    
C39   C41   A    
C47   H13   S    
C11   C19   A    
C33   C39   A    
C46   O12   D    
C34   C40   A    
C23   C29   S    
C35   C37   A    
C12   N10   S    
C5    C6    A    
C50   O16   D    
C24   O6    A    
O1    Zn1   S    
O8    Zn1   S    
C7    C9    A    
C13   N8    S    
N4    H8    S    
C2    O2    A    
C40   H1    S    
C49   H15   S    
C44   H10   S    
C43   O9    D    
C22   C25   A    
N5    H18   S    
C19   C27   A    
C8    C50   S    
C2    C34   S    
C40   C42   A    
N3    H5    S    
N9    H26   S    
C34   C38   A    
C21   C22   A    
C10   N4    S    
N10   H27   S    
C23   O5    A    
C47   O13   D    
N3    H6    S    
C46   H12   S    
O2    Zn2   S    
C25   C43   S    
C48   O14   D    
C36   C48   S    
C45   O11   D    
O5    Zn1   S    
C50   H16   S    
C14   N2    A    
C20   C28   A    
C35   C47   S    
C33   C37   A    
C9    N3    S    
N4    H7    S    
C3    C9    A    
C31   C32   S    
C3    C35   A    
C12   C20   A    
N6    H20   S    
C11   N9    S    
O3    Zn2   S    
C1    O3    A    
C6    C7    A    
C2    O4    A    
C16   C18   A    
C49   O15   D    
C12   C14   A    
C43   H9    S    
N8    H24   S    
C24   O8    A    
C4    C10   A    
C14   N7    S    
C13   N1    A    
O6    Zn2   S    
C15   C17   A    
C5    C41   A    
C38   C45   S    
C3    C41   A    
C18   C22   A    
C48   H14   S    
C16   H3    S    
C5    C8    A    
N7    H22   S    
C23   O7    A    
C39   H2    S    
C25   C27   A    
C26   C28   A    
C26   C44   S    
C36   C38   A    
C45   H11   S    
C29   C31   T    
N1    Zn2   S    
C30   C32   T    
C11   C13   A    
C4    C42   A    
N6    H19   S    
C17   C19   A    
C27   N5    S    
C18   C20   A    
C24   C30   S    
O4    Zn1   S    
C28   N6    S    
C8    C10   A    
N8    H23   S    
C6    C42   A    
O7    Zn2   S    
C44   O10   D    
C15   H4    S    
N5    H17   S    
C1    O1    A    
C17   C21   A    
