data_mof_unit_11605.cif
_audit_creation_date              2013-03-05T15:49:32-0500
_audit_creation_method            fapswitch 2.2
_symmetry_space_group_name_H-M    P1
_symmetry_Int_Tables_number       1
_space_group_crystal_system       triclinic
_cell_length_a                    10.752515
_cell_length_b                    12.124852
_cell_length_c                    12.9033
_cell_angle_alpha                 92.834961
_cell_angle_beta                  93.414679
_cell_angle_gamma                 88.061226
_cell_volume                      1676.39068247

loop_
_atom_site_label
_atom_site_type_symbol
_atom_site_description
_atom_site_fract_x
_atom_site_fract_y
_atom_site_fract_z
_atom_type_partial_charge
O1    O     O_R   0.506170 0.421700 0.658830 -0.633549
O2    O     O_R   0.493830 0.578300 0.341170 -0.635482
O3    O     O_R   0.491330 0.609310 0.646410 -0.593762
O4    O     O_R   0.508670 0.390690 0.353590 -0.588827
C1    C     C_R   0.490679 0.521384 0.699375 0.883217
C2    C     C_R   0.508992 0.478627 0.300553 0.879161
O5    O     O_R   0.690650 0.406190 0.506220 -0.539056
O6    O     O_R   0.309350 0.593810 0.493780 -0.538063
O7    O     O_R   0.675800 0.593810 0.493800 -0.677918
O8    O     O_R   0.324200 0.406190 0.506200 -0.678647
C3    C     C_R   0.739457 0.502637 0.505317 0.849853
C4    C     C_R   0.260532 0.497359 0.494652 0.850445
Zn1   Zn    Zn3+2 0.509910 0.374730 0.508290 1.002603
Zn2   Zn    Zn3+2 0.490090 0.625270 0.491710 0.998803
C5    C     C_R   0.901240 0.485264 0.701079 -0.009361
C6    C     C_R   0.098586 0.514193 0.298669 -0.009910
C7    C     C_R   0.978143 0.449137 0.785767 0.460296
C8    C     C_R   0.021318 0.549185 0.213702 0.456452
C9    C     C_R   0.104062 0.425981 0.772694 0.022061
C10   C     C_R   0.895490 0.572669 0.226909 0.023969
C11   C     C_R   0.152855 0.442393 0.677546 -0.237700
C12   C     C_R   0.846957 0.557100 0.322301 -0.238221
C13   C     C_R   0.076391 0.473495 0.589528 0.077987
C14   C     C_R   0.923538 0.526290 0.410341 0.077839
C15   C     C_R   0.947645 0.488526 0.598879 0.002998
C16   C     C_R   0.052295 0.511284 0.400965 0.004061
C17   C     C_R   0.127597 0.490843 0.493233 -0.093000
C18   C     C_R   0.872374 0.509143 0.506678 -0.093113
H1    H     H_    0.251991 0.428380 0.674728 0.175626
H2    H     H_    0.747855 0.571306 0.325221 0.174908
C19   C     C_R   0.517278 0.465910 0.189499 -0.192885
C20   C     C_R   0.481936 0.534336 0.810314 -0.261063
C21   C     C_R   0.419612 0.635300 0.965756 0.024509
C22   C     C_R   0.580681 0.366346 0.033533 0.015071
C23   C     C_R   0.423602 0.627879 0.857825 0.311387
C24   C     C_R   0.575622 0.372591 0.141726 0.250822
C25   C     C_R   0.533410 0.449313 0.869035 -0.212877
C26   C     C_R   0.466455 0.551534 0.131113 -0.259112
C27   C     C_R   0.528620 0.453916 0.975549 0.123897
C28   C     C_R   0.471448 0.547662 0.024541 0.040941
H3    H     H_    0.422420 0.621738 0.169855 0.223981
H4    H     H_    0.577770 0.378621 0.830953 0.252247
N1    N     N_R   0.523130 0.207800 0.519340 -0.176688
N2    N     N_R   0.476870 0.792200 0.480660 -0.177175
C29   C     C_R   0.363453 0.953472 0.418953 -0.266367
C30   C     C_R   0.636434 0.046546 0.581207 -0.264726
C31   C     C_R   0.377805 0.838644 0.424624 0.448853
C32   C     C_R   0.622088 0.161376 0.575527 0.447416
C33   C     C_R   0.563068 0.859730 0.532617 0.174509
C34   C     C_R   0.436893 0.140278 0.467436 0.180281
C35   C     C_R   0.550312 0.976314 0.528915 0.010427
C36   C     C_R   0.449608 0.023699 0.471202 0.010768
H5    H     H_    0.283976 0.986668 0.373705 0.213454
H6    H     H_    0.715926 0.013348 0.626429 0.213301
N3    N     N_3   0.814859 0.607445 0.141508 -0.334043
H7    H     H_    0.747083 0.548272 0.126166 0.211409
H8    H     H_    0.769894 0.681816 0.164152 0.207547
N4    N     N_3   0.184480 0.390669 0.858014 -0.333473
H9    H     H_    0.252281 0.449763 0.873802 0.211229
H10   H     H_    0.229468 0.316436 0.835023 0.210536
N5    N     N_3   0.777915 0.520800 0.723251 -0.401609
H11   H     H_    0.756516 0.597098 0.691519 0.184718
H12   H     H_    0.719694 0.459133 0.694027 0.237112
N6    N     N_3   0.222262 0.479614 0.276702 -0.403701
H13   H     H_    0.279855 0.541758 0.305954 0.237252
H14   H     H_    0.244325 0.403438 0.308447 0.185218
N7    N     N_R   0.927654 0.435259 0.885166 0.250321
O9    O     O_R   0.848643 0.507783 0.923209 -0.348040
O10   O     O_R   0.959845 0.349120 0.938000 -0.323109
N8    N     N_R   0.071280 0.561255 0.113777 0.238529
O11   O     O_R   0.150070 0.488008 0.076541 -0.355706
O12   O     O_R   0.037831 0.645786 0.059116 -0.324449
N9    N     N_R   0.636525 0.288225 0.202330 0.213829
O13   O     O_R   0.598056 0.187440 0.193530 -0.374314
O14   O     O_R   0.731721 0.311862 0.265566 -0.365947
N10   N     N_R   0.362355 0.712266 0.797270 0.238503
O15   O     O_R   0.389508 0.815398 0.815790 -0.335985
O16   O     O_R   0.271349 0.687259 0.730129 -0.363904
N11   N     N_3   0.358949 0.730538 0.013328 -0.352840
H15   H     H_    0.284067 0.704896 0.053184 0.269353
H16   H     H_    0.422746 0.770244 0.065641 0.216914
N12   N     N_3   0.642156 0.273617 0.982447 -0.386790
H17   H     H_    0.733427 0.265959 0.014606 0.270342
H18   H     H_    0.595012 0.202160 0.995697 0.243697
N13   N     N_3   0.332264 0.186247 0.409034 -0.435793
H19   H     H_    0.270201 0.222317 0.460795 0.221295
H20   H     H_    0.362768 0.244430 0.360428 0.240497
N14   N     N_3   0.667660 0.813769 0.591055 -0.436717
H21   H     H_    0.729694 0.777580 0.539347 0.222570
H22   H     H_    0.637092 0.755710 0.639747 0.237695
N15   N     N_R   0.714383 0.228206 0.628648 0.210237
O17   O     O_R   0.707973 0.247679 0.728115 -0.417474
O18   O     O_R   0.822592 0.232148 0.589155 -0.366414
N16   N     N_R   0.285729 0.771785 0.371148 0.212986
O19   O     O_R   0.292100 0.753342 0.271526 -0.451557
O20   O     O_R   0.177499 0.767271 0.410570 -0.364565

loop_
_geom_bond_atom_site_label_1
_geom_bond_atom_site_label_2
_geom_bond_distance
_ccdc_geom_bond_type
N2    C33   1.379114 A    
C8    N8    1.441869 S    
N3    H7    1.043641 S    
N9    O13   1.300830 A    
N13   H19   1.042662 S    
C15   C18   1.426165 A    
O5    C3    1.298711 A    
C16   C17   1.426610 A    
O1    C1    1.302499 A    
N10   O16   1.301207 A    
C9    C11   1.389291 A    
C14   C16   1.401857 A    
C5    C15   1.440295 A    
N4    H10   1.045630 S    
O4    Zn1   2.014216 S    
C25   H4    1.078067 S    
N5    H12   1.033840 S    
C34   N13   1.429107 S    
C21   C23   1.394241 A    
C33   C35   1.418474 A    
C32   N15   1.424680 S    
C34   C36   1.418439 A    
N8    O11   1.301033 A    
C13   C17   1.416501 A    
N1    C32   1.372085 A    
C8    C10   1.391855 A    
N5    H11   1.043179 S    
N2    C31   1.372044 A    
C1    C20   1.440635 S    
N13   H20   1.040449 S    
C2    C19   1.441357 S    
C29   H5    1.083389 S    
N9    O14   1.301115 A    
C33   N14   1.429003 S    
O2    C2    1.302297 A    
C10   N3    1.432186 S    
C29   C31   1.400642 A    
C9    N4    1.432192 S    
C6    C16   1.440606 A    
C30   C32   1.400668 A    
C23   N10   1.436422 S    
C7    N7    1.441696 S    
C21   C28   1.415768 A    
C4    C17   1.433207 S    
N7    O9    1.300921 A    
C20   C23   1.408738 A    
N10   O15   1.301080 A    
C26   H3    1.075861 S    
O4    C2    1.295333 A    
N15   O17   1.298915 A    
N11   H16   1.045475 S    
C21   N11   1.436090 S    
C29   C36   1.399970 A    
N4    H9    1.043826 S    
C11   H1    1.076203 S    
C30   C35   1.400006 A    
C22   C27   1.410307 A    
N7    O10   1.301252 A    
N6    H14   1.043154 S    
O7    Zn2   2.019084 S    
N15   O18   1.300977 A    
O6    C4    1.298780 A    
C30   H6    1.083345 S    
C5    N5    1.421355 S    
C20   C25   1.389919 A    
N16   O20   1.301383 A    
O7    C3    1.290572 A    
O3    Zn2   2.014217 S    
O8    C4    1.290639 A    
N14   H22   1.040361 S    
N12   H18   1.044771 S    
C11   C13   1.420637 A    
C12   C14   1.420501 A    
O1    Zn1   1.999361 S    
Zn1   N1    2.035627 S    
Zn2   N2    2.035628 S    
C5    C7    1.408885 A    
O6    Zn2   1.995096 S    
C12   H2    1.076244 S    
C14   C18   1.416281 A    
C10   C12   1.388954 A    
O3    C1    1.294918 A    
O8    Zn1   2.019083 S    
N1    C34   1.379047 A    
C22   N12   1.436619 S    
C19   C26   1.390663 A    
N6    H13   1.034070 S    
N3    H8    1.045718 S    
C35   C36   1.400478 A    
C25   C27   1.376713 A    
C26   C28   1.377798 A    
C3    C18   1.433042 S    
C7    C9    1.391859 A    
C31   N16   1.425154 S    
C22   C24   1.398548 A    
C13   C15   1.401722 A    
N16   O19   1.299277 A    
O2    Zn2   1.999360 S    
C24   N9    1.435105 S    
N11   H15   1.044758 S    
C27   C28   1.413322 A    
O5    Zn1   1.995097 S    
N14   H21   1.042527 S    
C6    C8    1.409226 A    
N12   H17   1.045504 S    
C19   C24   1.408132 A    
N8    O12   1.301392 A    
C6    N6    1.421263 S    
