data_mof_unit_45542.cif
_audit_creation_date              2012-12-11T14:24:41-0500
_audit_creation_method            fapswitch 2.2
_symmetry_space_group_name_H-M    P1
_symmetry_Int_Tables_number       1
_space_group_crystal_system       triclinic
_cell_length_a                    19.288327
_cell_length_b                    11.327458
_cell_length_c                    18.64181
_cell_angle_alpha                 89.862446
_cell_angle_beta                  90.334079
_cell_angle_gamma                 89.983072
_cell_volume                      4072.92528201

loop_
_atom_site_label
_atom_site_type_symbol
_atom_type_description
_atom_site_fract_x
_atom_site_fract_y
_atom_site_fract_z
_atom_type_partial_charge
C1    C     C_R   0.713170 0.331709 0.138693 0.558615
C2    C     C_R   0.286304 0.333064 0.861369 0.541915
C3    C     C_R   0.213170 0.831709 0.138693 0.558614
C4    C     C_R   0.786304 0.833064 0.861369 0.541914
C5    C     C_3   0.457986 0.060419 0.040017 -0.012089
C6    C     C_3   0.506893 0.054644 0.975764 -0.003609
C7    C     C_3   0.957986 0.560419 0.040017 -0.012089
C8    C     C_3   0.006893 0.554643 0.975764 -0.003609
C9    C     C_R   0.776397 0.845595 0.940700 -0.016250
C10   C     C_R   0.221999 0.839959 0.058516 -0.013376
C11   C     C_R   0.276397 0.345595 0.940700 -0.016250
C12   C     C_R   0.721999 0.339959 0.058516 -0.013376
C13   C     C_R   0.719970 0.794712 0.981236 -0.007297
C14   C     C_R   0.280366 0.793902 0.018846 -0.000418
C15   C     C_R   0.219970 0.294712 0.981236 -0.007296
C16   C     C_R   0.780366 0.293902 0.018846 -0.000418
C17   C     C_R   0.716401 0.816724 0.056162 -0.017657
C18   C     C_R   0.284257 0.816019 0.943893 -0.017347
C19   C     C_R   0.216401 0.316724 0.056162 -0.017656
C20   C     C_R   0.784257 0.316019 0.943893 -0.017347
C21   C     C_R   0.820899 0.932210 0.050866 -0.166393
C22   C     C_R   0.175582 0.919611 0.946396 -0.163904
C23   C     C_R   0.320899 0.432210 0.050866 -0.166393
C24   C     C_R   0.675582 0.419611 0.946396 -0.163904
C25   C     C_R   0.828965 0.906188 0.979437 -0.050845
C26   C     C_R   0.167470 0.892972 0.018293 -0.059201
C27   C     C_R   0.328965 0.406188 0.979437 -0.050845
C28   C     C_R   0.667470 0.392972 0.018293 -0.059200
C29   C     C_R   0.666299 0.724181 0.951951 -0.137002
C30   C     C_R   0.335990 0.728707 0.049004 -0.139930
C31   C     C_R   0.166299 0.224181 0.951951 -0.137003
C32   C     C_R   0.835990 0.228707 0.049004 -0.139929
C33   C     C_R   0.109933 0.187711 0.993438 -0.067476
C34   C     C_R   0.894797 0.200551 0.008839 -0.084147
C35   C     C_R   0.609933 0.687711 0.993438 -0.067476
C36   C     C_R   0.394798 0.700552 0.008839 -0.084146
C37   C     C_R   0.607647 0.708473 0.066899 0.294248
C38   C     C_R   0.396795 0.719489 0.935090 0.293095
C39   C     C_R   0.107647 0.208472 0.066899 0.294248
C40   C     C_R   0.896795 0.219488 0.935090 0.293096
C41   C     C_R   0.665626 0.761304 0.098396 -0.078527
C42   C     C_R   0.337049 0.764692 0.902657 -0.078652
C43   C     C_R   0.165626 0.261304 0.098396 -0.078528
C44   C     C_R   0.837049 0.264692 0.902657 -0.078652
C45   C     C_R   0.532452 0.154516 0.145584 0.539351
C46   C     C_R   0.440412 0.150455 0.862651 0.536161
C47   C     C_R   0.032452 0.654516 0.145584 0.539351
C48   C     C_R   0.940412 0.650455 0.862651 0.536162
C49   C     C_R   0.762100 0.897767 0.087658 -0.003373
C50   C     C_R   0.236937 0.893270 0.911274 -0.001963
C51   C     C_R   0.262100 0.397767 0.087658 -0.003373
C52   C     C_R   0.736937 0.393270 0.911274 -0.001963
C53   C     C_R   0.500009 0.167957 0.575619 -0.015605
C54   C     C_R   0.499859 0.167872 0.424252 -0.014349
C55   C     C_R   0.000009 0.667957 0.575619 -0.015605
C56   C     C_R   0.999859 0.667872 0.424252 -0.014349
C57   C     C_R   0.509972 0.064303 0.536171 0.035464
C58   C     C_R   0.489948 0.064298 0.463973 0.035475
C59   C     C_R   0.009972 0.564303 0.536171 0.035464
C60   C     C_R   0.989948 0.564298 0.463973 0.035475
C61   C     C_R   0.503475 0.274961 0.462312 -0.143758
C62   C     C_R   0.496240 0.274988 0.537234 -0.144609
C63   C     C_R   0.003475 0.774961 0.462312 -0.143758
C64   C     C_R   0.996240 0.774988 0.537234 -0.144610
C65   C     C_R   0.533690 0.958656 0.566705 -0.065920
C66   C     C_R   0.466359 0.958705 0.433658 -0.066028
C67   C     C_R   0.033690 0.458656 0.566705 -0.065920
C68   C     C_R   0.966359 0.458705 0.433658 -0.066028
C69   C     C_R   0.021053 0.353150 0.531111 -0.102021
C70   C     C_R   0.979180 0.353182 0.469417 -0.101714
C71   C     C_R   0.521053 0.853150 0.531111 -0.102021
C72   C     C_R   0.479180 0.853182 0.469417 -0.101714
C73   C     C_R   0.749359 0.920752 0.574897 -0.020924
C74   C     C_R   0.250485 0.920287 0.425165 -0.020408
C75   C     C_R   0.249359 0.420753 0.574897 -0.020924
C76   C     C_R   0.750485 0.420287 0.425165 -0.020409
C77   C     C_R   0.800641 0.978908 0.535177 0.018189
C78   C     C_R   0.199129 0.978324 0.464779 0.018564
C79   C     C_R   0.300641 0.478908 0.535177 0.018189
C80   C     C_R   0.699129 0.478324 0.464779 0.018564
C81   C     C_R   0.810306 0.943532 0.464518 0.012234
C82   C     C_R   0.189637 0.943225 0.535624 0.011647
C83   C     C_R   0.310306 0.443532 0.464518 0.012234
C84   C     C_R   0.689637 0.443225 0.535624 0.011647
C85   C     C_R   0.692769 0.872191 0.463670 -0.037654
C86   C     C_R   0.307297 0.872398 0.536534 -0.037878
C87   C     C_R   0.192769 0.372191 0.463670 -0.037654
C88   C     C_R   0.807298 0.372398 0.536534 -0.037878
C89   C     C_R   0.743910 0.965680 0.151848 0.535778
C90   C     C_R   0.255869 0.964913 0.848055 0.531654
C91   C     C_R   0.243910 0.465680 0.151848 0.535778
C92   C     C_R   0.755869 0.464913 0.848055 0.531654
C93   C     C_R   0.694874 0.865386 0.538121 -0.165334
C94   C     C_R   0.305081 0.865187 0.462093 -0.165815
C95   C     C_R   0.194874 0.365386 0.538121 -0.165334
C96   C     C_R   0.805081 0.365187 0.462093 -0.165815
C97   C     C_R   0.845092 0.064291 0.564314 0.032196
C98   C     C_R   0.154632 0.063780 0.435506 0.032868
C99   C     C_R   0.345092 0.564291 0.564314 0.032196
C100  C     C_R   0.654632 0.563780 0.435506 0.032868
C101  C     C_R   0.905783 0.091693 0.527502 -0.147850
C102  C     C_R   0.094013 0.091264 0.472368 -0.147907
C103  C     C_R   0.405783 0.591693 0.527502 -0.147850
C104  C     C_R   0.594013 0.591264 0.472368 -0.147906
C105  C     C_R   0.920765 0.038196 0.462160 -0.155314
C106  C     C_R   0.079102 0.037738 0.537859 -0.155413
C107  C     C_R   0.420765 0.538196 0.462160 -0.155314
C108  C     C_R   0.579102 0.537738 0.537859 -0.155413
C109  C     C_R   0.874171 0.961512 0.431500 -0.078783
C110  C     C_R   0.125810 0.961160 0.568704 -0.078811
C111  C     C_R   0.374171 0.461512 0.431500 -0.078783
C112  C     C_R   0.625810 0.461160 0.568704 -0.078811
C113  C     C_R   0.751535 0.912571 0.425793 -0.008995
C114  C     C_R   0.248515 0.912697 0.574362 -0.008948
C115  C     C_R   0.251535 0.412571 0.425793 -0.008995
C116  C     C_R   0.748515 0.412697 0.574362 -0.008947
C117  C     C_R   0.731151 0.379190 0.353721 0.566475
C118  C     C_R   0.268820 0.379354 0.646317 0.566452
C119  C     C_R   0.231151 0.879189 0.353721 0.566475
C120  C     C_R   0.768820 0.879354 0.646317 0.566452
C121  C     C_R   0.531558 0.157695 0.352392 0.533357
C122  C     C_R   0.468416 0.157782 0.647567 0.541468
C123  C     C_R   0.031558 0.657695 0.352392 0.533357
C124  C     C_R   0.968416 0.657782 0.647567 0.541468
C125  C     C_R   0.742584 0.968537 0.355205 0.550435
C126  C     C_R   0.257432 0.968634 0.644826 0.552932
C127  C     C_R   0.242584 0.468537 0.355205 0.550435
C128  C     C_R   0.757432 0.468634 0.644826 0.552933
C129  C     C_3   0.510839 0.246791 0.971141 -0.094613
C130  C     C_3   0.461264 0.253025 0.036810 -0.108596
C131  C     C_3   0.010839 0.746790 0.971141 -0.094614
C132  C     C_3   0.961264 0.753025 0.036810 -0.108596
C133  C     C_3   0.553643 0.149628 0.008684 -0.143918
C134  C     C_3   0.414238 0.156793 0.002989 -0.172761
C135  C     C_3   0.053642 0.649627 0.008684 -0.143918
C136  C     C_3   0.914238 0.656793 0.002989 -0.172761
C137  C     C_3   0.503876 0.156843 0.072803 0.029785
C138  C     C_3   0.464159 0.152010 0.938307 0.019654
C139  C     C_3   0.003876 0.656843 0.072803 0.029785
C140  C     C_3   0.964159 0.652010 0.938307 0.019654
Cr1   Cr    Cr6+3 0.772820 0.169820 0.252640 0.999133
Cr2   Cr    Cr6+3 0.227180 0.169820 0.747360 0.989717
Cr3   Cr    Cr6+3 0.272820 0.669820 0.252640 0.999133
Cr4   Cr    Cr6+3 0.727180 0.669820 0.747360 0.989717
Cr5   Cr    Cr6+3 0.615040 0.323610 0.249150 1.020845
Cr6   Cr    Cr6+3 0.384960 0.323610 0.750850 1.022450
Cr7   Cr    Cr6+3 0.115040 0.823610 0.249150 1.020847
Cr8   Cr    Cr6+3 0.884960 0.823610 0.750850 1.022450
Cr9   Cr    Cr6+3 0.616720 0.011130 0.250660 1.039737
Cr10  Cr    Cr6+3 0.383280 0.011130 0.749340 1.034271
Cr11  Cr    Cr6+3 0.116720 0.511130 0.250660 1.039735
Cr12  Cr    Cr6+3 0.883280 0.511130 0.749340 1.034269
H1    H     H_    0.611088 0.146035 0.012747 0.114414
H2    H     H_    0.356808 0.156737 0.999528 0.113492
H3    H     H_    0.111088 0.646034 0.012747 0.114414
H4    H     H_    0.856808 0.656737 0.999528 0.113492
H5    H     H_    0.511834 0.357329 0.434359 0.147156
H6    H     H_    0.487776 0.357335 0.564939 0.147340
H7    H     H_    0.011834 0.857329 0.434359 0.147156
H8    H     H_    0.987776 0.857335 0.564939 0.147340
H9    H     H_    0.558625 0.956941 0.618921 0.130510
H10   H     H_    0.441417 0.957059 0.381447 0.131225
H11   H     H_    0.058626 0.456941 0.618921 0.130511
H12   H     H_    0.941417 0.457059 0.381447 0.131225
H13   H     H_    0.037048 0.271589 0.556000 0.103733
H14   H     H_    0.963267 0.271724 0.444636 0.103868
H15   H     H_    0.537048 0.771589 0.556000 0.103733
H16   H     H_    0.463267 0.771724 0.444636 0.103868
H17   H     H_    0.655402 0.817549 0.566960 0.135064
H18   H     H_    0.344608 0.817438 0.433384 0.135265
H19   H     H_    0.155402 0.317549 0.566960 0.135064
H20   H     H_    0.844608 0.317439 0.433384 0.135265
H21   H     H_    0.941758 0.153000 0.549260 0.120320
H22   H     H_    0.058070 0.152773 0.450600 0.120356
H23   H     H_    0.441758 0.653000 0.549260 0.120320
H24   H     H_    0.558069 0.652773 0.450600 0.120356
H25   H     H_    0.966029 0.059348 0.432027 0.104578
H26   H     H_    0.033830 0.058906 0.567953 0.105039
H27   H     H_    0.466029 0.559348 0.432027 0.104578
H28   H     H_    0.533830 0.558906 0.567953 0.105040
H29   H     H_    0.885254 0.924907 0.379111 0.127191
H30   H     H_    0.114849 0.924637 0.621245 0.129059
H31   H     H_    0.385254 0.424907 0.379111 0.127191
H32   H     H_    0.614849 0.424637 0.621245 0.129059
H33   H     H_    0.536002 0.317130 0.939335 0.155006
H34   H     H_    0.443189 0.329708 0.067929 0.145949
H35   H     H_    0.036003 0.817129 0.939335 0.155006
H36   H     H_    0.943189 0.829708 0.067929 0.145950
H37   H     H_    0.860475 0.984400 0.077442 0.131744
H38   H     H_    0.135005 0.968370 0.918791 0.130846
H39   H     H_    0.360475 0.484400 0.077442 0.131744
H40   H     H_    0.635006 0.468370 0.918791 0.130845
H41   H     H_    0.662685 0.700589 0.896813 0.189782
H42   H     H_    0.338668 0.702401 0.103853 0.192051
H43   H     H_    0.162686 0.200589 0.896813 0.189780
H44   H     H_    0.838668 0.202400 0.103853 0.192050
H45   H     H_    0.067466 0.141640 0.967860 0.191109
H46   H     H_    0.938174 0.158177 0.035022 0.195564
H47   H     H_    0.567466 0.641641 0.967861 0.191109
H48   H     H_    0.438174 0.658178 0.035022 0.195565
H49   H     H_    0.671047 0.761917 0.155928 0.126348
H50   H     H_    0.331638 0.762904 0.845121 0.127593
H51   H     H_    0.171047 0.261918 0.155928 0.126348
H52   H     H_    0.831638 0.262904 0.845121 0.127593
O1    O     O_R   0.788190 0.043000 0.172520 -0.560577
O2    O     O_R   0.211810 0.043000 0.827480 -0.558325
O3    O     O_R   0.288190 0.543000 0.172520 -0.560577
O4    O     O_R   0.711810 0.543000 0.827480 -0.558324
O5    O     O_R   0.556550 0.253260 0.323480 -0.511566
O6    O     O_R   0.443450 0.253260 0.676520 -0.505959
O7    O     O_R   0.056550 0.753260 0.323480 -0.511566
O8    O     O_R   0.943450 0.753260 0.676520 -0.505959
O9    O     O_R   0.545830 0.051610 0.330160 -0.495196
O10   O     O_R   0.454170 0.051610 0.669840 -0.493331
O11   O     O_R   0.045830 0.551610 0.330160 -0.495197
O12   O     O_R   0.954170 0.551610 0.669840 -0.493331
O13   O     O_R   0.681920 0.959720 0.327070 -0.471869
O14   O     O_R   0.318080 0.959720 0.672930 -0.471674
O15   O     O_R   0.181920 0.459720 0.327070 -0.471869
O16   O     O_R   0.818080 0.459720 0.672930 -0.471674
O17   O     O_3   0.668190 0.168190 0.250820 -0.288010
O18   O     O_3   0.331810 0.168190 0.749180 -0.299081
O19   O     O_3   0.168190 0.668190 0.250820 -0.288010
O20   O     O_3   0.831810 0.668190 0.749180 -0.299081
O21   O     O_R   0.766240 0.292300 0.176860 -0.504125
O22   O     O_R   0.233760 0.292300 0.823140 -0.512911
O23   O     O_R   0.266240 0.792300 0.176860 -0.504125
O24   O     O_R   0.733760 0.792300 0.823140 -0.512911
O25   O     O_R   0.670310 0.409160 0.168720 -0.498133
O26   O     O_R   0.329690 0.409160 0.831280 -0.499825
O27   O     O_R   0.170310 0.909160 0.168720 -0.498131
O28   O     O_R   0.829690 0.909160 0.831280 -0.499823
O29   O     O_R   0.556160 0.251900 0.173380 -0.510646
O30   O     O_R   0.443840 0.251900 0.826620 -0.504699
O31   O     O_R   0.056160 0.751900 0.173380 -0.510646
O32   O     O_R   0.943840 0.751900 0.826620 -0.504700
O33   O     O_R   0.545410 0.050140 0.168240 -0.510332
O34   O     O_R   0.454590 0.050140 0.831760 -0.506256
O35   O     O_R   0.045410 0.550140 0.168240 -0.510334
O36   O     O_R   0.954590 0.550140 0.831760 -0.506257
O37   O     O_R   0.681530 0.958350 0.176970 -0.512857
O38   O     O_R   0.318470 0.958350 0.823030 -0.525334
O39   O     O_R   0.181530 0.458350 0.176970 -0.512857
O40   O     O_R   0.818470 0.458350 0.823030 -0.525335
O41   O     O_R   0.788610 0.044480 0.334450 -0.526265
O42   O     O_R   0.211390 0.044480 0.665550 -0.524948
O43   O     O_R   0.288610 0.544480 0.334450 -0.526265
O44   O     O_R   0.711390 0.544480 0.665550 -0.524948
O45   O     O_R   0.766630 0.293670 0.326970 -0.500121
O46   O     O_R   0.233370 0.293670 0.673030 -0.500878
O47   O     O_R   0.266630 0.793670 0.326970 -0.500122
O48   O     O_R   0.733370 0.793670 0.673030 -0.500878
O49   O     O_R   0.670730 0.410640 0.330640 -0.508876
O50   O     O_R   0.329270 0.410640 0.669360 -0.507283
O51   O     O_R   0.170730 0.910640 0.330640 -0.508876
O52   O     O_R   0.829270 0.910640 0.669360 -0.507283
C141  C     C_1   0.631116 0.843908 0.424427 0.241704
N1    N     N_1   0.586304 0.824336 0.384632 -0.297163
C142  C     C_1   0.368967 0.844066 0.575844 0.241516
N2    N     N_1   0.413760 0.824238 0.615682 -0.297941
C143  C     C_1   0.131116 0.343908 0.424427 0.241704
N3    N     N_1   0.086304 0.324336 0.384632 -0.297163
C144  C     C_1   0.868967 0.344066 0.575844 0.241517
N4    N     N_1   0.913760 0.324238 0.615682 -0.297942
C145  C     C_1   0.826249 0.125017 0.630000 0.225521
N5    N     N_1   0.810301 0.170914 0.682885 -0.313986
C146  C     C_1   0.173563 0.124989 0.369856 0.224889
N6    N     N_1   0.189637 0.171366 0.317043 -0.318629
C147  C     C_1   0.326249 0.625017 0.630000 0.225521
N7    N     N_1   0.310301 0.670914 0.682885 -0.313986
C148  C     C_1   0.673563 0.624989 0.369856 0.224888
N8    N     N_1   0.689637 0.671366 0.317043 -0.318629
C149  C     C_1   0.431018 0.968496 0.087448 0.242878
N9    N     N_1   0.411148 0.899683 0.128245 -0.296882
C150  C     C_1   0.535096 0.954209 0.936942 0.270762
N10   N     N_1   0.557291 0.878485 0.902844 -0.273889
C151  C     C_1   0.931017 0.468496 0.087448 0.242876
N11   N     N_1   0.911148 0.399683 0.128245 -0.296882
C152  C     C_1   0.035095 0.454208 0.936942 0.270760
N12   N     N_1   0.057290 0.378484 0.902845 -0.273893
C153  C     C_1   0.894109 0.941161 0.948624 0.231364
N13   N     N_1   0.946486 0.967364 0.923561 -0.276180
C154  C     C_1   0.102232 0.925864 0.049361 0.228141
N14   N     N_1   0.049982 0.952174 0.074611 -0.269498
C155  C     C_1   0.394109 0.441162 0.948624 0.231363
N15   N     N_1   0.446486 0.467365 0.923561 -0.276184
C156  C     C_1   0.602232 0.425865 0.049360 0.228139
N16   N     N_1   0.549982 0.452175 0.074611 -0.269503
O53   O     O_3   0.046487 0.180545 0.103039 -0.565281
C157  C     C_3   0.052140 0.181581 0.178679 0.011447
H53   H     H_    0.059615 0.273417 0.198367 0.160307
H54   H     H_    0.095242 0.123404 0.197173 0.166858
C158  C     C_3   0.985488 0.133836 0.211086 -0.342387
H55   H     H_    0.976382 0.041722 0.193040 0.161962
H56   H     H_    0.989549 0.134662 0.270571 0.091291
H57   H     H_    0.940722 0.189229 0.194478 0.168537
O54   O     O_3   0.958500 0.194423 0.899149 -0.552479
C159  C     C_3   0.952139 0.189801 0.823512 0.017898
H58   H     H_    0.942163 0.279546 0.801307 0.160694
H59   H     H_    0.910299 0.127552 0.807125 0.161646
C160  C     C_3   0.019525 0.144380 0.791487 -0.338570
H60   H     H_    0.032235 0.055872 0.813669 0.162660
H61   H     H_    0.013955 0.137299 0.732311 0.089082
H62   H     H_    0.062768 0.205767 0.803708 0.167431
O55   O     O_3   0.546486 0.680547 0.103039 -0.565282
C161  C     C_3   0.552141 0.681577 0.178679 0.011448
H63   H     H_    0.559617 0.773411 0.198370 0.160304
H64   H     H_    0.595242 0.623397 0.197171 0.166861
C162  C     C_3   0.485488 0.633832 0.211085 -0.342384
H65   H     H_    0.476380 0.541720 0.193034 0.161965
H66   H     H_    0.489552 0.634650 0.270572 0.091291
H67   H     H_    0.440723 0.689234 0.194482 0.168536
O56   O     O_3   0.458500 0.694426 0.899149 -0.552480
C163  C     C_3   0.452139 0.689798 0.823513 0.017898
H68   H     H_    0.442161 0.779541 0.801306 0.160691
H69   H     H_    0.410300 0.627546 0.807128 0.161649
C164  C     C_3   0.519526 0.644380 0.791489 -0.338570
H70   H     H_    0.532244 0.555884 0.813679 0.162665
H71   H     H_    0.513953 0.637279 0.732314 0.089080
H72   H     H_    0.562765 0.705779 0.803698 0.167424

loop_
_geom_bond_atom_site_label_1
_geom_bond_atom_site_label_2
_ccdc_geom_bond_type
C99   C103  A    
Cr6   O30   S    
C133  C137  S    
C129  H33   S    
C126  O42   A    
C157  C158  S    
Cr1   O45   S    
C73   C93   A    
C136  C140  S    
C132  H36   S    
C75   C95   A    
C112  H32   S    
C160  H60   S    
C135  C139  S    
C84   C112  A    
Cr3   O47   S    
C4    O28   A    
C79   C99   A    
Cr12  O40   S    
C55   C59   A    
Cr8   O8    S    
C5    C6    S    
Cr5   O17   S    
C148  N8    T    
C100  C104  A    
C9    C13   A    
C131  C140  S    
Cr7   O27   S    
C50   C90   S    
C28   C156  S    
C89   O1    A    
C12   C16   A    
Cr2   O42   S    
Cr9   O33   S    
C22   H38   S    
C87   C115  A    
C32   H44   S    
C108  C112  A    
C116  C128  S    
C59   C60   A    
Cr11  O11   S    
Cr6   O50   S    
C8    C135  S    
C101  C105  A    
C130  C134  S    
C47   O31   A    
C68   H12   S    
C127  O15   A    
C56   C123  S    
C118  O46   A    
C105  H25   S    
C163  H68   S    
C98   C102  A    
C121  O9    A    
C164  H72   S    
C78   C82   A    
C11   C27   A    
C16   C20   A    
C45   O33   A    
C161  H63   S    
Cr9   O13   S    
C129  C133  S    
C97   C145  S    
Cr11  O15   S    
C5    C149  S    
C159  H58   S    
C3    O27   A    
C2    O22   A    
C160  H62   S    
C107  H27   S    
Cr5   O29   S    
C120  O48   A    
Cr3   O23   S    
C5    C137  S    
C54   C61   A    
C158  H57   S    
C29   C35   A    
C30   C36   A    
C8    C140  S    
C76   C96   A    
C31   H43   S    
C29   H41   S    
Cr7   O51   S    
Cr2   O2    S    
C69   C70   A    
Cr9   O9    S    
Cr11  O39   S    
C65   H9    S    
C73   C77   A    
C103  C107  A    
C67   C69   A    
C7    C151  S    
C75   C79   A    
C94   H18   S    
C126  O14   A    
Cr1   O17   S    
C100  C148  S    
C131  H35   S    
C6    C138  S    
C39   O53   S    
C37   O55   S    
C101  H21   S    
C63   H7    S    
C21   C49   A    
C35   H47   S    
C7    C8    S    
C104  H24   S    
C134  H2    S    
C132  C139  S    
Cr12  O12   S    
C46   O30   A    
C53   C122  S    
C18   C42   A    
C143  N3    T    
C114  C126  S    
C141  N1    T    
C59   C67   A    
C85   C93   A    
C87   C95   A    
Cr1   O41   S    
C122  O6    A    
C77   C97   A    
C128  O16   A    
C84   C116  A    
C71   H15   S    
C151  N11   T    
C72   H16   S    
C1    C12   S    
C11   C15   A    
C2    C11   S    
C20   C44   A    
Cr5   O5    S    
C162  H66   S    
C66   C72   A    
C48   C140  S    
C83   C115  A    
C10   C14   A    
C17   C49   A    
C158  H55   S    
C119  O47   A    
C34   H46   S    
C21   H37   S    
C132  C136  S    
C111  H31   S    
O53   C157  S    
C24   H40   S    
C110  H30   S    
C47   O35   A    
C54   C121  S    
Cr8   O52   S    
C90   O38   A    
C22   C26   A    
C42   H50   S    
C47   C139  S    
C8    C152  S    
C129  C130  S    
C109  H29   S    
Cr5   O25   S    
C107  C111  A    
C76   C80   A    
C91   O3    A    
C146  N6    T    
C15   C31   A    
C16   C32   A    
C13   C17   A    
C85   C141  S    
C85   C113  A    
C7    C136  S    
C57   C58   A    
Cr11  O19   S    
C37   C41   A    
C61   C62   A    
C69   H13   S    
C2    O26   A    
C63   C64   A    
C67   H11   S    
C40   C44   A    
C154  N14   T    
C44   H52   S    
C4    C9    S    
C106  H26   S    
Cr7   O31   S    
C24   C52   A    
C88   C96   A    
C123  O11   A    
C74   C94   A    
C125  O41   A    
C150  N10   T    
C80   C84   A    
C9    C25   A    
C144  N4    T    
C15   C19   A    
C93   H17   S    
C12   C28   A    
C13   C29   A    
C40   O54   S    
C45   O29   A    
C6    C133  S    
C54   C58   A    
Cr6   O18   S    
C163  H69   S    
C66   H10   S    
C157  H53   S    
C164  H71   S    
Cr9   O37   S    
C21   C25   A    
C51   C91   S    
C90   O2    A    
Cr3   O3    S    
C161  H64   S    
C152  N12   T    
C62   H6    S    
Cr8   O28   S    
C87   C143  S    
C22   C50   A    
C163  C164  S    
C73   C120  S    
C147  N7    T    
Cr10  O18   S    
Cr5   O49   S    
C75   C118  S    
C159  H59   S    
Cr7   O7    S    
C48   O36   A    
C19   C43   A    
Cr2   O22   S    
C160  H61   S    
C161  C162  S    
C24   C28   A    
C117  O45   A    
C124  O8    A    
C99   C147  S    
C56   C60   A    
C159  C160  S    
C155  N15   T    
C61   H5    S    
C27   C155  S    
C156  N16   T    
C77   C81   A    
C64   H8    S    
C103  H23   S    
C34   C40   A    
C81   C109  A    
Cr12  O20   S    
C83   C111  A    
C52   C92   S    
C127  O43   A    
C41   H49   S    
C131  C132  S    
C3    O23   A    
C104  C108  A    
Cr7   O19   S    
C18   C50   A    
C1    O21   A    
C55   C124  S    
C53   C57   A    
C36   H48   S    
C57   C65   A    
C119  O51   A    
Cr11  O35   S    
C76   C117  S    
C36   C38   A    
C79   C83   A    
O56   C163  S    
C30   H42   S    
C105  C109  A    
Cr3   O43   S    
C4    O24   A    
C122  O10   A    
Cr10  O38   S    
C60   C68   A    
C158  H56   S    
O55   C161  S    
C74   C78   A    
C81   C113  A    
C130  C137  S    
C95   H19   S    
C32   C34   A    
Cr4   O4    S    
C125  O13   A    
Cr6   O26   S    
Cr2   O46   S    
C38   O56   S    
O54   C159  S    
C14   C18   A    
C23   H39   S    
C115  C127  S    
C162  H65   S    
C74   C119  S    
C33   C39   A    
C133  H1    S    
C82   C110  A    
C35   C37   A    
C38   C42   A    
C131  C135  S    
C70   H14   S    
Cr3   O19   S    
C136  H4    S    
C113  C125  S    
C135  H3    S    
C108  H28   S    
C86   C94   A    
C58   C66   A    
C129  C138  S    
Cr10  O34   S    
C123  O7    A    
C78   C98   A    
C31   C33   A    
C121  O5    A    
C118  O50   A    
C145  N5    T    
C46   C138  S    
C10   C26   A    
Cr10  O10   S    
Cr4   O48   S    
C80   C100  A    
Cr9   O17   S    
C14   C30   A    
Cr6   O6    S    
Cr1   O1    S    
Cr1   O21   S    
C5    C134  S    
C117  O49   A    
C128  O44   A    
C82   C114  A    
C39   C43   A    
C153  N13   T    
C65   C71   A    
Cr8   O32   S    
C88   C116  A    
C120  O52   A    
C92   O4    A    
C19   C51   A    
C53   C62   A    
C23   C51   A    
Cr12  O36   S    
C33   H45   S    
C98   C146  S    
C55   C64   A    
C45   C137  S    
C149  N9    T    
Cr10  O14   S    
C56   C63   A    
C6    C150  S    
C26   C154  S    
C48   O32   A    
C68   C70   A    
C91   O39   A    
C23   C27   A    
Cr4   O44   S    
C43   H51   S    
C89   O37   A    
C142  N2    T    
C124  O12   A    
C162  H67   S    
C49   C89   S    
C134  C138  S    
C130  H34   S    
C102  H22   S    
C86   C114  A    
Cr8   O20   S    
C20   C52   A    
C3    C10   S    
C7    C139  S    
C92   O40   A    
Cr12  O16   S    
C102  C106  A    
C157  H54   S    
C46   O34   A    
C164  H70   S    
C17   C41   A    
C86   C142  S    
Cr4   O20   S    
C1    O25   A    
C71   C72   A    
C106  C110  A    
C96   H20   S    
Cr4   O24   S    
C25   C153  S    
Cr2   O18   S    
C97   C101  A    
C88   C144  S    
