data_mof_unit_65192.cif
_audit_creation_date              2012-12-10T18:50:54-0500
_audit_creation_method            fapswitch 2.2
_symmetry_space_group_name_H-M    P1
_symmetry_Int_Tables_number       1
_space_group_crystal_system       triclinic
_cell_length_a                    17.356597
_cell_length_b                    18.190067
_cell_length_c                    19.37437
_cell_angle_alpha                 89.731067
_cell_angle_beta                  90.107653
_cell_angle_gamma                 86.289829
_cell_volume                      6103.92898618

loop_
_atom_site_label
_atom_site_type_symbol
_atom_type_description
_atom_site_fract_x
_atom_site_fract_y
_atom_site_fract_z
_atom_type_partial_charge
C1    C     C_R   0.497312 0.500086 0.632297 0.846617
C2    C     C_R   0.501977 0.500018 0.367682 0.850788
C3    C     C_R   0.454570 0.549590 0.255868 -0.227245
C4    C     C_R   0.536849 0.447672 0.745349 -0.227652
C5    C     C_R   0.453706 0.549507 0.184173 -0.187515
C6    C     C_R   0.535315 0.447967 0.817018 -0.190824
C7    C     C_R   0.503161 0.499969 0.147683 -0.032031
C8    C     C_R   0.488430 0.500769 0.852276 -0.027235
C9    C     C_R   0.555928 0.451368 0.183390 0.263836
C10   C     C_R   0.440437 0.552552 0.815155 0.255112
C11   C     C_R   0.557063 0.451601 0.255993 0.223731
C12   C     C_R   0.442086 0.552475 0.742545 0.226089
C13   C     C_R   0.504862 0.500077 0.292186 -0.133524
C14   C     C_R   0.491862 0.500463 0.707717 -0.148276
C15   C     C_R   0.473630 0.438985 0.037129 -0.107186
C16   C     C_R   0.516495 0.562220 0.963064 -0.105638
C17   C     C_R   0.470001 0.439214 0.965277 -0.148206
C18   C     C_R   0.519931 0.562060 0.034908 -0.144553
C19   C     C_R   0.491002 0.501004 0.927997 0.131918
C20   C     C_R   0.499037 0.500244 0.072111 0.130329
C21   C     C_R   0.448835 0.275897 0.536271 0.289916
C22   C     C_R   0.448406 0.730473 0.464076 0.311283
C23   C     C_R   0.649950 0.490679 0.498849 0.834484
C24   C     C_R   0.350054 0.509359 0.500186 0.825839
C25   C     C_R   0.456190 0.197830 0.536487 0.083358
C26   C     C_R   0.455876 0.807602 0.463829 0.085434
C27   C     C_R   0.516387 0.160183 0.499774 0.090550
C28   C     C_R   0.516337 0.837715 0.500514 0.101399
C29   C     C_R   0.567284 0.202595 0.462996 -0.277803
C30   C     C_R   0.567257 0.788969 0.537455 -0.289933
C31   C     C_R   0.558127 0.279976 0.463788 0.065783
C32   C     C_R   0.558036 0.712719 0.536637 0.064360
C33   C     C_R   0.526147 0.036904 0.437003 0.147928
C34   C     C_R   0.526264 0.959769 0.563319 0.148910
C35   C     C_R   0.526721 0.959236 0.438457 -0.237680
C36   C     C_R   0.526865 0.037363 0.561867 -0.235462
C37   C     C_R   0.524850 0.919733 0.501114 0.130708
C38   C     C_R   0.524857 0.077109 0.499205 0.132593
C39   C     C_R   0.733996 0.486655 0.493253 -0.080783
C40   C     C_R   0.265851 0.513592 0.501914 -0.086246
C41   C     C_R   0.773197 0.551392 0.498114 -0.188436
C42   C     C_R   0.226497 0.451543 0.484459 -0.199199
C43   C     C_R   0.852518 0.549047 0.490011 -0.172856
C44   C     C_R   0.146841 0.453442 0.488990 -0.163352
C45   C     C_R   0.894192 0.481849 0.477450 0.106275
C46   C     C_R   0.104710 0.518159 0.509421 0.108019
C47   C     C_R   0.855146 0.416776 0.471348 0.295043
C48   C     C_R   0.144051 0.580812 0.527034 0.288944
C49   C     C_R   0.775245 0.419419 0.479695 -0.175028
C50   C     C_R   0.224377 0.578187 0.523125 -0.181151
C51   C     C_2   0.978293 0.480198 0.471203 -0.174237
C52   C     C_2   0.020229 0.519639 0.513813 -0.173409
Cu1   Cu    Cu3+1 0.500020 0.426640 0.500000 0.960752
Cu2   Cu    Cu3+1 0.499980 0.573360 0.500000 0.970132
H1    H     H_    0.742616 0.604137 0.507787 0.162780
H2    H     H_    0.257185 0.401251 0.467347 0.159152
H3    H     H_    0.456805 0.391175 0.065540 0.157726
H4    H     H_    0.533909 0.609843 0.934713 0.159175
H5    H     H_    0.450504 0.391531 0.938700 0.148283
H6    H     H_    0.539650 0.609629 0.061520 0.149284
H7    H     H_    0.614670 0.176026 0.434271 0.184616
H8    H     H_    0.614613 0.809666 0.566415 0.169888
H9    H     H_    0.598776 0.310991 0.435597 0.186689
H10   H     H_    0.598333 0.676564 0.565430 0.143371
H11   H     H_    0.526607 0.929671 0.390041 0.159719
H12   H     H_    0.526884 0.066928 0.610286 0.159824
H13   H     H_    0.254229 0.626247 0.537630 0.192373
H14   H     H_    0.745541 0.369103 0.474992 0.184456
H15   H     H_    0.991585 0.554050 0.552930 0.193702
H16   H     H_    0.005720 0.445344 0.431844 0.189180
H17   H     H_    0.118645 0.403579 0.477460 0.168227
H18   H     H_    0.881249 0.600063 0.492985 0.169866
H19   H     H_    0.414750 0.587433 0.283118 0.156903
H20   H     H_    0.574605 0.407077 0.719160 0.170616
H21   H     H_    0.413494 0.587430 0.156941 0.171431
H22   H     H_    0.571883 0.407642 0.845225 0.171010
N1    N     N_R   0.500010 0.316380 0.499980 -0.203232
N2    N     N_R   0.499990 0.683620 0.500020 -0.190980
O1    O     O_R   0.500030 0.438020 0.599820 -0.601224
O2    O     O_R   0.499970 0.561980 0.400180 -0.598538
O3    O     O_R   0.500000 0.561930 0.599810 -0.545982
O4    O     O_R   0.500000 0.438070 0.400190 -0.551646
O5    O     O_R   0.613620 0.430860 0.500010 -0.591134
O6    O     O_R   0.386380 0.569140 0.499990 -0.589278
O7    O     O_R   0.613580 0.554770 0.500010 -0.601498
O8    O     O_R   0.386420 0.445230 0.499990 -0.602290
N3    N     N_3   0.385738 0.310537 0.573880 -0.603856
H23   H     H_    0.404624 0.351768 0.605519 0.265124
H24   H     H_    0.343995 0.331385 0.539062 0.236350
N4    N     N_3   0.384536 0.703691 0.427252 -0.608757
H25   H     H_    0.402767 0.659504 0.396179 0.249282
H26   H     H_    0.343146 0.688675 0.462640 0.246163
N5    N     N_3   0.400672 0.156681 0.572200 -0.582711
H27   H     H_    0.345965 0.171381 0.551860 0.248674
H28   H     H_    0.400961 0.171540 0.624260 0.238904
N6    N     N_3   0.400142 0.855693 0.428250 -0.583245
H29   H     H_    0.345588 0.847858 0.448760 0.256077
H30   H     H_    0.399952 0.840770 0.376205 0.235742
N7    N     N_3   0.523329 0.074844 0.372041 -0.577886
H31   H     H_    0.474232 0.060057 0.345452 0.238098
H32   H     H_    0.571746 0.056280 0.343487 0.229467
N8    N     N_3   0.523531 0.922174 0.628275 -0.575386
H33   H     H_    0.474471 0.943027 0.654724 0.244385
H34   H     H_    0.571987 0.934753 0.656966 0.222436
Br1   Br    Br    0.908563 0.322943 0.454250 -0.484625
Br2   Br    Br    0.091019 0.671655 0.555107 -0.480587
Br3   Br    Br    0.628661 0.387414 0.133026 -0.417694
Br4   Br    Br    0.369846 0.620603 0.863403 -0.417498
Br5   Br    Br    0.633752 0.389860 0.304883 -0.454845
Br6   Br    Br    0.372472 0.620116 0.691736 -0.410750

loop_
_geom_bond_atom_site_label_1
_geom_bond_atom_site_label_2
_ccdc_geom_bond_type
N3    H23   S    
C21   N3    S    
C25   N5    S    
N5    H27   S    
C49   H14   S    
C11   Br5   S    
C34   C37   A    
C41   C43   A    
C10   Br4   S    
C12   Br6   S    
C39   C41   A    
Cu1   Cu2   S    
C34   N8    S    
C23   O5    A    
C23   C39   S    
Cu1   O1    S    
C33   C35   A    
C36   H12   S    
C27   C29   A    
C45   C51   S    
C27   C38   S    
C1    O3    A    
C46   C52   S    
C44   H17   S    
C15   C17   A    
C2    C13   S    
C41   H1    S    
C52   H15   S    
C42   H2    S    
C48   Br2   S    
C47   Br1   S    
N6    H30   S    
Cu1   O8    S    
C51   H16   S    
C50   H13   S    
C4    H20   S    
C3    C13   A    
C40   C42   A    
N5    H28   S    
C15   H3    S    
C42   C44   A    
Cu2   O6    S    
C44   C46   A    
C31   N1    A    
Cu2   O2    S    
C45   C47   A    
C26   N6    S    
C15   C20   A    
C29   H7    S    
C8    C19   S    
C51   C52   D    
C31   H9    S    
C32   H10   S    
C4    C6    A    
C5    C7    A    
C6    C8    A    
Cu1   O4    S    
C33   N7    S    
C5    H21   S    
Cu1   N1    S    
C43   C45   A    
N4    H26   S    
N7    H31   S    
N6    H29   S    
C22   N4    S    
C16   C18   A    
C16   H4    S    
N8    H34   S    
C48   C50   A    
C9    C11   A    
C22   N2    A    
C10   C12   A    
C17   H5    S    
C18   H6    S    
C39   C49   A    
C12   C14   A    
C30   H8    S    
C23   O7    A    
C1    O1    A    
C2    O4    A    
C25   C27   A    
C7    C9    A    
C43   H18   S    
C21   C25   A    
C24   C40   S    
C35   C37   A    
C3    C5    A    
Cu2   O7    S    
C6    H22   S    
C18   C20   A    
C9    Br3   S    
C26   C28   A    
C33   C38   A    
Cu1   O5    S    
C36   C38   A    
C24   O6    A    
C29   C31   A    
C47   C49   A    
C30   C32   A    
C11   C13   A    
N4    H25   S    
C28   C37   S    
C16   C19   A    
C40   C50   A    
C28   C30   A    
C17   C19   A    
C34   C36   A    
C4    C14   A    
N8    H33   S    
C3    H19   S    
C2    O2    A    
C32   N2    A    
C46   C48   A    
C8    C10   A    
C7    C20   S    
C22   C26   A    
C21   N1    A    
N3    H24   S    
C35   H11   S    
C1    C14   S    
C24   O8    A    
N7    H32   S    
Cu2   O3    S    
Cu2   N2    S    
