data_mof_unit_57000.cif
_audit_creation_date              2012-12-10T19:03:08-0500
_audit_creation_method            fapswitch 2.2
_symmetry_space_group_name_H-M    P1
_symmetry_Int_Tables_number       1
_space_group_crystal_system       triclinic
_cell_length_a                    10.743099
_cell_length_b                    10.870198
_cell_length_c                    9.546286
_cell_angle_alpha                 90.907379
_cell_angle_beta                  89.832385
_cell_angle_gamma                 90.655367
_cell_volume                      1114.59467428

loop_
_atom_site_label
_atom_site_type_symbol
_atom_type_description
_atom_site_fract_x
_atom_site_fract_y
_atom_site_fract_z
_atom_type_partial_charge
C1    C     C_R   0.499183 0.262131 0.497855 0.789201
C2    C     C_3   0.877982 0.486496 0.498506 0.111620
C3    C     C_3   0.931187 0.618526 0.482074 -0.468223
C4    C     C_3   0.929244 0.406638 0.372061 0.044569
C5    C     C_R   0.468310 0.065435 0.615411 -0.018010
C6    C     C_R   0.491344 0.128332 0.491373 -0.113303
C7    C     C_R   0.500294 0.057978 0.363649 0.146798
C8    C     C_R   0.501130 0.929733 0.370751 -0.259130
C9    C     C_R   0.493973 0.869872 0.499379 -0.132411
C10   C     C_R   0.470076 0.939309 0.619837 0.102084
C11   C     C_3   0.524432 0.938987 0.764578 0.560664
C12   C     C_R   0.260446 0.490023 0.500196 0.753746
C13   C     C_3   0.522607 0.080257 0.758494 -0.499800
C14   C     C_R   0.585302 0.569207 0.074871 0.249275
C15   C     C_R   0.407617 0.443506 0.073591 -0.080211
C16   C     C_R   0.408611 0.442080 0.924896 -0.099704
C17   C     C_R   0.585707 0.568473 0.927263 0.258925
C18   C     C_3   0.722814 0.551833 0.922599 -0.503805
C19   C     C_3   0.722712 0.555212 0.080559 -0.522937
C20   C     C_R   0.500271 0.737338 0.500817 0.847114
C21   C     C_R   0.739912 0.493565 0.499550 0.787227
C22   C     C_3   0.070520 0.438257 0.646286 0.019338
C23   C     C_3   0.926879 0.438836 0.641043 -0.360286
C24   C     C_3   0.074382 0.614787 0.474867 -0.426761
C25   C     C_3   0.072356 0.393918 0.384459 -0.411709
C26   C     C_3   0.122540 0.482598 0.501588 0.077920
Cu1   Cu    Cu3+1 0.499990 0.499980 0.640670 0.933778
Cu2   Cu    Cu3+1 0.500010 0.500020 0.359330 0.920460
H1    H     H_    0.100751 0.507751 0.726841 0.163181
H2    H     H_    0.916082 0.463474 0.277380 0.125050
H3    H     H_    0.105779 0.645959 0.369835 0.185370
H4    H     H_    0.894576 0.661183 0.385458 0.168421
H5    H     H_    0.510631 0.876510 0.274377 0.162236
H6    H     H_    0.457126 0.125065 0.832735 0.177207
H7    H     H_    0.616446 0.124508 0.754964 0.189985
H8    H     H_    0.333353 0.396808 0.128430 0.137381
H9    H     H_    0.337168 0.391836 0.868740 0.152197
H10   H     H_    0.747623 0.459479 0.880313 0.206368
H11   H     H_    0.772206 0.631372 0.875459 0.200514
H12   H     H_    0.750308 0.465929 0.124578 0.205164
H13   H     H_    0.770294 0.637864 0.126096 0.185905
H14   H     H_    0.885870 0.347763 0.664757 0.177802
H15   H     H_    0.896294 0.502032 0.725881 0.150328
H16   H     H_    0.113795 0.680797 0.553860 0.161019
H17   H     H_    0.901848 0.678083 0.571999 0.179185
H18   H     H_    0.115573 0.416484 0.281726 0.151088
H19   H     H_    0.098656 0.297613 0.405870 0.161474
N1    N     N_R   0.500800 0.500930 0.147930 -0.181874
N2    N     N_R   0.500800 0.500890 0.852020 -0.186703
O1    O     O_R   0.500000 0.319640 0.618810 -0.583223
O2    O     O_R   0.500010 0.319680 0.381230 -0.582591
O3    O     O_R   0.317690 0.499960 0.618790 -0.598723
O4    O     O_R   0.317700 0.500000 0.381210 -0.587824
O5    O     O_R   0.499990 0.680320 0.618770 -0.560438
O6    O     O_R   0.500000 0.680360 0.381190 -0.589888
O7    O     O_R   0.682300 0.500000 0.618790 -0.586114
O8    O     O_R   0.682310 0.500040 0.381210 -0.595921
C27   C     C_3   0.507910 0.110639 0.217509 -0.350437
C28   C     C_3   0.377612 0.137980 0.163722 -0.822136
H20   H     H_    0.328134 0.201314 0.236603 0.250689
H21   H     H_    0.383935 0.180220 0.059050 0.224262
H22   H     H_    0.322418 0.051247 0.153775 0.248234
H23   H     H_    0.571698 0.190872 0.210302 0.217275
H24   H     H_    0.550667 0.043295 0.143918 0.156554
C29   C     C_3   0.436969 0.877622 0.874330 -0.412446
C30   C     C_3   0.298059 0.904837 0.858244 -0.901337
H25   H     H_    0.280423 0.005057 0.865190 0.250422
H26   H     H_    0.262380 0.867557 0.756912 0.252503
H27   H     H_    0.245512 0.859497 0.943816 0.247525
H28   H     H_    0.448328 0.776497 0.867321 0.224021
H29   H     H_    0.465726 0.906955 0.981163 0.177708
O9    O     O_3   0.646674 0.890513 0.760652 -0.610545
C31   C     C_3   0.709901 0.911100 0.889057 0.022132
H30   H     H_    0.687699 0.834663 0.961274 0.142901
H31   H     H_    0.684200 0.999431 0.941658 0.127821
C32   C     C_3   0.849991 0.914540 0.861074 -0.311525
H32   H     H_    0.878927 0.826762 0.810079 0.210973
H33   H     H_    0.872162 0.990972 0.788724 0.220264
C33   C     C_3   0.923198 0.934003 0.996560 -0.950836
H34   H     H_    0.896675 0.022100 0.048540 0.253566
H35   H     H_    0.024277 0.937741 0.972499 0.259529
H36   H     H_    0.904989 0.856884 0.069106 0.252585
C34   C     C_3   0.119325 0.311223 0.694710 -0.398572
C35   C     C_3   0.087854 0.286444 0.848481 -0.899921
H37   H     H_    0.120082 0.363776 0.917060 0.241653
H38   H     H_    0.986049 0.273518 0.863091 0.254067
H39   H     H_    0.134575 0.201152 0.881784 0.245639
H40   H     H_    0.079917 0.235104 0.630416 0.204571
H41   H     H_    0.221535 0.305259 0.682172 0.212013
C36   C     C_3   0.861220 0.283608 0.331782 -0.432920
C37   C     C_3   0.837537 0.192356 0.448926 -0.823766
H42   H     H_    0.925138 0.167324 0.500661 0.244073
H43   H     H_    0.769527 0.229253 0.525760 0.232739
H44   H     H_    0.796104 0.106705 0.403294 0.240544
H45   H     H_    0.769852 0.303675 0.284015 0.207696
H46   H     H_    0.915943 0.236368 0.248151 0.199473

loop_
_geom_bond_atom_site_label_1
_geom_bond_atom_site_label_2
_ccdc_geom_bond_type
C30   H26   S    
C22   H1    S    
C31   H30   S    
C35   H39   S    
C4    C25   S    
Cu1   O5    S    
C7    C8    A    
Cu2   O8    S    
C23   H14   S    
C32   H33   S    
C24   C26   S    
C13   H7    S    
C21   O7    A    
C5    C6    A    
Cu2   O2    S    
C30   H27   S    
C15   C16   A    
C23   H15   S    
C18   C19   S    
C35   H37   S    
C8    C9    A    
C32   C33   S    
C1    O1    A    
C25   H19   S    
C7    C27   S    
C5    C13   S    
C12   O4    A    
Cu1   O1    S    
C16   H9    S    
C30   H25   S    
C28   H20   S    
C31   H31   S    
C14   C17   A    
C3    C24   S    
C15   N1    A    
C20   O6    A    
C12   O3    A    
Cu2   O6    S    
C4    C36   S    
C27   H24   S    
C34   H41   S    
C28   H21   S    
C1    C6    S    
C36   H45   S    
C16   N2    A    
C20   O5    A    
C10   C11   S    
C17   N2    A    
C37   H42   S    
C33   H35   S    
C11   O9    S    
C14   N1    A    
C25   C26   S    
C29   H29   S    
C3    H17   S    
C12   C26   S    
C2    C4    S    
C18   H11   S    
C21   O8    A    
C37   H43   S    
C9    C20   S    
C34   C35   S    
C2    C21   S    
C17   C18   S    
C19   H13   S    
C32   H32   S    
C1    O2    A    
C24   H16   S    
C31   C32   S    
C15   H8    S    
C2    C23   S    
Cu1   O3    S    
C9    C10   A    
C27   H23   S    
Cu2   N1    S    
C28   H22   S    
Cu1   O7    S    
C14   C19   S    
C35   H38   S    
O9    C31   S    
C33   H36   S    
Cu2   O4    S    
C36   H46   S    
C6    C7    A    
C22   C34   S    
C2    C3    S    
C27   C28   S    
C24   H3    S    
C5    C10   A    
C37   H44   S    
C11   C13   S    
C36   C37   S    
C34   H40   S    
C8    H5    S    
C18   H10   S    
C3    H4    S    
C19   H12   S    
C33   H34   S    
C11   C29   S    
C13   H6    S    
C29   C30   S    
C22   C26   S    
Cu1   Cu2   S    
C22   C23   S    
C29   H28   S    
C25   H18   S    
C4    H2    S    
Cu1   N2    S    
