data_mof_unit_52727.cif
_audit_creation_date              2012-12-10T17:27:57-0500
_audit_creation_method            fapswitch 2.2
_symmetry_space_group_name_H-M    P1
_symmetry_Int_Tables_number       1
_space_group_crystal_system       triclinic
_cell_length_a                    10.727342
_cell_length_b                    12.03366
_cell_length_c                    12.818941
_cell_angle_alpha                 94.298646
_cell_angle_beta                  91.909932
_cell_angle_gamma                 85.264652
_cell_volume                      1643.88571198

loop_
_atom_site_label
_atom_site_type_symbol
_atom_type_description
_atom_site_fract_x
_atom_site_fract_y
_atom_site_fract_z
_atom_type_partial_charge
C1    C     C_R   0.492778 0.522906 0.700426 0.854379
C2    C     C_R   0.526581 0.635172 0.865287 -0.246548
C3    C     C_R   0.455547 0.447817 0.867973 0.426076
C4    C     C_R   0.739353 0.497777 0.493486 0.930289
C5    C     C_R   0.492277 0.445734 0.972798 0.023418
C6    C     C_R   0.529592 0.545142 0.026359 0.031369
C7    C     C_R   0.548190 0.549662 0.133252 -0.354893
C8    C     C_R   0.510774 0.352561 0.134348 0.275949
C9    C     C_R   0.494961 0.346485 0.024702 0.364822
C10   C     C_R   0.363921 0.957343 0.420127 -0.329112
C11   C     C_R   0.380970 0.840496 0.422365 0.376870
C12   C     C_R   0.939463 0.415507 0.412923 -0.007012
C13   C     C_R   0.561088 0.856576 0.532602 -0.052707
C14   C     C_R   0.552087 0.974421 0.526680 -0.019209
C15   C     C_R   0.451633 0.025650 0.469149 -0.110839
C16   C     C_R   0.511465 0.476494 0.299770 1.000246
C17   C     C_R   0.441814 0.143950 0.463074 0.531561
C18   C     C_R   0.620873 0.159794 0.576518 0.215392
C19   C     C_R   0.640192 0.041705 0.577712 0.070814
C20   C     C_R   0.260051 0.500024 0.494102 0.905240
C21   C     C_R   0.884372 0.332367 0.343867 0.427796
C22   C     C_R   0.961162 0.257336 0.280193 -0.288165
C23   C     C_R   0.871549 0.493757 0.483525 -0.079134
C24   C     C_R   0.085484 0.274402 0.269958 -0.239221
C25   C     C_R   0.136525 0.364442 0.325790 0.288342
C26   C     C_R   0.069423 0.425166 0.407921 0.000966
C27   C     C_3   0.692407 0.253498 0.740189 -0.683033
C28   C     C_3   0.849660 0.953369 0.560089 -0.808897
C29   C     C_3   0.300384 0.781793 0.251569 -0.790022
C30   C     C_3   0.201733 0.497992 0.215919 -0.836394
C31   C     C_R   0.930256 0.574050 0.547292 -0.223142
C32   C     C_R   0.057243 0.576362 0.547270 -0.235651
C33   C     C_R   0.126897 0.501009 0.480774 -0.072276
C34   C     C_R   0.527212 0.457617 0.187810 -0.136480
C35   C     C_R   0.485976 0.538077 0.812630 -0.211640
C36   C     C_R   0.543956 0.640081 0.972857 -0.168139
H1    H     H_    0.877595 0.633066 0.600632 0.157987
H2    H     H_    0.537266 0.186487 0.002675 0.327265
H3    H     H_    0.332178 0.393552 0.766559 0.326605
H4    H     H_    0.339904 0.149090 0.335949 0.309825
H5    H     H_    0.799721 0.209715 0.608298 0.221014
H6    H     H_    0.704963 0.343165 0.760640 0.240218
H7    H     H_    0.764602 0.204006 0.785107 0.192564
H8    H     H_    0.598292 0.235029 0.764599 0.294612
H9    H     H_    0.777278 0.032600 0.696760 0.241240
H10   H     H_    0.887329 0.026148 0.527085 0.240171
H11   H     H_    0.817749 0.895232 0.495085 0.253815
H12   H     H_    0.548100 0.705695 0.823202 0.180566
H13   H     H_    0.925814 0.908290 0.604846 0.241466
H14   H     H_    0.207750 0.784665 0.390779 0.213043
H15   H     H_    0.234081 0.726564 0.210756 0.238381
H16   H     H_    0.395793 0.757212 0.222735 0.254393
H17   H     H_    0.271317 0.868373 0.231133 0.217294
H18   H     H_    0.736331 0.264047 0.284456 0.357956
H19   H     H_    0.298581 0.348288 0.245026 0.266141
H20   H     H_    0.146529 0.566818 0.260493 0.256491
H21   H     H_    0.144278 0.466056 0.148110 0.246673
H22   H     H_    0.284799 0.531856 0.185298 0.247586
H23   H     H_    0.281854 0.992856 0.379570 0.156418
H24   H     H_    0.450927 0.206709 0.151817 0.327697
H25   H     H_    0.634980 0.815511 0.578745 0.166809
H26   H     H_    0.921836 0.191670 0.230254 0.152286
H27   H     H_    0.138380 0.224943 0.209891 0.152279
H28   H     H_    0.101782 0.635465 0.601464 0.154487
H29   H     H_    0.571602 0.627417 0.174724 0.184508
H30   H     H_    0.573462 0.716140 0.013551 0.148957
N1    N     N_R   0.523130 0.207800 0.519340 -0.122485
N2    N     N_R   0.476870 0.792180 0.480660 -0.126316
N3    N     N_2   0.707917 0.229287 0.628666 -0.264087
N4    N     N_2   0.747796 0.990484 0.628833 -0.313898
N5    N     N_2   0.297640 0.772799 0.363602 -0.253514
N6    N     N_2   0.239970 0.408904 0.282870 -0.290299
O1    O     O_R   0.506170 0.421690 0.658830 -0.589215
O2    O     O_3   0.388777 0.362666 0.821887 -0.700572
O3    O     O_3   0.353239 0.197721 0.400377 -0.736022
O4    O     O_3   0.756789 0.327752 0.333920 -0.758341
O5    O     O_3   0.505281 0.259359 0.190401 -0.775520
O6    O     O_R   0.491330 0.609320 0.646410 -0.627495
O7    O     O_R   0.690660 0.406170 0.506210 -0.557223
O8    O     O_R   0.675810 0.593790 0.493790 -0.651175
O9    O     O_R   0.508670 0.390680 0.353590 -0.503095
O10   O     O_R   0.493830 0.578310 0.341170 -0.625715
O11   O     O_R   0.324190 0.406210 0.506210 -0.568707
O12   O     O_R   0.309340 0.593830 0.493790 -0.620248
O13   O     O_3   0.486487 0.245579 0.966882 -0.725729
Zn1   Zn    Zn3+2 0.509910 0.374720 0.508290 1.056181
Zn2   Zn    Zn3+2 0.490090 0.625280 0.491710 0.953712

loop_
_geom_bond_atom_site_label_1
_geom_bond_atom_site_label_2
_ccdc_geom_bond_type
O6    Zn2   S    
C2    C35   A    
C28   H11   S    
O12   Zn2   S    
C12   C23   A    
C28   H10   S    
C4    O8    A    
O8    Zn2   S    
C10   C15   A    
C5    C6    A    
C11   N5    S    
C7    H29   S    
O10   Zn2   S    
C30   H21   S    
C18   C19   A    
H3    O2    S    
C3    O2    S    
C16   C34   S    
C27   H8    S    
C8    C9    A    
H19   N6    S    
C27   N3    S    
C9    O13   S    
C18   N3    S    
C13   C14   A    
C1    O6    A    
H24   O5    S    
C17   N1    A    
H2    O13   S    
C24   C25   A    
C32   H28   S    
C4    O7    A    
C4    C23   S    
C2    H12   S    
C18   N1    A    
C30   H20   S    
C12   C21   A    
C31   H1    S    
C12   C26   A    
C23   C31   A    
H14   N5    S    
C5    C9    A    
C22   H26   S    
C28   H13   S    
C26   C33   A    
C31   C32   A    
C21   O4    S    
C3    C35   A    
C16   O10   A    
C25   N6    S    
C8    C34   A    
H18   O4    S    
C20   C33   S    
C24   H27   S    
C20   O12   A    
C8    O5    S    
C7    C34   A    
C22   C24   A    
C11   N2    A    
C1    C35   S    
H5    N3    S    
C29   H15   S    
C2    C36   A    
C15   C17   A    
N1    Zn1   S    
H9    N4    S    
C14   C19   A    
C28   N4    S    
O9    Zn1   S    
C3    C5    A    
C30   N6    S    
C6    C7    A    
H4    O3    S    
C1    O1    A    
C32   C33   A    
C10   H23   S    
C25   C26   A    
C27   H6    S    
C29   H17   S    
C30   H22   S    
C16   O9    A    
C6    C36   A    
C36   H30   S    
O1    Zn1   S    
C10   C11   A    
C27   H7    S    
O11   Zn1   S    
C13   H25   S    
C20   O11   A    
C17   O3    S    
N2    Zn2   S    
C14   C15   A    
C19   N4    S    
C21   C22   A    
C29   H16   S    
O7    Zn1   S    
C29   N5    S    
C13   N2    A    
