data_mof_unit_28390.cif
_audit_creation_date              2012-12-10T19:43:10-0500
_audit_creation_method            fapswitch 2.2
_symmetry_space_group_name_H-M    P1
_symmetry_Int_Tables_number       1
_space_group_crystal_system       triclinic
_cell_length_a                    18.313473
_cell_length_b                    18.489735
_cell_length_c                    18.40584
_cell_angle_alpha                 120.33742
_cell_angle_beta                  90.353471
_cell_angle_gamma                 59.82472
_cell_volume                      4386.33031319

loop_
_atom_site_label
_atom_site_type_symbol
_atom_type_description
_atom_site_fract_x
_atom_site_fract_y
_atom_site_fract_z
_atom_type_partial_charge
C1    C     C_R   0.859686 0.780082 0.641744 0.924652
C2    C     C_R   0.439598 0.354688 0.670048 0.386084
C3    C     C_R   0.344943 0.429241 0.710491 -0.218576
C4    C     C_R   0.291676 0.434400 0.654575 -0.194389
C5    C     C_R   0.303132 0.500380 0.804767 0.014735
C6    C     C_R   0.208481 0.574922 0.844847 -0.200728
C7    C     C_R   0.154815 0.573076 0.788857 -0.185217
C8    C     C_R   0.196870 0.501223 0.694780 0.044788
C9    C     C_R   0.165023 0.651266 0.939508 0.316057
C10   C     C_R   0.072390 0.726435 0.974606 0.464280
C11   C     C_R   0.020170 0.723939 0.919797 0.316117
C12   C     C_R   0.139700 0.220269 0.359708 0.878632
C13   C     C_R   0.059822 0.645866 0.828629 0.418478
C14   C     C_R   0.236228 0.052779 0.336783 -0.125053
C15   C     C_R   0.193273 0.108916 0.302500 -0.226894
C16   C     C_R   0.205457 0.052864 0.209713 0.389613
C17   C     C_R   0.256339 0.944624 0.157373 0.552253
C18   C     C_R   0.302095 0.890779 0.194461 -0.262479
C19   C     C_R   0.290595 0.949066 0.284526 -0.262791
C20   C     C_3   0.324157 0.945588 0.358183 0.927081
C21   C     C_3   0.259417 0.065999 0.418789 0.845910
C22   C     C_R   0.185307 0.589389 0.329379 -0.246281
C23   C     C_R   0.859919 0.501092 0.640751 0.931887
C24   C     C_R   0.194220 0.499409 0.302331 -0.200351
C25   C     C_R   0.249396 0.411697 0.214869 0.527840
C26   C     C_R   0.301047 0.412672 0.159616 0.407080
C27   C     C_R   0.299618 0.501698 0.193543 -0.189502
C28   C     C_R   0.234367 0.592295 0.275611 -0.288105
C29   C     C_3   0.236147 0.675010 0.355243 0.887514
C30   C     C_3   0.186426 0.666289 0.413206 1.168314
C31   C     C_R   0.840517 0.945777 0.721667 -0.250715
C32   C     C_R   0.803934 0.891436 0.706136 -0.239280
C33   C     C_R   0.714159 0.947534 0.758838 0.396570
C34   C     C_R   0.140864 0.498878 0.359837 0.914053
C35   C     C_R   0.661674 0.056107 0.814086 0.543863
C36   C     C_R   0.697914 0.108799 0.816475 -0.259357
C37   C     C_R   0.791003 0.050742 0.777416 -0.299093
C38   C     C_3   0.859702 0.050879 0.730712 0.805589
C39   C     C_3   0.910790 0.933193 0.666845 1.186558
C40   C     C_R   0.726047 0.588954 0.325618 -0.163593
C41   C     C_R   0.806325 0.498248 0.301690 -0.201352
C42   C     C_R   0.838238 0.406423 0.216223 0.386958
C43   C     C_R   0.781591 0.404217 0.164139 0.398595
C44   C     C_R   0.697383 0.495419 0.193773 -0.202853
C45   C     C_R   0.860103 0.499569 0.359813 0.916366
C46   C     C_R   0.672443 0.586039 0.273278 -0.157812
C47   C     C_3   0.587823 0.666566 0.350504 0.897853
C48   C     C_3   0.646783 0.673885 0.409740 0.905130
C49   C     C_R   0.712311 0.565307 0.727304 -0.146612
C50   C     C_R   0.805240 0.503180 0.699234 -0.243154
C51   C     C_R   0.845402 0.440289 0.729612 0.531927
C52   C     C_R   0.792888 0.434170 0.778853 0.397181
C53   C     C_R   0.697876 0.500202 0.806979 -0.230054
C54   C     C_R   0.661311 0.566583 0.781419 -0.228010
C55   C     C_3   0.574469 0.640785 0.779363 0.816312
C56   C     C_R   0.141018 0.499071 0.638470 0.986641
C57   C     C_3   0.633863 0.639180 0.717614 0.947507
C58   C     C_R   0.359694 0.499997 0.139916 0.871161
C59   C     C_R   0.640495 0.499367 0.860036 0.897885
C60   C     C_R   0.359839 0.779571 0.139833 0.885418
C61   C     C_R   0.640589 0.219899 0.862377 0.898963
C62   C     C_R   0.640165 0.497737 0.139554 0.900332
C63   C     C_R   0.359631 0.500380 0.860729 1.032365
C64   C     C_R   0.335331 0.373247 0.559994 0.269803
C65   C     C_R   0.429086 0.305393 0.524063 0.449093
C66   C     C_R   0.479944 0.293751 0.578233 0.494858
O1    O     O_3   1.000000 0.500000 0.500000 -0.565270
O2    O     O_R   0.944910 0.439280 0.615800 -0.567784
O3    O     O_R   0.115820 0.560710 0.444920 -0.572036
O4    O     O_R   0.823500 0.731590 0.615800 -0.618236
O5    O     O_R   0.115770 0.268420 0.323490 -0.612342
O6    O     O_3   0.500040 0.499910 0.999960 -0.530982
O7    O     O_R   0.384230 0.439200 0.055040 -0.626274
O8    O     O_R   0.555130 0.560630 0.884160 -0.644879
O9    O     O_R   0.384270 0.731490 0.176470 -0.634598
O10   O     O_R   0.676550 0.268320 0.884150 -0.682957
O11   O     O_R   0.555150 0.560600 0.176460 -0.579552
O12   O     O_R   0.944950 0.731580 0.615800 -0.581590
O13   O     O_R   0.384220 0.439220 0.884170 -0.633876
O14   O     O_R   0.676580 0.439170 0.055020 -0.634408
O15   O     O_R   0.384230 0.560650 0.884170 -0.619818
O16   O     O_R   0.384260 0.731500 0.055040 -0.588455
O17   O     O_R   0.555100 0.268330 0.884160 -0.559596
O18   O     O_R   0.384250 0.560620 0.176470 -0.630600
O19   O     O_R   0.676570 0.439190 0.884150 -0.614847
O20   O     O_R   0.115780 0.268410 0.444920 -0.600378
O21   O     O_R   0.823470 0.560720 0.615800 -0.594170
O22   O     O_R   0.115800 0.439290 0.323490 -0.628601
O23   O     O_R   0.823460 0.560740 0.444930 -0.588299
O24   O     O_R   0.115830 0.560690 0.615790 -0.567287
O25   O     O_R   0.944900 0.439310 0.323490 -0.629833
O26   O     O_R   0.115810 0.439260 0.615790 -0.640020
Zn1   Zn    Zn3+2 0.043370 0.413240 0.543370 1.070801
Zn2   Zn    Zn3+2 0.869870 0.586760 0.543380 1.081024
Zn3   Zn    Zn3+2 0.043360 0.413260 0.369880 1.003719
Zn4   Zn    Zn3+2 0.043390 0.586740 0.543370 1.134187
Zn5   Zn    Zn3+2 0.456670 0.586670 0.956580 1.035958
Zn6   Zn    Zn3+2 0.456680 0.586650 0.130080 1.026634
Zn7   Zn    Zn3+2 0.630180 0.413150 0.956570 0.983823
Zn8   Zn    Zn3+2 0.456650 0.413170 0.956580 1.046970
O27   O     O_3   0.928364 0.795619 0.956701 -0.520569
C67   C     C_3   0.906091 0.875651 0.948721 -0.099601
H1    H     H_    0.924132 0.847398 0.877529 0.172884
H2    H     H_    0.938492 0.914164 0.984607 0.160170
H3    H     H_    0.832575 0.934246 0.979755 0.185419
F1    F     F_    0.261162 0.893498 0.070553 -0.614414
F2    F     F_    0.300540 0.898081 0.381357 -0.709058
O28   O     O_3   0.415980 0.906997 0.348234 -0.559436
C68   C     C_3   0.460759 0.900700 0.280750 -0.189182
H4    H     H_    0.423540 0.973864 0.286537 0.145996
H5    H     H_    0.474294 0.835918 0.213711 0.135036
H6    H     H_    0.526465 0.884487 0.287850 0.219982
O29   O     O_3   0.179653 0.117303 0.486809 -0.587753
C69   C     C_3   0.193335 0.083345 0.542556 -0.199956
H7    H     H_    0.154214 0.151541 0.612779 0.196426
H8    H     H_    0.264082 0.038199 0.538593 0.129984
H9    H     H_    0.166955 0.036430 0.526148 0.229192
O30   O     O_3   0.300395 0.118781 0.440612 -0.667981
C70   C     C_3   0.327313 0.131753 0.515655 -0.303698
H10   H     H_    0.371397 0.057730 0.507634 0.183390
H11   H     H_    0.366921 0.163381 0.523173 0.177762
H12   H     H_    0.268305 0.188705 0.577523 0.197343
F3    F     F_    0.259178 0.322456 0.185255 -0.653668
O31   O     O_3   0.361765 0.322327 0.077456 -0.533286
C71   C     C_3   0.315270 0.306081 0.016135 -0.118107
H13   H     H_    0.270917 0.288030 0.032299 0.166974
H14   H     H_    0.275763 0.373270 0.012875 0.107290
H15   H     H_    0.364954 0.238986 0.948720 0.209827
F4    F     F_    0.321025 0.646082 0.360255 -0.661165
O32   O     O_3   0.181724 0.773388 0.372118 -0.616875
C72   C     C_3   0.219265 0.775831 0.307642 -0.049269
H16   H     H_    0.215457 0.728431 0.241751 0.097507
H17   H     H_    0.289210 0.751192 0.302997 0.254823
H18   H     H_    0.179556 0.856098 0.327847 0.204909
F5    F     F_    0.237175 0.624597 0.454992 -0.605905
O33   O     O_3   0.288838 0.392948 0.505212 -0.562182
C73   C     C_3   0.286002 0.308923 0.444481 -0.170303
H19   H     H_    0.260216 0.287888 0.479408 0.173835
H20   H     H_    0.352279 0.241166 0.392708 0.224014
H21   H     H_    0.238995 0.331827 0.409700 0.132854
F6    F     F_    0.101334 0.754045 0.469791 -0.563086
O34   O     O_3   0.679468 0.897070 0.761067 -0.530207
C74   C     C_3   0.622464 0.898751 0.709350 -0.126399
H22   H     H_    0.599168 0.852864 0.706675 0.217194
H23   H     H_    0.658760 0.863234 0.639760 0.154624
H24   H     H_    0.562109 0.977946 0.739263 0.159636
F7    F     F_    0.575825 0.109092 0.864634 -0.628877
O35   O     O_3   0.833951 0.100400 0.686402 -0.652835
C75   C     C_3   0.762225 0.105759 0.654250 -0.194912
H25   H     H_    0.757026 0.041608 0.635235 0.163831
H26   H     H_    0.772157 0.103367 0.593497 0.241086
H27   H     H_    0.698293 0.180396 0.704096 0.180884
O36   O     O_3   0.914540 0.072251 0.780245 -0.615408
C76   C     C_3   0.864874 0.172530 0.859305 -0.103083
H28   H     H_    0.824415 0.231166 0.846479 0.209724
H29   H     H_    0.912340 0.188127 0.889390 0.185042
H30   H     H_    0.822636 0.179314 0.908478 0.183872
F8    F     F_    0.911469 0.895080 0.579727 -0.638443
F9    F     F_    0.994383 0.878146 0.672129 -0.572259
O37   O     O_3   0.918714 0.315704 0.189364 -0.568498
C77   C     C_3   0.981828 0.290114 0.121496 -0.128050
H31   H     H_    0.046586 0.218852 0.101843 0.203201
H32   H     H_    0.992662 0.351437 0.145451 0.140441
H33   H     H_    0.962195 0.274147 0.060736 0.167135
O38   O     O_3   0.807619 0.311866 0.086313 -0.618578
C78   C     C_3   0.778217 0.265376 0.107611 -0.223213
H34   H     H_    0.807501 0.250534 0.155738 0.206772
H35   H     H_    0.800950 0.190021 0.045843 0.173410
H36   H     H_    0.703818 0.312836 0.134380 0.151474
F10   F     F_    0.536635 0.749770 0.346613 -0.645869
F11   F     F_    0.471812 0.253391 0.436170 -0.578457
O39   O     O_3   0.542926 0.625726 0.358416 -0.621532
C79   C     C_3   0.461179 0.704797 0.429739 -0.062343
H37   H     H_    0.412323 0.756486 0.413281 0.245083
H38   H     H_    0.470335 0.749500 0.493094 0.082740
H39   H     H_    0.432585 0.669412 0.441019 0.230999
O40   O     O_3   0.641870 0.765622 0.452198 -0.601644
C80   C     C_3   0.560670 0.848418 0.524123 -0.292545
H40   H     H_    0.550314 0.831547 0.571604 0.148193
H41   H     H_    0.502263 0.870696 0.500762 0.204749
H42   H     H_    0.562823 0.916391 0.561063 0.178956
F12   F     F_    0.644373 0.643846 0.464551 -0.697286
F13   F     F_    0.935628 0.382254 0.710452 -0.618363
O41   O     O_3   0.835572 0.364366 0.799824 -0.582142
C81   C     C_3   0.869166 0.265486 0.722658 -0.126238
H43   H     H_    0.813137 0.259534 0.705838 0.182927
H44   H     H_    0.911597 0.207795 0.735808 0.213289
H45   H     H_    0.912879 0.244721 0.663972 0.183041
O42   O     O_3   0.534711 0.589722 0.731783 -0.632251
C82   C     C_3   0.441992 0.647372 0.775003 -0.066304
H46   H     H_    0.404774 0.719435 0.778952 0.155466
H47   H     H_    0.427849 0.664834 0.842612 0.225979
H48   H     H_    0.417094 0.601067 0.735326 0.168843
O43   O     O_3   0.513297 0.741843 0.860200 -0.639002
C83   C     C_3   0.549762 0.768220 0.929452 -0.228830
H49   H     H_    0.611520 0.759976 0.907600 0.202061
H50   H     H_    0.562696 0.722172 0.955871 0.148945
H51   H     H_    0.499898 0.850077 0.985154 0.194356
O44   O     O_3   0.634277 0.592391 0.628472 -0.602749
C84   C     C_3   0.560421 0.664946 0.621599 -0.054610
H52   H     H_    0.496319 0.706288 0.672786 0.112856
H53   H     H_    0.554056 0.623894 0.555311 0.214984
H54   H     H_    0.570930 0.721220 0.626675 0.189238
F14   F     F_    0.626661 0.730072 0.754283 -0.675619
F15   F     F_    0.570384 0.225905 0.541731 -0.568282
F16   F     F_    0.495308 0.339792 0.717876 -0.652923
O45   O     O_3   0.212793 0.659288 0.998208 -0.575687
C85   C     C_3   0.201331 0.622396 0.045010 -0.225545
H55   H     H_    0.217921 0.543691 0.999012 0.132718
H56   H     H_    0.132415 0.675536 0.093301 0.216420
H57   H     H_    0.247871 0.618109 0.083732 0.137298
F17   F     F_    0.032694 0.803486 0.063213 -0.595602
F18   F     F_    0.003292 0.644845 0.780601 -0.655482
O46   O     O_3   0.166086 0.102893 0.170064 -0.551136
C86   C     C_3   0.231819 0.098672 0.124986 -0.140139
H58   H     H_    0.264099 0.130580 0.170361 0.157588
H59   H     H_    0.199223 0.146307 0.099773 0.178687
H60   H     H_    0.283515 0.018883 0.066429 0.181000

loop_
_geom_bond_atom_site_label_1
_geom_bond_atom_site_label_2
_ccdc_geom_bond_type
C74   H24   S    
C78   H35   S    
C64   O33   S    
C82   H46   S    
O7    Zn8   S    
C41   C42   A    
C62   O11   A    
C17   F1    S    
C35   C36   A    
O1    Zn4   S    
C4    C8    A    
O3    Zn4   S    
C8    C56   S    
C6    C9    A    
C47   O39   S    
C53   C59   S    
C65   C66   A    
C7    C8    A    
C63   O13   A    
C53   C54   A    
O41   C81   S    
O10   Zn7   S    
C40   C46   A    
C73   H20   S    
C26   C27   A    
O38   C78   S    
C30   F6    S    
C65   F11   S    
C55   O42   S    
C14   C21   S    
C62   O14   A    
C36   C37   A    
O4    Zn2   S    
C37   C38   S    
C51   F13   S    
C75   H26   S    
C5    C6    A    
C81   H44   S    
O5    Zn3   S    
C35   F7    S    
C49   C54   A    
O21   Zn2   S    
C49   C57   S    
O28   C68   S    
C5    C63   S    
C67   H3    S    
C74   H23   S    
C18   C19   A    
C13   F18   S    
O23   Zn2   S    
C49   C50   A    
O30   C70   S    
C82   H48   S    
C54   C55   S    
C60   O16   A    
C29   F4    S    
C47   C48   S    
O12   Zn4   S    
C84   H52   S    
O1    Zn2   S    
C2    F16   S    
C2    C3    A    
C45   O23   A    
C9    C10   A    
C68   H6    S    
C76   H29   S    
C86   H59   S    
C83   H51   S    
C72   H18   S    
C56   O24   A    
O43   C83   S    
O22   Zn3   S    
O44   C84   S    
C11   O27   S    
C21   O30   S    
C22   C28   A    
C57   O44   S    
O1    Zn3   S    
C1    O12   A    
C67   H1    S    
C26   O31   S    
C48   O40   S    
C77   H32   S    
C44   C46   A    
C77   H31   S    
O8    Zn5   S    
O6    Zn5   S    
C43   O38   S    
C61   O10   A    
C73   H21   S    
O45   C85   S    
C69   H9    S    
O27   C67   S    
C80   H40   S    
O13   Zn8   S    
O35   C75   S    
C76   H30   S    
C21   O29   S    
C61   O17   A    
C86   H60   S    
C66   F15   S    
O46   C86   S    
C85   H55   S    
C23   C50   S    
O6    Zn6   S    
C44   C62   S    
C25   C26   A    
C79   H37   S    
O9    Zn6   S    
C24   C34   S    
C3    C4    A    
C31   C37   A    
C32   C33   A    
C36   C61   S    
C23   O2    A    
C67   H2    S    
C43   C44   A    
C59   O19   A    
C29   C30   S    
O19   Zn7   S    
O20   Zn1   S    
C58   O18   A    
C71   H15   S    
C80   H41   S    
C31   C32   A    
C59   O8    A    
C12   C15   S    
C56   O26   A    
C71   H13   S    
C72   H17   S    
C17   C18   A    
O11   Zn6   S    
C50   C51   A    
C34   O22   A    
C52   C53   A    
C24   C25   A    
C81   H45   S    
C16   O46   S    
C25   F3    S    
C34   O3    A    
C38   O35   S    
C76   H28   S    
C70   H11   S    
C18   C60   S    
C40   C41   A    
C12   O5    A    
C63   O15   A    
O40   C80   S    
O17   Zn8   S    
C55   C57   S    
O14   Zn7   S    
C9    O45   S    
C78   H34   S    
O16   Zn5   S    
C22   C24   A    
C75   H27   S    
C42   C43   A    
C72   H16   S    
C3    C5    A    
C47   F10   S    
O39   C79   S    
C77   H33   S    
C71   H14   S    
O29   C69   S    
O6    Zn8   S    
C79   H39   S    
C10   F17   S    
C40   C48   S    
C46   C47   S    
C28   C29   S    
C82   H47   S    
C22   C30   S    
C39   F9    S    
C14   C15   A    
C70   H12   S    
C14   C19   A    
C42   O37   S    
C52   O41   S    
O33   C73   S    
C2    C66   A    
C27   C58   S    
C1    O4    A    
C69   H8    S    
C70   H10   S    
O24   Zn4   S    
C6    C7    A    
C33   O34   S    
C73   H19   S    
C4    C64   A    
C60   O9    A    
C81   H43   S    
O2    Zn1   S    
C12   O20   A    
O18   Zn6   S    
C64   C65   A    
C20   F2    S    
C19   C20   S    
C68   H5    S    
C74   H22   S    
C51   C52   A    
C39   F8    S    
C75   H25   S    
O37   C77   S    
C48   F12   S    
C11   C13   A    
C79   H38   S    
C38   C39   S    
O15   Zn5   S    
C84   H54   S    
C57   F14   S    
O26   Zn1   S    
C33   C35   A    
C31   C39   S    
O32   C72   S    
C69   H7    S    
C1    C32   S    
C86   H58   S    
O42   C82   S    
C45   O25   A    
C80   H42   S    
C10   C11   A    
O25   Zn3   S    
C83   H49   S    
C29   O32   S    
C7    C13   A    
C55   O43   S    
C20   C21   S    
C58   O7    A    
C78   H36   S    
C85   H56   S    
C30   F5    S    
C85   H57   S    
C27   C28   A    
O1    Zn1   S    
C41   C45   S    
O34   C74   S    
C23   O21   A    
C38   O36   S    
C20   O28   S    
O36   C76   S    
C68   H4    S    
C84   H53   S    
C15   C16   A    
C16   C17   A    
O31   C71   S    
C83   H50   S    
O6    Zn7   S    
