data_mof_unit_27487.cif
_audit_creation_date              2012-12-10T20:45:34-0500
_audit_creation_method            fapswitch 2.2
_symmetry_space_group_name_H-M    P1
_symmetry_Int_Tables_number       1
_space_group_crystal_system       triclinic
_cell_length_a                    10.752903
_cell_length_b                    10.711485
_cell_length_c                    9.840137
_cell_angle_alpha                 90.07897
_cell_angle_beta                  90.550848
_cell_angle_gamma                 89.940562
_cell_volume                      1133.32859163

loop_
_atom_site_label
_atom_site_type_symbol
_atom_type_description
_atom_site_fract_x
_atom_site_fract_y
_atom_site_fract_z
_atom_type_partial_charge
C1    C     C_R   0.498043 0.259937 0.499873 0.876413
C2    C     C_R   0.817990 0.461527 0.977806 -0.158004
C3    C     C_R   0.794497 0.334658 0.997635 -0.119593
C4    C     C_R   0.260123 0.504801 0.499114 0.886739
C5    C     C_R   0.817043 0.249347 0.893112 -0.154739
C6    C     C_R   0.862429 0.290833 0.768232 -0.157185
C7    C     C_R   0.885607 0.418230 0.747765 0.155951
C8    C     C_R   0.481631 0.064129 0.622335 0.118928
C9    C     C_R   0.483694 0.128319 0.499526 -0.098835
C10   C     C_R   0.469117 0.064056 0.376376 -0.234166
C11   C     C_R   0.469874 0.935408 0.376517 -0.252553
C12   C     C_R   0.211545 0.727715 0.029420 0.090398
C13   C     C_R   0.483757 0.871660 0.499916 -0.098638
C14   C     C_R   0.480917 0.936385 0.622699 0.198042
C15   C     C_3   0.570220 0.929745 0.739915 -0.512318
C16   C     C_R   0.498099 0.740054 0.500019 0.886106
C17   C     C_3   0.572330 0.070769 0.738068 -0.496906
C18   C     C_R   0.469576 0.394217 0.070811 0.210241
C19   C     C_R   0.540683 0.600731 0.072597 -0.155836
C20   C     C_R   0.541517 0.600312 0.928591 -0.097850
C21   C     C_R   0.468212 0.394822 0.928049 0.238361
C22   C     C_3   0.346102 0.329269 0.921782 -0.518563
C23   C     C_R   0.931886 0.546787 0.388632 -0.250557
C24   C     C_3   0.349035 0.325935 0.075906 -0.512116
C25   C     C_R   0.740101 0.498556 0.501186 0.868544
C26   C     C_R   0.228164 0.782696 0.157795 -0.251566
C27   C     C_R   0.181621 0.724993 0.274184 -0.089410
C28   C     C_R   0.116131 0.612121 0.263293 0.145369
C29   C     C_R   0.097556 0.558286 0.134650 -0.247612
C30   C     C_R   0.145816 0.614892 0.018704 -0.124316
C31   C     C_2   0.262091 0.789861 0.907878 0.343566
C32   C     C_R   0.872669 0.500903 0.503958 -0.082942
C33   C     C_R   0.941094 0.462140 0.619415 -0.018078
C34   C     C_R   0.068347 0.465518 0.613921 -0.223173
C35   C     C_R   0.127724 0.509893 0.498166 -0.070934
C36   C     C_R   0.059622 0.554138 0.384826 -0.001760
C37   C     C_R   0.863701 0.503392 0.853464 -0.126851
H1    H     H_    0.759405 0.302454 0.094167 0.134133
H2    H     H_    0.572203 0.682601 0.127226 0.142441
H3    H     H_    0.275910 0.871132 0.167499 0.119595
H4    H     H_    0.574911 0.681063 0.874778 0.138634
H5    H     H_    0.270737 0.389150 0.879853 0.213785
H6    H     H_    0.352720 0.235324 0.874636 0.195877
H7    H     H_    0.274309 0.381214 0.124063 0.233582
H8    H     H_    0.359904 0.229995 0.116630 0.186261
H9    H     H_    0.194887 0.769137 0.372367 0.129340
H10   H     H_    0.046949 0.471398 0.124552 0.154042
H11   H     H_    0.130896 0.571037 0.920769 0.163813
H12   H     H_    0.800093 0.150943 0.909293 0.134392
H13   H     H_    0.878386 0.581074 0.302363 0.159888
H14   H     H_    0.121084 0.431621 0.700792 0.153348
H15   H     H_    0.882834 0.601804 0.839709 0.127596
H16   H     H_    0.801809 0.527367 0.059216 0.135970
H17   H     H_    0.309298 0.878944 0.918013 0.042591
H18   H     H_    0.880749 0.223925 0.688254 0.116977
H19   H     H_    0.465978 0.112092 0.279862 0.162253
H20   H     H_    0.468254 0.886828 0.280023 0.165280
H21   H     H_    0.526354 0.891812 0.832766 0.195140
H22   H     H_    0.660795 0.886589 0.712737 0.197901
H23   H     H_    0.532114 0.113287 0.830753 0.201003
H24   H     H_    0.663362 0.109581 0.706718 0.206670
N1    N     N_R   0.499160 0.499140 0.142800 -0.100099
N2    N     N_R   0.499160 0.499180 0.857150 -0.092159
O1    O     O_R   0.500020 0.316790 0.614690 -0.618566
O2    O     O_R   0.500000 0.316760 0.385350 -0.627712
O3    O     O_R   0.316770 0.500030 0.614670 -0.594843
O4    O     O_R   0.316750 0.499990 0.385330 -0.618197
O5    O     O_R   0.500000 0.683240 0.614650 -0.598105
O6    O     O_R   0.499980 0.683210 0.385310 -0.634240
O7    O     O_R   0.683250 0.500010 0.614670 -0.614154
O8    O     O_R   0.683230 0.499970 0.385330 -0.630865
O9    O     O_2   0.251789 0.742685 0.795280 -0.569562
Zn1   Zn    Zn3+2 0.500010 0.500020 0.653130 0.981435
Zn2   Zn    Zn3+2 0.499990 0.499980 0.346870 0.942396

loop_
_geom_bond_atom_site_label_1
_geom_bond_atom_site_label_2
_ccdc_geom_bond_type
C18   C21   A    
C19   C20   A    
C6    H18   S    
C20   H4    S    
C34   H14   S    
C29   H10   S    
C18   C24   S    
C24   H8    S    
C30   H11   S    
C28   C29   A    
C5    C6    A    
C19   N1    A    
C34   C35   A    
C17   H24   S    
C35   C36   A    
C3    H1    S    
C8    C9    A    
C1    O2    A    
O1    Zn1   S    
C16   O5    A    
C13   C14   A    
C10   H19   S    
C9    C10   A    
C25   C32   S    
C4    C35   S    
C21   C22   S    
C7    C33   S    
C5    H12   S    
C1    C9    S    
C37   H15   S    
C18   N1    A    
C23   H13   S    
N2    Zn1   S    
O5    Zn1   S    
O3    Zn1   S    
O2    Zn2   S    
C12   C26   A    
C29   C30   A    
C4    O4    A    
C22   H6    S    
O7    Zn1   S    
C33   C34   A    
C7    C37   A    
O6    Zn2   S    
O4    Zn2   S    
C19   H2    S    
C25   O8    A    
C27   H9    S    
C31   O9    D    
C12   C31   S    
C26   C27   A    
C24   H7    S    
C15   H21   S    
C22   C24   S    
C1    O1    A    
C15   C17   S    
C8    C14   A    
C12   C30   A    
C15   H22   S    
C16   O6    A    
C3    C5    A    
C2    H16   S    
O8    Zn2   S    
C6    C7    A    
C8    C17   S    
C32   C33   A    
C20   N2    A    
C2    C3    A    
C23   C32   A    
C4    O3    A    
C11   C13   A    
C2    C37   A    
C26   H3    S    
C22   H5    S    
C31   H17   S    
C21   N2    A    
C10   C11   A    
C17   H23   S    
C28   C36   S    
C23   C36   A    
C13   C16   S    
C27   C28   A    
C14   C15   S    
N1    Zn2   S    
C25   O7    A    
C11   H20   S    
