data_mof_unit_16909.cif
_audit_creation_date              2013-03-05T16:00:24-0500
_audit_creation_method            fapswitch 2.2
_symmetry_space_group_name_H-M    P1
_symmetry_Int_Tables_number       1
_space_group_crystal_system       triclinic
_cell_length_a                    8.264208
_cell_length_b                    12.751999
_cell_length_c                    27.02669
_cell_angle_alpha                 97.69078
_cell_angle_beta                  92.301628
_cell_angle_gamma                 81.654123
_cell_volume                      2792.07586908

loop_
_atom_site_label
_atom_site_type_symbol
_atom_site_description
_atom_site_fract_x
_atom_site_fract_y
_atom_site_fract_z
_atom_type_partial_charge
P1    P     P_3+3 0.072810 0.589830 0.610360 0.431993
O1    O     O_2   0.907040 0.557650 0.617910 -0.386687
O2    O     O_3   0.139040 0.557570 0.557730 -0.428751
O3    O     O_3   0.684960 0.360550 0.588460 -0.393023
O4    O     O_2   0.842024 0.417572 0.672957 -0.398645
O5    O     O_3   0.027035 0.729577 0.618348 -0.604552
O6    O     O_3   0.659152 0.270879 0.678273 -0.513939
H1    H     H_    0.806916 0.183006 0.622356 0.166934
C1    C     C_3   0.692339 0.079897 0.662097 -0.985695
H2    H     H_    0.712776 0.011347 0.631934 0.230641
H3    H     H_    0.793360 0.071896 0.690307 0.271029
P2    P     P_3+3 0.661990 0.251250 0.462170 0.451400
P3    P     P_3+3 0.142387 0.168388 0.565519 0.437049
O7    O     O_2   0.841490 0.235060 0.476710 -0.381489
O8    O     O_3   0.099640 0.305100 0.564190 -0.392004
O9    O     O_2   0.009581 0.115632 0.533561 -0.377871
O10   O     O_3   0.662058 0.214890 0.397454 -0.575672
O11   O     O_3   0.116988 0.140916 0.626136 -0.536635
C2    C     C_3   0.194070 0.213059 0.659605 0.395523
H4    H     H_    0.135818 0.296638 0.657588 0.136534
H5    H     H_    0.326492 0.205425 0.651738 0.059169
C3    C     C_3   0.176065 0.188381 0.712391 -0.903565
H6    H     H_    0.044406 0.194959 0.721102 0.268514
H7    H     H_    0.236908 0.106165 0.716192 0.251712
C4    C     C_3   0.214685 0.224771 0.417769 0.379734
H8    H     H_    0.339634 0.244512 0.425612 0.098117
H9    H     H_    0.137575 0.252222 0.451026 0.138787
C5    C     C_3   0.221891 0.104268 0.406269 -0.890641
H10   H     H_    0.290485 0.075069 0.371555 0.260852
H11   H     H_    0.283871 0.064406 0.437266 0.231083
H12   H     H_    0.096013 0.083221 0.400935 0.272123
Ba1   Ba    Ba6+2 0.859560 0.448380 0.523550 1.542310
C6    C     C_3   0.161765 0.777094 0.638903 0.375635
H13   H     H_    0.177977 0.841747 0.616517 0.138188
H14   H     H_    0.278536 0.721509 0.638045 0.089516
C7    C     C_3   0.126414 0.827806 0.692402 -0.952069
H15   H     H_    0.001695 0.874723 0.694569 0.270071
H16   H     H_    0.217320 0.882480 0.705191 0.233300
H17   H     H_    0.135376 0.764571 0.717477 0.280963
C8    C     C_3   0.716643 0.293689 0.373883 0.422170
H18   H     H_    0.823858 0.323545 0.393761 0.113691
H19   H     H_    0.615611 0.360654 0.371958 0.095285
C9    C     C_3   0.766663 0.244398 0.321313 -0.943793
H20   H     H_    0.861617 0.173620 0.323120 0.279323
H21   H     H_    0.817864 0.302590 0.301651 0.224425
H22   H     H_    0.658714 0.218904 0.299662 0.260584
P4    P     P_3+3 0.116900 0.410080 0.389630 0.470208
O12   O     O_2   0.282660 0.442310 0.382060 -0.361105
O13   O     O_3   0.050670 0.442340 0.442260 -0.436914
O14   O     O_3   0.504750 0.639360 0.411530 -0.350984
O15   O     O_3   0.149910 0.270710 0.375792 -0.548333
P5    P     P_3+3 0.047838 0.834428 0.433894 0.458049
O16   O     O_3   0.618400 0.630290 0.524520 -0.363424
O17   O     O_3   0.090070 0.694820 0.435810 -0.396452
O18   O     O_2   0.185036 0.884364 0.465078 -0.380735
O19   O     O_3   0.076033 0.862243 0.373440 -0.531232
Ba2   Ba    Ba6+2 0.330270 0.551530 0.476440 1.546851
P6    P     P_3+3 0.672619 0.389808 0.653581 0.465365
C10   C     C_3   0.687973 0.184178 0.640219 0.478794
H23   H     H_    0.588144 0.188811 0.611640 0.041429
H24   H     H_    0.574442 0.078025 0.680065 0.266233
O20   O     O_3   0.571310 0.369620 0.475470 -0.393748
C11   C     C_3   0.618246 0.731628 0.631514 0.361994
H25   H     H_    0.590974 0.648200 0.622985 0.104451
H26   H     H_    0.742536 0.737541 0.620558 0.150507
C12   C     C_3   0.610696 0.766235 0.687644 -0.988125
H27   H     H_    0.484121 0.770877 0.701048 0.251639
H28   H     H_    0.692758 0.707299 0.707294 0.244197
H29   H     H_    0.652692 0.846051 0.696623 0.271287
P7    P     P_3+3 0.529534 0.765904 0.542137 0.436957
O21   O     O_2   0.348200 0.764910 0.523260 -0.349536
O22   O     O_3   0.506837 0.800754 0.606691 -0.606082
H30   H     H_    0.233430 0.246178 0.739332 0.260708
C13   C     C_3   0.030665 0.778267 0.339131 0.410511
H31   H     H_    0.105033 0.701335 0.345078 0.154507
H32   H     H_    0.899339 0.771448 0.342289 0.053534
C14   C     C_3   0.060988 0.799752 0.286570 -0.873723
H33   H     H_    0.190637 0.810942 0.283191 0.277362
H34   H     H_    0.035430 0.730843 0.259308 0.243477
H35   H     H_    0.980286 0.872716 0.277898 0.252703
P8    P     P_3+3 0.518528 0.613870 0.346349 0.477973
C15   C     C_3   0.539680 0.815544 0.361096 0.447882
H36   H     H_    0.651964 0.790534 0.382956 0.051488
O23   O     O_2   0.357262 0.574438 0.326351 -0.411229
O24   O     O_3   0.510918 0.735347 0.322151 -0.507075
H37   H     H_    0.432943 0.835004 0.386160 0.143876
H38   H     H_    0.672168 0.899119 0.314761 0.273609
C16   C     C_3   0.563774 0.915640 0.339028 -0.987305
H39   H     H_    0.583066 0.980543 0.369485 0.236611
H40   H     H_    0.454355 0.942077 0.316245 0.273988
C17   C     C_R   0.045138 0.417537 0.178618 0.530535
O25   O     O_2   0.096292 0.339915 0.199710 -0.591083
N1    N     N_R   0.944439 0.502975 0.203841 -0.163368
C18   C     C_R   0.883565 0.589548 0.178987 0.504937
C19   C     C_2   0.741621 0.521760 0.270063 -0.145097
C20   C     C_3   0.697362 0.515359 0.323608 0.151725
C21   C     C_1   0.986906 0.477079 0.342915 0.293065
C22   C     C_2   0.029064 0.474964 0.295548 -0.217110
C23   C     C_2   0.900537 0.501017 0.255891 0.104949
C24   C     C_R   0.024649 0.505111 0.102644 -0.063292
C25   C     C_R   0.087256 0.418039 0.128173 -0.059007
C26   C     C_R   0.189666 0.332423 0.102586 -0.087833
C27   C     C_R   0.921924 0.591252 0.128389 -0.050701
C28   C     C_2   0.843051 0.525623 0.358327 -0.487693
H41   H     H_    0.156179 0.454178 0.285263 0.194896
H42   H     H_    0.239595 0.263939 0.120959 0.167367
C29   C     C_2   0.355152 0.486937 0.641431 -0.427126
C30   C     C_R   0.211199 0.420335 0.975094 0.041699
C31   C     C_R   0.034942 0.593717 0.974494 0.042653
C32   C     C_R   0.142512 0.507389 0.949432 0.083661
C33   C     C_R   0.319750 0.337551 0.948533 -0.203386
C34   C     C_R   0.357730 0.339543 0.898872 -0.084085
C35   C     C_R   0.289838 0.424080 0.872939 -0.053101
C36   C     C_R   0.181938 0.508157 0.898118 -0.064655
C37   C     C_R   0.113751 0.593100 0.871981 -0.051645
C38   C     C_R   0.154461 0.593221 0.821400 0.525761
N2    N     N_R   0.260612 0.509963 0.796763 -0.162371
C39   C     C_R   0.328101 0.425865 0.822321 0.510393
C40   C     C_2   0.459999 0.495975 0.729788 -0.152603
C41   C     C_3   0.502784 0.497688 0.675502 0.157302
C42   C     C_1   0.209090 0.529284 0.657643 0.275681
C43   C     C_2   0.169642 0.529856 0.704981 -0.256640
C44   C     C_2   0.301482 0.511130 0.744381 0.126565
O26   O     O_2   0.420828 0.351743 0.800957 -0.588391
C45   C     C_R   0.169925 0.418818 0.026070 0.042150
C46   C     C_R   0.064348 0.505934 0.051356 0.083768
C47   C     C_R   0.997814 0.593820 0.025936 0.041419
C48   C     C_R   0.230172 0.332653 0.052974 -0.203127
H43   H     H_    0.558817 0.486989 0.757265 0.160390
H44   H     H_    0.441678 0.273710 0.880736 0.167826
H45   H     H_    0.379421 0.269503 0.965050 0.125777
H46   H     H_    0.308616 0.262756 0.036744 0.125815
O27   O     O_2   0.796605 0.665912 0.200974 -0.588955
C49   C     C_R   0.859579 0.677922 0.103084 -0.082296
H47   H     H_    0.644097 0.535925 0.242602 0.165346
H48   H     H_    0.780967 0.745865 0.121820 0.168597
C50   C     C_R   0.967692 0.677169 0.946807 -0.203997
C51   C     C_R   0.006324 0.676727 0.896994 -0.090107
O28   O     O_2   0.096888 0.668591 0.799625 -0.613352
C52   C     C_R   0.896227 0.679346 0.053277 -0.204112
H49   H     H_    0.882973 0.744588 0.962315 0.125890
H50   H     H_    0.950833 0.743067 0.877994 0.166744
H51   H     H_    0.042210 0.543618 0.715341 0.192873
H52   H     H_    0.843076 0.749928 0.037506 0.126111
H53   H     H_    0.828571 0.567201 0.395937 0.208455
H54   H     H_    0.369312 0.444179 0.603978 0.169578
C53   C     C_R   0.756201 0.825690 0.481859 0.205915
C54   C     C_R   0.430415 0.191292 0.520555 -0.536248
C55   C     C_R   0.410318 0.013932 0.539104 -0.155371
C56   C     C_R   0.345422 0.120634 0.540552 0.209551
C57   C     C_R   0.575138 0.154587 0.494887 0.314889
C58   C     C_R   0.639608 0.044102 0.490567 -0.055161
C59   C     C_R   0.556243 0.973797 0.514033 -0.129236
C60   C     C_R   0.617368 0.864137 0.509853 0.131661
C61   C     C_R   0.845313 0.892901 0.461082 0.100353
C62   C     C_R   0.784411 0.001422 0.463977 -0.247034
H55   H     H_    0.341815 0.962869 0.556176 0.183304
H56   H     H_    0.851766 0.050255 0.445342 0.204251
H57   H     H_    0.378773 0.274672 0.522562 0.174864
O29   O     O_3   0.804326 0.718541 0.473517 -0.664964
C63   C     C_3   0.915601 0.692247 0.511715 0.191636
H58   H     H_    0.855656 0.691289 0.546719 0.098440
H59   H     H_    0.010711 0.746007 0.520430 0.099907
H60   H     H_    0.974215 0.612192 0.497601 0.224631

loop_
_geom_bond_atom_site_label_1
_geom_bond_atom_site_label_2
_geom_bond_distance
_ccdc_geom_bond_type
C12   H28   1.112093 S    
H38   C16   1.110143 S    
C11   H26   1.096041 S    
N1    C18   1.390382 Am   
Ba1   O16   2.828363 S    
C19   C20   1.522329 S    
C54   C57   1.395715 A    
C18   O27   1.222333 D    
C21   C22   1.335961 D    
O12   Ba2   2.780052 S    
P4    O13   1.527296 S    
C14   H33   1.110144 S    
P5    C61   1.867374 S    
C46   C47   1.423803 A    
C22   H41   1.083509 S    
C13   H32   1.108862 S    
O4    P6    1.547560 D    
C1    H24   1.110666 S    
C43   H51   1.084044 S    
C31   C50   1.417510 A    
C5    H10   1.108235 S    
C2    H5    1.111093 S    
C27   C49   1.401219 A    
C54   C56   1.393508 A    
P3    C56   1.823723 S    
O11   C2    1.404084 S    
C26   C48   1.395474 A    
H1    C10   1.109698 S    
C49   C52   1.394611 A    
C19   C23   1.361582 D    
C12   H29   1.115771 S    
P4    Ba2   3.365393 S    
C53   O29   1.357553 S    
C37   C38   1.421137 A    
C6    C7    1.524133 S    
O13   Ba2   2.923969 S    
C38   N2    1.388340 Am   
O1    Ba1   2.779662 S    
P1    O1    1.514885 D    
C53   C60   1.391534 A    
C55   C59   1.403222 A    
C50   H49   1.075817 S    
C40   H43   1.085552 S    
C31   C47   1.435533 A    
C8    C9    1.522278 S    
C58   C62   1.421280 A    
C13   C14   1.519377 S    
P2    O10   1.748480 S    
C45   C48   1.417691 A    
C57   C58   1.423227 A    
P7    O21   1.564788 D    
C30   C45   1.435835 A    
C53   C61   1.391942 A    
C1    H2    1.111168 S    
N1    C23   1.471115 S    
O6    P6    1.756023 S    
P5    O18   1.546153 D    
C38   O28   1.221727 D    
C8    H19   1.109267 S    
C12   H27   1.111599 S    
C11   C12   1.523286 S    
C10   H23   1.107964 S    
C59   C60   1.407359 A    
P2    Ba1   3.405120 S    
P2    C57   1.848242 S    
Ba1   Ba2   4.562371 S    
C17   C25   1.421628 A    
O16   P7    1.787650 S    
C48   H46   1.075905 S    
O6    C10   1.405613 S    
C34   C35   1.401145 A    
C63   H59   1.114277 S    
P5    O17   1.771083 S    
C63   H58   1.087682 S    
C14   H34   1.108030 S    
C11   O22   1.395657 S    
O19   C13   1.403558 S    
C13   H31   1.106898 S    
P1    O5    1.753087 S    
C25   C26   1.401137 A    
Ba2   O20   2.827779 S    
C2    C3    1.518974 S    
C51   H50   1.083687 S    
C17   O25   1.222143 D    
C29   H54   1.085742 S    
O16   Ba2   2.909231 S    
P4    O15   1.749983 S    
C4    H8    1.103707 S    
C15   H37   1.112651 S    
C7    H17   1.113512 S    
C24   C27   1.408415 A    
C11   H25   1.111559 S    
C1    C10   1.521213 S    
O10   C8    1.394649 S    
C9    H20   1.111713 S    
C4    O15   1.398183 S    
C17   N1    1.388473 Am   
P2    O20   1.586598 S    
P4    O12   1.515185 D    
C37   C51   1.401014 A    
C19   H47   1.085631 S    
C6    H13   1.111659 S    
C39   O26   1.221986 D    
Ba2   O21   2.864880 S    
C9    H21   1.107626 S    
C42   C43   1.331717 D    
O3    Ba1   2.759058 S    
P3    O11   1.747370 S    
C33   H45   1.075741 S    
C8    H18   1.106164 S    
C16   H40   1.110330 S    
C18   C27   1.419803 A    
C22   C23   1.512881 S    
C1    H3    1.110710 S    
P3    O8    1.732719 S    
C45   C46   1.423280 A    
C24   C46   1.438953 A    
P6    C41   1.871261 S    
C29   C42   1.315513 D    
O2    Ba2   2.743819 S    
C29   C41   1.509906 S    
P8    O23   1.544377 D    
C63   H60   1.090571 S    
C35   C36   1.408410 A    
C14   H35   1.109566 S    
P8    C20   1.862101 S    
C20   C28   1.506443 S    
C32   C36   1.438932 A    
C7    H15   1.113641 S    
C33   C34   1.394954 A    
P7    C60   1.861386 S    
O14   Ba2   2.758458 S    
C28   H53   1.084324 S    
C5    H12   1.110705 S    
C52   H52   1.075922 S    
O7    Ba1   2.864560 S    
O8    Ba1   2.791237 S    
C49   H48   1.083858 S    
C40   C41   1.526610 S    
O5    C6    1.404134 S    
C36   C37   1.409062 A    
C40   C44   1.362592 D    
C4    H9    1.110665 S    
C15   O24   1.404493 S    
C50   C51   1.395128 A    
P4    C21   1.841579 S    
C30   C33   1.417202 A    
C34   H44   1.083717 S    
O29   C63   1.396703 S    
C2    H4    1.111374 S    
C62   H56   1.076273 S    
P2    O7    1.511154 D    
Ba1   O20   2.910075 S    
C5    H11   1.107474 S    
N2    C39   1.389959 Am   
C15   C16   1.520423 S    
C7    H16   1.112055 S    
C24   C25   1.409328 A    
C6    H14   1.110430 S    
C30   C32   1.423757 A    
C26   H42   1.083749 S    
C3    H7    1.110953 S    
P1    Ba1   3.364823 S    
N2    C44   1.471060 S    
O2    Ba1   2.923130 S    
C9    H22   1.111450 S    
P1    C42   1.842180 S    
Ba1   O13   2.743217 S    
C21   C28   1.314231 D    
C4    C5    1.519379 S    
C35   C39   1.420281 A    
C31   C32   1.423246 A    
C16   H39   1.110579 S    
C15   H36   1.110094 S    
C47   C52   1.417276 A    
P3    O9    1.544638 D    
O3    P6    1.753532 S    
C61   C62   1.395164 A    
C3    H6    1.111361 S    
P7    O22   1.752482 S    
C58   C59   1.430810 A    
C3    H30   1.108253 S    
P1    O2    1.527292 S    
C43   C44   1.509116 S    
C55   C56   1.384254 A    
C55   H55   1.079697 S    
C54   H57   1.081812 S    
P8    O24   1.752389 S    
P5    O19   1.749087 S    
O14   P8    1.753296 S    
O17   Ba2   2.791787 S    
