data_mof_unit_43062.cif
_audit_creation_date              2012-12-10T16:44:17-0500
_audit_creation_method            fapswitch 2.2
_symmetry_space_group_name_H-M    P1
_symmetry_Int_Tables_number       1
_space_group_crystal_system       triclinic
_cell_length_a                    7.533514
_cell_length_b                    8.706614
_cell_length_c                    13.40721
_cell_angle_alpha                 96.421845
_cell_angle_beta                  77.852552
_cell_angle_gamma                 103.783128
_cell_volume                      833.185967856

loop_
_atom_site_label
_atom_site_type_symbol
_atom_type_description
_atom_site_fract_x
_atom_site_fract_y
_atom_site_fract_z
_atom_type_partial_charge
C1    C     C_R   0.545720 0.800207 0.503254 0.856399
C2    C     C_R   0.418965 0.509367 0.975785 0.076468
C3    C     C_R   0.467969 0.554374 0.873377 0.087369
C4    C     C_R   0.558231 0.545649 0.037298 0.067119
C5    C     C_R   0.737225 0.638667 0.999260 0.161917
C6    C     C_R   0.774926 0.697166 0.902810 -0.244000
C7    C     C_R   0.641635 0.657924 0.841446 -0.204787
C8    C     C_R   0.525497 0.491650 0.135548 -0.247284
C9    C     C_R   0.836412 0.625960 0.158306 -0.200630
C10   C     C_R   0.340726 0.495932 0.806095 -0.102081
C11   C     C_2   0.570563 0.968860 0.504684 -0.357742
C12   C     C_R   0.401032 0.498165 0.694177 0.758678
C13   C     C_2   0.429246 0.031157 0.495591 -0.366843
C14   C     C_R   0.454046 0.199806 0.497092 0.926541
C15   C     C_R   0.600203 0.511468 0.306517 0.843112
C16   C     C_R   0.875483 0.675672 0.059295 -0.183105
C17   C     C_R   0.659276 0.537479 0.197501 -0.059795
C18   C     C_R   0.157597 0.418371 0.845510 -0.194438
C19   C     C_R   0.103316 0.389801 0.948393 -0.139780
C20   C     C_R   0.232227 0.431543 0.012727 -0.187261
Cu1   Cu    Cu3+1 0.321300 0.483160 0.488710 0.975942
Cu2   Cu    Cu3+1 0.678700 0.516840 0.511290 0.968620
H1    H     H_    0.941545 0.662372 0.205431 0.161755
H2    H     H_    0.293878 0.958035 0.487024 0.181139
H3    H     H_    0.010545 0.622488 0.579548 0.211186
H4    H     H_    0.908253 0.773910 0.874565 0.145009
H5    H     H_    0.012350 0.746479 0.030516 0.146587
H6    H     H_    0.395249 0.415382 0.166939 0.166110
H7    H     H_    0.056909 0.375573 0.796158 0.163406
H8    H     H_    0.961187 0.330832 0.978079 0.155232
H9    H     H_    0.675626 0.713536 0.769706 0.164720
N1    N     N_2   0.947230 0.542220 0.528320 -0.241095
N2    N     N_2   0.052770 0.457780 0.471680 -0.198141
O1    O     O_R   0.383920 0.714220 0.492660 -0.593220
O2    O     O_R   0.685730 0.742660 0.511730 -0.593773
O3    O     O_R   0.275440 0.478800 0.636790 -0.600029
O4    O     O_R   0.577250 0.507240 0.655860 -0.586611
O5    O     O_R   0.314270 0.257340 0.488270 -0.558004
O6    O     O_R   0.616080 0.285780 0.507340 -0.544692
O7    O     O_R   0.422750 0.492760 0.344140 -0.571546
O8    O     O_R   0.724560 0.521200 0.363210 -0.540644
C21   C     C_2   0.008083 0.333571 0.393583 1.049493
O9    O     O_2   0.125374 0.258125 0.355201 -0.614045
O10   O     O_R   0.845889 0.296038 0.354760 -0.753199
H10   H     H_    0.842332 0.206264 0.299457 0.296150
H11   H     H_    0.179618 0.404593 0.091417 0.139778
H12   H     H_    0.705933 0.041973 0.513244 0.180016

loop_
_geom_bond_atom_site_label_1
_geom_bond_atom_site_label_2
_ccdc_geom_bond_type
C2    C4    A    
C6    C7    A    
Cu2   O4    S    
Cu1   N2    S    
C14   O5    A    
Cu2   N1    S    
C11   H12   S    
C19   C20   A    
C1    C11   S    
C4    C8    A    
N1    N2    D    
H3    N1    S    
C2    C3    A    
C3    C10   A    
C13   C14   S    
Cu2   O2    S    
C11   C13   D    
C15   O8    A    
C6    H4    S    
Cu1   O7    S    
C21   O10   S    
C10   C18   A    
N2    C21   S    
C10   C12   S    
C9    C17   A    
C9    C16   A    
C1    O1    A    
C3    C7    A    
C5    C6    A    
C8    H6    S    
C15   O7    A    
Cu2   O8    S    
C12   O3    A    
C21   O9    D    
Cu2   O6    S    
C18   H7    S    
C7    H9    S    
O10   H10   S    
C1    O2    A    
C15   C17   S    
C18   C19   A    
C16   H5    S    
C12   O4    A    
Cu1   O3    S    
C9    H1    S    
C5    C16   A    
Cu1   O1    S    
C14   O6    A    
Cu1   Cu2   S    
C19   H8    S    
C2    C20   A    
C20   H11   S    
Cu1   O5    S    
C8    C17   A    
C13   H2    S    
C4    C5    A    
