data_mof_unit_45463.cif
_audit_creation_date              2012-12-10T19:58:43-0500
_audit_creation_method            fapswitch 2.2
_symmetry_space_group_name_H-M    P1
_symmetry_Int_Tables_number       1
_space_group_crystal_system       triclinic
_cell_length_a                    14.910099
_cell_length_b                    14.095863
_cell_length_c                    19.303706
_cell_angle_alpha                 90.220929
_cell_angle_beta                  89.637435
_cell_angle_gamma                 89.337036
_cell_volume                      4056.68951802

loop_
_atom_site_label
_atom_site_type_symbol
_atom_type_description
_atom_site_fract_x
_atom_site_fract_y
_atom_site_fract_z
_atom_type_partial_charge
C1    C     C_R   0.326361 0.500585 0.499778 0.876781
C2    C     C_R   0.673354 0.499228 0.498522 0.896359
C3    C     C_R   0.186521 0.582485 0.459191 -0.152145
C4    C     C_R   0.811374 0.423132 0.447481 -0.154872
C5    C     C_R   0.822647 0.574892 0.510603 -0.153173
C6    C     C_R   0.179361 0.416501 0.499011 -0.165808
C7    C     C_R   0.228834 0.501279 0.489177 -0.369671
C8    C     C_R   0.770551 0.497757 0.487135 -0.343854
C9    C     C_R   0.049275 0.495237 0.449990 -0.151596
C10   C     C_R   0.952139 0.505092 0.452691 -0.138845
C11   C     C_R   0.529898 0.104023 0.441912 -0.243910
C12   C     C_R   0.529222 0.895218 0.558069 -0.258301
C13   C     C_R   0.469950 0.105426 0.558133 -0.241736
C14   C     C_R   0.470530 0.895355 0.442049 -0.236051
C15   C     C_R   0.530007 0.203658 0.443166 0.030332
C16   C     C_R   0.529366 0.795569 0.556774 0.010432
C17   C     C_R   0.469888 0.205051 0.556840 0.033308
C18   C     C_R   0.470486 0.795738 0.443294 0.033575
C19   C     C_R   0.499919 0.053223 0.500038 0.120846
C20   C     C_R   0.499887 0.946788 0.500057 0.117307
C21   C     C_R   0.498783 0.499941 0.365793 0.889174
C22   C     C_R   0.499712 0.500353 0.634059 0.890263
C23   C     C_R   0.416810 0.461543 0.741055 -0.150200
C24   C     C_R   0.425147 0.556750 0.258857 -0.178109
C25   C     C_R   0.552669 0.444877 0.250461 -0.191733
C26   C     C_R   0.557052 0.551609 0.747870 -0.192235
C27   C     C_R   0.404477 0.472942 0.812671 0.501727
C28   C     C_R   0.418566 0.556074 0.186561 0.498293
C29   C     C_R   0.551737 0.453363 0.178016 0.480434
C30   C     C_R   0.548684 0.553530 0.820313 0.467163
C31   C     C_R   0.472015 0.515280 0.851909 -0.026878
C32   C     C_R   0.483702 0.507970 0.146561 -0.038085
C33   C     C_R   0.492361 0.502499 0.708944 -0.328542
C34   C     C_R   0.492354 0.500522 0.290608 -0.321416
C35   C     C_R   0.463405 0.600299 0.964096 0.315336
C36   C     C_R   0.466569 0.425820 0.034116 0.327050
C37   C     C_R   0.478204 0.598946 0.036096 0.331889
C38   C     C_R   0.468080 0.427036 0.961792 0.312019
C39   C     C_R   0.477271 0.511081 0.070881 -0.149950
C40   C     C_R   0.465654 0.514364 0.927290 -0.137593
C41   C     C_R   0.100213 0.574607 0.432438 0.468563
C42   C     C_R   0.899357 0.433458 0.423778 0.475778
C43   C     C_R   0.914753 0.573718 0.498204 0.440557
C44   C     C_R   0.088195 0.416354 0.483168 0.470081
H1    H     H_    0.554441 0.067000 0.396218 0.156317
H2    H     H_    0.553264 0.931623 0.603694 0.151697
H3    H     H_    0.445365 0.069526 0.603831 0.149444
H4    H     H_    0.446422 0.931879 0.396449 0.160310
H5    H     H_    0.554311 0.241908 0.398544 0.159939
H6    H     H_    0.553209 0.756680 0.601317 0.152228
H7    H     H_    0.445528 0.244407 0.601451 0.146495
H8    H     H_    0.446624 0.757044 0.398750 0.162904
N1    N     N_R   0.500000 0.252470 0.500000 -0.109334
N2    N     N_R   0.500000 0.747530 0.500000 -0.112407
O1    O     O_R   0.369060 0.579480 0.500010 -0.637660
O2    O     O_R   0.630940 0.420520 0.499990 -0.641548
O3    O     O_R   0.630940 0.579480 0.499990 -0.633358
O4    O     O_R   0.369060 0.420520 0.500010 -0.616164
O5    O     O_R   0.500020 0.579510 0.398180 -0.627371
O6    O     O_R   0.499980 0.420490 0.601820 -0.626359
O7    O     O_R   0.499980 0.579510 0.601820 -0.628610
O8    O     O_R   0.500020 0.420490 0.398180 -0.624288
Zn1   Zn    Zn3+2 0.500000 0.606140 0.500000 0.936661
Zn2   Zn    Zn3+2 0.500000 0.393860 0.500000 0.946427
C45   C     C_2   0.348757 0.410911 0.699545 0.413264
H9    H     H_    0.333333 0.434725 0.647695 0.019205
O9    O     O_2   0.310464 0.341595 0.722553 -0.554309
C46   C     C_2   0.358615 0.612016 0.300887 0.451561
H10   H     H_    0.340061 0.588515 0.352323 0.065824
O10   O     O_2   0.324699 0.685044 0.278797 -0.503794
C47   C     C_2   0.616740 0.378626 0.284129 0.451229
H11   H     H_    0.647145 0.397917 0.332868 0.072566
O11   O     O_2   0.634184 0.301148 0.258566 -0.515279
C48   C     C_2   0.634649 0.597840 0.713042 0.477599
H12   H     H_    0.656662 0.574555 0.662037 0.059914
O12   O     O_2   0.674064 0.663417 0.740370 -0.505396
O13   O     O_3   0.327459 0.441503 0.845740 -0.577879
C49   C     C_3   0.252914 0.500117 0.828469 0.110905
H13   H     H_    0.206773 0.458766 0.795330 0.187146
H14   H     H_    0.270806 0.566023 0.799701 0.090213
C50   C     C_3   0.203070 0.528765 0.894689 -0.352913
H15   H     H_    0.184394 0.464248 0.924146 0.242376
H16   H     H_    0.248240 0.571950 0.926996 0.209665
C51   C     C_3   0.118599 0.586773 0.879070 -0.969406
H17   H     H_    0.135977 0.651792 0.849843 0.278336
H18   H     H_    0.085295 0.608429 0.928311 0.265858
H19   H     H_    0.070988 0.543898 0.848330 0.270213
O14   O     O_3   0.348144 0.602297 0.153906 -0.565715
C52   C     C_3   0.271247 0.544297 0.154985 0.087545
H20   H     H_    0.228644 0.564034 0.200350 0.162539
H21   H     H_    0.287309 0.466862 0.158287 0.100750
C53   C     C_3   0.218308 0.561566 0.088763 -0.337113
H22   H     H_    0.202056 0.638420 0.083958 0.239452
H23   H     H_    0.260630 0.539678 0.043880 0.198188
C54   C     C_3   0.131539 0.505333 0.087987 -0.992816
H24   H     H_    0.146624 0.428090 0.089535 0.266306
H25   H     H_    0.094031 0.520895 0.039828 0.275790
H26   H     H_    0.088548 0.525353 0.133019 0.267901
O15   O     O_3   0.612498 0.403193 0.136670 -0.549879
C55   C     C_3   0.699827 0.440829 0.142865 0.125752
H27   H     H_    0.737549 0.403711 0.184299 0.175825
H28   H     H_    0.699648 0.517793 0.155854 0.047888
C56   C     C_3   0.750491 0.426409 0.074519 -0.394026
H29   H     H_    0.710262 0.456793 0.031590 0.209839
H30   H     H_    0.815249 0.464558 0.076772 0.184256
C57   C     C_3   0.769328 0.321445 0.059851 -0.767559
H31   H     H_    0.811328 0.290359 0.101514 0.257530
H32   H     H_    0.805901 0.313622 0.009877 0.219479
H33   H     H_    0.705625 0.281703 0.056423 0.290156
O16   O     O_3   0.613636 0.595974 0.860674 -0.577214
C58   C     C_3   0.684790 0.530642 0.871402 0.089458
H34   H     H_    0.707483 0.496294 0.822076 0.141286
H35   H     H_    0.663195 0.474744 0.908049 0.105491
C59   C     C_3   0.764067 0.583082 0.902744 -0.286145
H36   H     H_    0.779644 0.646231 0.870716 0.266281
H37   H     H_    0.745852 0.607764 0.955733 0.205419
C60   C     C_3   0.847562 0.519629 0.906268 -0.988915
H38   H     H_    0.833093 0.453858 0.935422 0.265751
H39   H     H_    0.902128 0.558066 0.932897 0.270893
H40   H     H_    0.870797 0.500298 0.853216 0.273201
O17   O     O_3   0.452265 0.684369 0.927739 -0.616946
C61   C     C_3   0.376103 0.735677 0.952145 0.142115
H41   H     H_    0.398754 0.794917 0.985649 0.176709
H42   H     H_    0.328278 0.691916 0.982806 0.128149
C62   C     C_3   0.326222 0.777173 0.890166 -0.363396
H43   H     H_    0.371002 0.826307 0.861740 0.239854
H44   H     H_    0.307450 0.718951 0.854354 0.223510
C63   C     C_3   0.241496 0.830782 0.912931 -0.948855
H45   H     H_    0.195190 0.782480 0.940593 0.269447
H46   H     H_    0.206676 0.859458 0.866707 0.271869
H47   H     H_    0.258877 0.890756 0.947649 0.271286
O18   O     O_3   0.460082 0.340899 0.069484 -0.591097
C64   C     C_3   0.371348 0.307084 0.065422 0.110015
H48   H     H_    0.365458 0.260093 0.019323 0.189218
H49   H     H_    0.320100 0.365187 0.061363 0.117912
C65   C     C_3   0.351139 0.249918 0.130644 -0.331873
H50   H     H_    0.398977 0.189055 0.133982 0.245085
H51   H     H_    0.360234 0.295729 0.177044 0.226311
C66   C     C_3   0.255475 0.212607 0.130462 -0.954451
H52   H     H_    0.206451 0.272485 0.129824 0.259110
H53   H     H_    0.243688 0.170204 0.177941 0.281063
H54   H     H_    0.244760 0.166609 0.084472 0.270148
O19   O     O_3   0.484733 0.682426 0.074145 -0.600396
C67   C     C_3   0.563897 0.731969 0.056864 0.113891
H55   H     H_    0.555237 0.805891 0.076121 0.169757
H56   H     H_    0.576045 0.737107 0.000132 0.185479
C68   C     C_3   0.645773 0.687507 0.091909 -0.408521
H57   H     H_    0.631447 0.677512 0.147974 0.238350
H58   H     H_    0.659667 0.617517 0.067561 0.204408
C69   C     C_3   0.728608 0.749045 0.083579 -0.944613
H59   H     H_    0.743704 0.760524 0.027841 0.266590
H60   H     H_    0.787128 0.713030 0.107740 0.263161
H61   H     H_    0.717737 0.818782 0.109455 0.275076
O20   O     O_3   0.468779 0.343065 0.924224 -0.599693
C70   C     C_3   0.553394 0.296981 0.929542 0.135400
H62   H     H_    0.543770 0.228051 0.956147 0.173977
H63   H     H_    0.604107 0.337099 0.959904 0.128937
C71   C     C_3   0.590654 0.278261 0.856722 -0.362831
H64   H     H_    0.545596 0.229074 0.828786 0.247283
H65   H     H_    0.592943 0.345873 0.827454 0.208473
C72   C     C_3   0.684957 0.235275 0.859098 -0.968360
H66   H     H_    0.731640 0.285200 0.884581 0.260373
H67   H     H_    0.709391 0.221339 0.805514 0.274907
H68   H     H_    0.684571 0.167293 0.888004 0.273802
O21   O     O_3   0.059753 0.653060 0.402074 -0.566907
C73   C     C_3   0.051580 0.636719 0.330195 0.109755
H69   H     H_    0.991869 0.592487 0.320508 0.099532
H70   H     H_    0.112659 0.601356 0.307684 0.125257
C74   C     C_3   0.037658 0.731592 0.293626 -0.243026
H71   H     H_    0.975513 0.766523 0.313789 0.220425
H72   H     H_    0.095272 0.778569 0.304559 0.272584
C75   C     C_3   0.029685 0.718244 0.215406 -0.985698
H73   H     H_    0.092879 0.687518 0.193840 0.280774
H74   H     H_    0.017191 0.788023 0.190569 0.277042
H75   H     H_    0.973086 0.670588 0.203074 0.253778
O22   O     O_3   0.938136 0.361945 0.383552 -0.554205
C76   C     C_3   0.956127 0.396081 0.316252 0.117166
H76   H     H_    0.023093 0.429818 0.315632 0.118358
H77   H     H_    0.904094 0.447864 0.298145 0.096145
C77   C     C_3   0.958177 0.312451 0.265641 -0.250980
H78   H     H_    0.006396 0.257578 0.284204 0.242486
H79   H     H_    0.890474 0.280483 0.263167 0.258813
C78   C     C_3   0.986220 0.343658 0.193169 -1.032121
H80   H     H_    0.939708 0.399452 0.173637 0.266660
H81   H     H_    0.984721 0.282009 0.157241 0.280373
H82   H     H_    0.055534 0.371514 0.194229 0.270534
O23   O     O_3   0.967391 0.643909 0.527321 -0.583249
C79   C     C_3   0.004112 0.611005 0.590397 0.109530
H83   H     H_    0.055210 0.554696 0.580678 0.093493
H84   H     H_    0.951562 0.582184 0.625506 0.165245
C80   C     C_3   0.050420 0.693130 0.626874 -0.251667
H85   H     H_    0.102288 0.723098 0.591875 0.217489
H86   H     H_    0.000212 0.749748 0.639091 0.252266
C81   C     C_3   0.095044 0.660488 0.693772 -1.015480
H87   H     H_    0.044143 0.631335 0.729884 0.279322
H88   H     H_    0.127859 0.721651 0.719184 0.273599
H89   H     H_    0.146870 0.605147 0.682569 0.252999
O24   O     O_3   0.036299 0.338721 0.500673 -0.553385
C82   C     C_3   0.005564 0.348333 0.569830 0.082062
H90   H     H_    0.962329 0.412517 0.575896 0.100376
H91   H     H_    0.062686 0.352898 0.606550 0.123350
C83   C     C_3   0.949410 0.262071 0.588380 -0.252397
H92   H     H_    0.893743 0.255222 0.550709 0.222521
H93   H     H_    0.992051 0.196983 0.585146 0.246897
C84   C     C_3   0.909947 0.271050 0.661298 -0.987156
H94   H     H_    0.964398 0.277084 0.700022 0.274210
H95   H     H_    0.869961 0.207162 0.673326 0.273598
H96   H     H_    0.865299 0.334543 0.665061 0.261620
C85   C     C_2   0.227315 0.678451 0.459839 0.523464
H97   H     H_    0.260747 0.704040 0.505899 0.065604
O25   O     O_2   0.222256 0.730725 0.409711 -0.535637
C86   C     C_2   0.766894 0.330790 0.433778 0.475534
H98   H     H_    0.729341 0.295713 0.474290 0.081085
O26   O     O_2   0.775202 0.290423 0.378006 -0.552791
C87   C     C_2   0.783471 0.656523 0.549762 0.495206
H99   H     H_    0.735014 0.703434 0.525433 0.086125
O27   O     O_2   0.806222 0.673015 0.609154 -0.571370
C88   C     C_2   0.218656 0.329050 0.530331 0.511956
H100  H     H_    0.266749 0.333518 0.571828 0.061651
O28   O     O_2   0.197216 0.250491 0.509817 -0.515826

loop_
_geom_bond_atom_site_label_1
_geom_bond_atom_site_label_2
_ccdc_geom_bond_type
C3    C85   S    
C81   H88   S    
C44   O24   S    
O21   C73   S    
C10   C42   A    
C74   H71   S    
C14   C18   A    
C54   H24   S    
C51   H19   S    
C68   H57   S    
C4    C8    A    
C63   H45   S    
C17   H7    S    
C72   H66   S    
C54   H26   S    
C18   H8    S    
O13   C49   S    
C77   H78   S    
C11   C19   A    
C83   H93   S    
C30   O16   S    
C79   C80   S    
C15   N1    A    
C35   C37   A    
C51   H18   S    
C21   O5    A    
C29   C32   A    
C3    C7    A    
C60   H39   S    
C22   O6    A    
C30   C31   A    
N1    Zn2   S    
C49   H14   S    
C81   H89   S    
C70   H63   S    
C57   H31   S    
O19   C67   S    
C5    C87   S    
C31   C40   S    
C23   C33   A    
C79   H84   S    
C32   C39   S    
O7    Zn1   S    
O16   C58   S    
C55   H27   S    
O8    Zn2   S    
C71   C72   S    
C50   H16   S    
C6    C88   S    
C11   C15   A    
C71   H65   S    
C12   C16   A    
C77   H79   S    
O18   C64   S    
C76   H77   S    
C83   C84   S    
O1    Zn1   S    
C28   O14   S    
C82   C83   S    
O2    Zn2   S    
O24   C82   S    
C25   C47   S    
C23   C27   A    
C52   H21   S    
C9    C10   S    
C77   C78   S    
C25   C34   A    
C57   H32   S    
C81   H87   S    
C5    C43   A    
C82   H90   S    
C6    C44   A    
C70   C71   S    
C73   H70   S    
C74   H72   S    
C67   C68   S    
C73   H69   S    
C65   C66   S    
C28   C32   A    
C53   H23   S    
C72   H68   S    
C72   H67   S    
C75   H74   S    
O3    Zn1   S    
C61   H41   S    
C84   H95   S    
C25   C29   A    
C2    O3    A    
C83   H92   S    
C29   O15   S    
C27   C31   A    
C80   H85   S    
C14   C20   A    
C35   O17   S    
C68   C69   S    
C51   H17   S    
C67   H56   S    
C48   H12   S    
C60   H40   S    
C13   H3    S    
C13   C19   A    
C49   H13   S    
C46   H10   S    
C14   H4    S    
C21   C34   S    
O4    Zn2   S    
C45   O9    D    
C84   H94   S    
C24   C46   S    
C69   H61   S    
C53   C54   S    
C50   H15   S    
C41   O21   S    
C79   H83   S    
C71   H64   S    
C55   C56   S    
C87   H99   S    
C80   H86   S    
C78   H80   S    
C62   C63   S    
C78   H81   S    
C26   C33   A    
C88   O28   D    
O15   C55   S    
C43   O23   S    
C76   C77   S    
C12   C20   A    
C55   H28   S    
C85   H97   S    
O17   C61   S    
C58   H35   S    
C86   H98   S    
C52   C53   S    
C82   H91   S    
O20   C70   S    
C36   O18   S    
C48   O12   D    
C64   C65   S    
C12   H2    S    
O22   C76   S    
C86   O26   D    
C26   C30   A    
C62   H43   S    
C56   H30   S    
C69   H60   S    
C78   H82   S    
C45   H9    S    
C38   O20   S    
C61   H42   S    
C56   C57   S    
C63   H47   S    
C17   N1    A    
C70   H62   S    
C50   C51   S    
C75   H73   S    
C65   H51   S    
C47   O11   D    
C84   H96   S    
C22   C33   S    
C54   H25   S    
C3    C41   A    
C9    C44   A    
C37   O19   S    
C58   H34   S    
C68   H58   S    
C10   C43   A    
C1    C7    S    
C9    C41   A    
C36   C39   A    
C2    C8    S    
C24   C28   A    
C16   H6    S    
C67   H55   S    
C27   O13   S    
C63   H46   S    
C5    C8    A    
C59   H37   S    
C66   H52   S    
C75   H75   S    
C59   H36   S    
C6    C7    A    
O5    Zn1   S    
C4    C86   S    
C13   C17   A    
O6    Zn2   S    
C23   C45   S    
C19   C20   S    
C87   O27   D    
C35   C40   A    
C1    O1    A    
C80   C81   S    
O23   C79   S    
C37   C39   A    
C42   O22   S    
C1    O4    A    
C22   O7    A    
C38   C40   A    
C66   H53   S    
C49   C50   S    
C88   H100  S    
C64   H48   S    
C4    C42   A    
C66   H54   S    
C61   C62   S    
C36   C38   A    
C53   H22   S    
C26   C48   S    
C58   C59   S    
C15   H5    S    
C16   N2    A    
C59   C60   S    
C11   H1    S    
C18   N2    A    
C47   H11   S    
O14   C52   S    
C73   C74   S    
C46   O10   D    
C76   H76   S    
N2    Zn1   S    
C56   H29   S    
C62   H44   S    
C64   H49   S    
C85   O25   D    
C24   C34   A    
C65   H50   S    
C2    O2    A    
C74   C75   S    
C21   O8    A    
C52   H20   S    
C60   H38   S    
C69   H59   S    
C57   H33   S    
