data_mof_unit_53705.cif
_audit_creation_date              2012-12-10T17:31:22-0500
_audit_creation_method            fapswitch 2.2
_symmetry_space_group_name_H-M    P1
_symmetry_Int_Tables_number       1
_space_group_crystal_system       triclinic
_cell_length_a                    19.30891
_cell_length_b                    18.609172
_cell_length_c                    12.25806
_cell_angle_alpha                 90.052584
_cell_angle_beta                  128.573046
_cell_angle_gamma                 89.93795
_cell_volume                      3443.5758441

loop_
_atom_site_label
_atom_site_type_symbol
_atom_type_description
_atom_site_fract_x
_atom_site_fract_y
_atom_site_fract_z
_atom_type_partial_charge
C1    C     C_R   0.607146 0.895399 0.647592 0.836077
C2    C     C_R   0.607025 0.104638 0.647543 0.837765
C3    C     C_R   0.107146 0.395399 0.647592 0.836076
C4    C     C_R   0.107025 0.604638 0.647543 0.837765
C5    C     C_R   0.232744 0.783626 0.028099 0.064545
C6    C     C_R   0.233014 0.216459 0.027993 0.062996
C7    C     C_R   0.732744 0.283626 0.028099 0.064545
C8    C     C_R   0.733014 0.716459 0.027993 0.062996
C9    C     C_R   0.675931 0.258096 0.056545 0.097738
C10   C     C_R   0.675498 0.741580 0.055423 0.095372
C11   C     C_R   0.175931 0.758097 0.056545 0.097738
C12   C     C_R   0.175498 0.241580 0.055423 0.095372
C13   C     C_R   0.604239 0.214136 0.959726 0.240121
C14   C     C_R   0.603439 0.785111 0.957847 0.234817
C15   C     C_R   0.104239 0.714136 0.959725 0.240122
C16   C     C_R   0.103439 0.285111 0.957847 0.234817
C17   C     C_R   0.592805 0.191199 0.841855 -0.176641
C18   C     C_R   0.592476 0.808265 0.840512 -0.184544
C19   C     C_R   0.092805 0.691199 0.841855 -0.176642
C20   C     C_R   0.092476 0.308265 0.840513 -0.184545
C21   C     C_R   0.303394 0.828566 0.127039 -0.201308
C22   C     C_R   0.303786 0.171685 0.127373 -0.201658
C23   C     C_R   0.803394 0.328566 0.127039 -0.201308
C24   C     C_R   0.803786 0.671686 0.127373 -0.201659
C25   C     C_R   0.259949 0.823747 0.274496 -0.167945
C26   C     C_R   0.259367 0.176113 0.273576 -0.162367
C27   C     C_R   0.759950 0.323746 0.274496 -0.167944
C28   C     C_R   0.759367 0.676113 0.273576 -0.162367
C29   C     C_R   0.655417 0.172307 0.716732 -0.134525
C30   C     C_R   0.655994 0.827901 0.717070 -0.137102
C31   C     C_R   0.155417 0.672307 0.716732 -0.134525
C32   C     C_R   0.155994 0.327901 0.717070 -0.137101
C33   C     C_R   0.683011 0.986767 0.288369 0.214687
C34   C     C_R   0.183011 0.486767 0.288369 0.214687
C35   C     C_R   0.345877 0.000733 0.630002 0.113487
C36   C     C_R   0.845877 0.500733 0.630002 0.113487
C37   C     C_R   0.313552 0.000939 0.704707 0.278554
C38   C     C_R   0.813552 0.500939 0.704707 0.278555
C39   C     C_R   0.385343 0.099000 0.342986 0.804775
C40   C     C_R   0.385359 0.901039 0.342967 0.804572
C41   C     C_R   0.885343 0.599000 0.342986 0.804775
C42   C     C_R   0.885359 0.401039 0.342967 0.804572
C43   C     C_R   0.372372 0.000478 0.850283 -0.175740
C44   C     C_R   0.872372 0.500478 0.850283 -0.175740
C45   C     C_R   0.464859 0.999870 0.923616 0.043344
C46   C     C_R   0.964859 0.499870 0.923616 0.043344
C47   C     C_R   0.494339 0.999242 0.842330 0.251770
C48   C     C_R   0.994338 0.499242 0.842330 0.251770
C49   C     C_R   0.528892 0.999095 0.073821 -0.032763
C50   C     C_R   0.028892 0.499095 0.073821 -0.032763
C51   C     C_R   0.621623 0.995123 0.140727 0.035521
C52   C     C_R   0.121622 0.495123 0.140727 0.035521
C53   C     C_R   0.648319 0.999903 0.056990 0.248530
C54   C     C_R   0.148319 0.499903 0.056990 0.248530
C55   C     C_R   0.585723 0.999576 0.912920 -0.206940
C56   C     C_R   0.085723 0.499576 0.912920 -0.206940
C57   C     C_R   0.504268 0.002360 0.160949 0.065130
C58   C     C_R   0.004267 0.502359 0.160949 0.065130
C59   C     C_R   0.653140 0.991463 0.365833 0.029875
C60   C     C_R   0.153140 0.491463 0.365833 0.029875
C61   C     C_R   0.690817 0.278325 0.180119 -0.106488
C62   C     C_R   0.690049 0.721346 0.178706 -0.099147
C63   C     C_R   0.190817 0.778325 0.180119 -0.106489
C64   C     C_R   0.190049 0.221346 0.178705 -0.099147
C65   C     C_R   0.316047 0.849454 0.248049 -0.056714
C66   C     C_R   0.315979 0.150610 0.247914 -0.056623
C67   C     C_R   0.816048 0.349454 0.248049 -0.056714
C68   C     C_R   0.815979 0.650610 0.247914 -0.056623
C69   C     C_R   0.703104 0.203174 0.677587 -0.204820
C70   C     C_R   0.704523 0.797539 0.678945 -0.204164
C71   C     C_R   0.203104 0.703174 0.677587 -0.204820
C72   C     C_R   0.204523 0.297539 0.678946 -0.204163
C73   C     C_R   0.253078 0.764652 0.743080 0.370739
C74   C     C_R   0.255065 0.236338 0.744942 0.371154
C75   C     C_R   0.753078 0.264652 0.743080 0.370739
C76   C     C_R   0.755065 0.736338 0.744942 0.371155
C77   C     C_R   0.264502 0.791938 0.859430 -0.154752
C78   C     C_R   0.266124 0.208829 0.860815 -0.156934
C79   C     C_R   0.764502 0.291938 0.859430 -0.154752
C80   C     C_R   0.766124 0.708828 0.860815 -0.156934
C81   C     C_R   0.719078 0.261173 0.904722 0.032131
C82   C     C_R   0.719813 0.739091 0.905090 0.031539
C83   C     C_R   0.219078 0.761173 0.904722 0.032131
C84   C     C_R   0.219813 0.239091 0.905090 0.031539
C85   C     C_R   0.655398 0.207002 0.820830 0.040868
C86   C     C_R   0.655737 0.792978 0.820647 0.036980
C87   C     C_R   0.155399 0.707002 0.820830 0.040868
C88   C     C_R   0.155736 0.292978 0.820647 0.036980
Cu1   Cu    Cu3+1 0.526340 0.000000 0.421010 0.970037
Cu2   Cu    Cu3+1 0.026340 0.500000 0.421010 0.970037
Cu3   Cu    Cu3+1 0.473640 0.000000 0.578990 0.961212
Cu4   Cu    Cu3+1 0.973640 0.500000 0.578990 0.961212
H1    H     H_    0.649284 0.259813 0.205366 0.197781
H2    H     H_    0.648083 0.739701 0.203295 0.198040
H3    H     H_    0.149283 0.759814 0.205365 0.197782
H4    H     H_    0.148082 0.239701 0.203295 0.198040
H5    H     H_    0.350329 0.847035 0.113178 0.161846
H6    H     H_    0.351127 0.153441 0.114159 0.160813
H7    H     H_    0.850328 0.347035 0.113177 0.161846
H8    H     H_    0.851127 0.653441 0.114159 0.160813
N1    N     N_R   0.566260 0.000000 0.302220 -0.213021
N2    N     N_R   0.066260 0.500000 0.302220 -0.213021
N3    N     N_R   0.434410 1.000000 0.697680 -0.230390
N4    N     N_R   0.934410 0.500000 0.697680 -0.230391
O1    O     O_R   0.608610 0.924520 0.551740 -0.580555
O2    O     O_R   0.608610 0.075480 0.551740 -0.574277
O3    O     O_R   0.108610 0.424520 0.551740 -0.580554
O4    O     O_R   0.108610 0.575480 0.551740 -0.574277
O5    O     O_R   0.564110 0.924510 0.685150 -0.614310
O6    O     O_R   0.564110 0.075490 0.685150 -0.615078
O7    O     O_R   0.064110 0.424510 0.685150 -0.614310
O8    O     O_R   0.064110 0.575490 0.685150 -0.615079
O9    O     O_R   0.435880 0.075470 0.314850 -0.592857
O10   O     O_R   0.435880 0.924530 0.314850 -0.590615
O11   O     O_R   0.935880 0.575470 0.314850 -0.592857
O12   O     O_R   0.935880 0.424530 0.314850 -0.590615
O13   O     O_R   0.391380 0.075460 0.448260 -0.588384
O14   O     O_R   0.391380 0.924540 0.448260 -0.588330
O15   O     O_R   0.891380 0.575460 0.448260 -0.588384
O16   O     O_R   0.891380 0.424540 0.448260 -0.588329
H9    H     H_    0.268884 0.839199 0.367782 0.199323
H10   H     H_    0.267993 0.160582 0.366537 0.198149
H11   H     H_    0.768885 0.339198 0.367783 0.199323
H12   H     H_    0.767993 0.660582 0.366537 0.198149
Br1   Br    Br    0.766770 0.019917 0.123132 -0.397271
Br2   Br    Br    0.266770 0.519917 0.123132 -0.397271
Br3   Br    Br    0.804253 0.955817 0.395194 -0.378548
Br4   Br    Br    0.304252 0.455817 0.395194 -0.378548
H13   H     H_    0.436271 0.006900 0.119493 0.122784
H14   H     H_    0.936271 0.506900 0.119493 0.122784
H15   H     H_    0.300152 0.001144 0.517171 0.151225
H16   H     H_    0.800152 0.501144 0.517171 0.151225
H17   H     H_    0.343558 0.999997 0.902343 0.141695
H18   H     H_    0.843558 0.499997 0.902343 0.141695
Br5   Br    Br    0.188699 0.001675 0.607814 -0.414019
Br6   Br    Br    0.688699 0.501675 0.607814 -0.414018
H19   H     H_    0.612833 0.001114 0.860069 0.231442
H20   H     H_    0.112833 0.501114 0.860069 0.231442
Br7   Br    Br    0.520079 0.182620 0.984481 -0.535894
Br8   Br    Br    0.517874 0.815453 0.980452 -0.535072
Br9   Br    Br    0.020079 0.682621 0.984481 -0.535893
Br10  Br    Br    0.017874 0.315453 0.980453 -0.535072
H21   H     H_    0.699868 0.180707 0.592953 0.191387
H22   H     H_    0.701596 0.820221 0.594790 0.192326
H23   H     H_    0.199868 0.680707 0.592954 0.191387
H24   H     H_    0.201597 0.320221 0.594790 0.192326
H25   H     H_    0.305654 0.839008 0.907854 0.163902
H26   H     H_    0.307763 0.162006 0.909690 0.163696
H27   H     H_    0.805655 0.339008 0.907854 0.163902
H28   H     H_    0.807763 0.662006 0.909689 0.163696
Br11  Br    Br    0.303803 0.811209 0.668983 -0.494832
Br12  Br    Br    0.307125 0.190572 0.672147 -0.490385
Br13  Br    Br    0.803804 0.311208 0.668982 -0.494833
Br14  Br    Br    0.807125 0.690572 0.672147 -0.490385
H29   H     H_    0.531391 0.163951 0.765277 0.219266
H30   H     H_    0.530947 0.835284 0.763339 0.219467
H31   H     H_    0.031391 0.663951 0.765277 0.219266
H32   H     H_    0.030947 0.335284 0.763339 0.219467
H33   H     H_    0.699141 0.985556 0.478106 0.167535
H34   H     H_    0.199141 0.485555 0.478106 0.167535

loop_
_geom_bond_atom_site_label_1
_geom_bond_atom_site_label_2
_ccdc_geom_bond_type
C40   O14   A    
C22   H6    S    
C14   C18   A    
C23   H7    S    
C7    C81   A    
C32   C72   A    
C15   C19   A    
C4    O4    A    
C18   C86   A    
C19   H31   S    
C2    C29   S    
C9    C61   A    
C13   Br7   S    
Cu3   O6    S    
C57   H13   S    
C28   C68   A    
Cu4   O15   S    
Cu2   O3    S    
C5    C11   A    
C35   N3    A    
C36   H16   S    
C6    C12   A    
C12   C64   A    
C61   H1    S    
C77   C83   A    
C6    C22   A    
C63   H3    S    
C33   Br3   S    
C49   C57   A    
C48   C56   A    
C25   C63   A    
C45   C47   A    
C23   C67   A    
C43   H17   S    
C29   C69   A    
C26   C64   A    
Cu2   N2    S    
C9    C13   A    
C27   C61   A    
C1    O5    A    
C15   Br9   S    
C59   H33   S    
C22   C66   A    
C12   C16   A    
C52   C54   A    
C49   C51   A    
Cu1   O2    S    
C50   C52   A    
C37   Br5   S    
C69   C75   A    
C58   N2    A    
Cu2   O12   S    
C30   C86   A    
C77   H25   S    
C29   C85   A    
C78   H26   S    
C79   H27   S    
C21   C65   A    
C31   C71   A    
C4    O8    A    
C33   C59   A    
C20   H32   S    
C73   Br11  S    
C34   C60   A    
C47   N3    A    
C74   Br12  S    
C10   C62   A    
C11   C15   A    
C41   O11   A    
C60   N2    A    
C30   C70   A    
C44   C46   A    
C41   C68   S    
C46   C48   A    
C53   C55   A    
C44   H18   S    
C54   C56   A    
C31   C87   A    
C28   C62   A    
C26   C66   A    
C76   C80   A    
C6    C84   A    
C64   H4    S    
C72   C74   A    
C10   C14   A    
C3    O7    A    
C79   C81   A    
C27   H11   S    
Cu4   O8    S    
C39   O9    A    
C82   C86   A    
C24   C68   A    
C2    O2    A    
C69   H21   S    
C51   C53   A    
C59   N1    A    
C37   C43   A    
C16   Br10  S    
C38   C44   A    
C56   H20   S    
C75   Br13  S    
C34   Br4   S    
Cu2   Cu4   S    
Cu1   O9    S    
C45   C49   A    
C16   C20   A    
Cu3   O13   S    
Cu3   O14   S    
C25   C65   A    
Cu4   O7    S    
Cu2   O11   S    
C41   O15   A    
C43   C45   A    
C53   Br1   S    
C42   O12   A    
C50   C58   A    
C71   H23   S    
C14   Br8   S    
C38   Br6   S    
C40   C65   S    
C62   H2    S    
C70   C76   A    
C42   C67   S    
C39   C66   S    
C17   C85   A    
C32   C88   A    
Cu1   Cu3   S    
Cu1   O1    S    
C17   H29   S    
C35   H15   S    
C18   H30   S    
C35   C37   A    
C47   C55   A    
C7    C9    A    
Cu1   O10   S    
C2    O6    A    
Cu1   N1    S    
C24   H8    S    
C34   C52   A    
C84   C88   A    
Cu3   N3    S    
C83   C87   A    
C28   H12   S    
C5    C83   A    
C33   C51   A    
C57   N1    A    
C46   C50   A    
C70   H22   S    
C55   H19   S    
C13   C17   A    
C36   N4    A    
C3    O3    A    
Cu3   O5    S    
C36   C38   A    
Cu4   O16   S    
C19   C87   A    
Cu2   O4    S    
C39   O13   A    
C54   Br2   S    
C42   O16   A    
C75   C79   A    
C58   H14   S    
C7    C23   A    
C20   C88   A    
C76   Br14  S    
C1    C30   S    
C8    C24   A    
C80   C82   A    
C80   H28   S    
C3    C32   S    
C4    C31   S    
C27   C67   A    
C21   H5    S    
Cu4   N4    S    
C78   C84   A    
C8    C82   A    
C5    C21   A    
C8    C10   A    
C74   C78   A    
C71   C73   A    
C72   H24   S    
C73   C77   A    
C26   H10   S    
C60   H34   S    
C11   C63   A    
C25   H9    S    
C81   C85   A    
C40   O10   A    
C1    O1    A    
C48   N4    A    
