data_mof_unit_64979.cif
_audit_creation_date              2013-03-05T16:31:00-0500
_audit_creation_method            fapswitch 2.2
_symmetry_space_group_name_H-M    P1
_symmetry_Int_Tables_number       1
_space_group_crystal_system       monoclinic
_cell_length_a                    35.639125
_cell_length_b                    35.639126
_cell_length_c                    30.154734
_cell_angle_alpha                 90.0
_cell_angle_beta                  90.0
_cell_angle_gamma                 89.999983
_cell_volume                      38300.9529593

loop_
_atom_site_label
_atom_site_type_symbol
_atom_site_description
_atom_site_fract_x
_atom_site_fract_y
_atom_site_fract_z
_atom_type_partial_charge
O1    O     O_R   0.968510 0.445600 0.500050 -0.553060
O2    O     O_R   0.445600 0.031490 0.500050 -0.553060
O3    O     O_R   0.031490 0.554400 0.500050 -0.553061
O4    O     O_R   0.554400 0.968510 0.500050 -0.553060
O5    O     O_R   0.968510 0.554400 0.499950 -0.553060
O6    O     O_R   0.445600 0.968510 0.499950 -0.553060
O7    O     O_R   0.031490 0.445600 0.499950 -0.553060
O8    O     O_R   0.554400 0.031490 0.499950 -0.553061
O9    O     O_R   0.468510 0.945600 0.000050 -0.553060
O10   O     O_R   0.945600 0.531490 0.000050 -0.553060
O11   O     O_R   0.531490 0.054400 0.000050 -0.553061
O12   O     O_R   0.054400 0.468510 0.000050 -0.553060
O13   O     O_R   0.468510 0.054400 0.999950 -0.553060
O14   O     O_R   0.945600 0.468510 0.999950 -0.553060
O15   O     O_R   0.531490 0.945600 0.999950 -0.553060
O16   O     O_R   0.054400 0.531490 0.999950 -0.553061
C1    C     C_R   1.000000 0.427757 0.500000 0.930964
C2    C     C_R   0.427757 0.000000 0.500000 0.930964
C3    C     C_R   0.000000 0.572243 0.500000 0.930965
C4    C     C_R   0.572243 0.000000 0.500000 0.930965
C5    C     C_R   0.500000 0.927757 0.000000 0.930964
C6    C     C_R   0.927757 0.500000 0.000000 0.930964
C7    C     C_R   0.500000 0.072243 1.000000 0.930964
C8    C     C_R   0.072243 0.500000 0.000000 0.930965
O17   O     O_R   0.968500 0.499990 0.435180 -0.571928
O18   O     O_R   0.499990 0.031500 0.435180 -0.571928
O19   O     O_R   0.031500 0.500010 0.435180 -0.571928
O20   O     O_R   0.500010 0.968500 0.435180 -0.571928
O21   O     O_R   0.968500 0.500010 0.564820 -0.571928
O22   O     O_R   0.499990 0.968500 0.564820 -0.571928
O23   O     O_R   0.031500 0.499990 0.564820 -0.571928
O24   O     O_R   0.500010 0.031500 0.564820 -0.571928
O25   O     O_R   0.468500 0.999990 0.935180 -0.571928
O26   O     O_R   0.999990 0.531500 0.935180 -0.571928
O27   O     O_R   0.531500 0.000010 0.935180 -0.571928
O28   O     O_R   0.000010 0.468500 0.935180 -0.571928
O29   O     O_R   0.468500 0.000010 0.064820 -0.571928
O30   O     O_R   0.999990 0.468500 0.064820 -0.571928
O31   O     O_R   0.531500 0.999990 0.064820 -0.571928
O32   O     O_R   0.000010 0.531500 0.064820 -0.571928
C9    C     C_R   0.000000 0.500000 0.414290 0.830871
C10   C     C_R   0.500000 0.000000 0.414290 0.830871
C11   C     C_R   0.000000 0.500000 0.585710 0.830871
C12   C     C_R   0.500000 0.000000 0.585710 0.830870
C13   C     C_R   0.500000 0.000000 0.914290 0.830871
C14   C     C_R   0.000000 0.500000 0.914290 0.830871
C15   C     C_R   0.500000 0.000000 0.085710 0.830871
C16   C     C_R   0.000000 0.500000 0.085710 0.830871
Cu1   Cu    Cu3+1 0.962710 0.500000 0.500000 1.102823
Cu2   Cu    Cu3+1 0.500000 0.037290 0.500000 1.102823
Cu3   Cu    Cu3+1 0.037290 0.500000 0.500000 1.102823
Cu4   Cu    Cu3+1 0.500000 0.962710 0.500000 1.102823
Cu5   Cu    Cu3+1 0.462710 0.000000 0.000000 1.102823
Cu6   Cu    Cu3+1 1.000000 0.537290 0.000000 1.102823
Cu7   Cu    Cu3+1 0.537290 0.000000 0.000000 1.102823
Cu8   Cu    Cu3+1 0.000000 0.462710 0.000000 1.102823
C17   C     C_R   0.023272 0.475046 0.157085 -0.174330
C18   C     C_R   0.475046 0.976728 0.157085 -0.174330
C19   C     C_R   0.976728 0.524954 0.157085 -0.174330
C20   C     C_R   0.524954 0.023272 0.157085 -0.174330
C21   C     C_R   0.023272 0.524954 0.842915 -0.174330
C22   C     C_R   0.475046 0.023272 0.842915 -0.174330
C23   C     C_R   0.976728 0.475046 0.842915 -0.174329
C24   C     C_R   0.524954 0.976728 0.842915 -0.174330
C25   C     C_R   0.523272 0.975046 0.657085 -0.174330
C26   C     C_R   0.975046 0.476728 0.657085 -0.174329
C27   C     C_R   0.476728 0.024954 0.657085 -0.174329
C28   C     C_R   0.024954 0.523272 0.657085 -0.174330
C29   C     C_R   0.523272 0.024954 0.342915 -0.174330
C30   C     C_R   0.975046 0.523272 0.342915 -0.174329
C31   C     C_R   0.476728 0.975046 0.342915 -0.174329
C32   C     C_R   0.024954 0.476728 0.342915 -0.174329
C33   C     C_R   1.000000 0.500000 0.134025 -0.035964
C34   C     C_R   0.500000 0.000000 0.134025 -0.035964
C35   C     C_R   0.000000 0.500000 0.865975 -0.035964
C36   C     C_R   0.500000 1.000000 0.865975 -0.035964
C37   C     C_R   0.500000 0.000000 0.634025 -0.035964
C38   C     C_R   0.000000 0.500000 0.634025 -0.035964
C39   C     C_R   0.500000 0.000000 0.365975 -0.035964
C40   C     C_R   0.000000 0.500000 0.365975 -0.035964
C41   C     C_R   0.976098 0.524709 0.203413 0.101398
C42   C     C_R   0.524709 0.023902 0.203413 0.101398
C43   C     C_R   0.023902 0.475291 0.203413 0.101398
C44   C     C_R   0.475291 0.976098 0.203413 0.101398
C45   C     C_R   0.976098 0.475291 0.796587 0.101398
C46   C     C_R   0.524709 0.976098 0.796587 0.101398
C47   C     C_R   0.023902 0.524709 0.796587 0.101398
C48   C     C_R   0.475291 0.023902 0.796587 0.101398
C49   C     C_R   0.476098 0.024709 0.703413 0.101398
C50   C     C_R   0.024708 0.523902 0.703413 0.101398
C51   C     C_R   0.523902 0.975291 0.703413 0.101398
C52   C     C_R   0.975291 0.476098 0.703413 0.101398
C53   C     C_R   0.476098 0.975291 0.296587 0.101398
C54   C     C_R   0.024709 0.476098 0.296587 0.101398
C55   C     C_R   0.523902 0.024709 0.296587 0.101398
C56   C     C_R   0.975291 0.523902 0.296587 0.101398
C57   C     C_R   1.000000 0.500000 0.226697 0.068567
C58   C     C_R   0.500000 0.000000 0.226697 0.068567
C59   C     C_R   0.000000 0.500000 0.773302 0.068567
C60   C     C_R   0.500000 0.000000 0.773302 0.068567
C61   C     C_R   0.500000 0.000000 0.726697 0.068567
C62   C     C_R   0.000000 0.500000 0.726697 0.068567
C63   C     C_R   0.500000 0.000000 0.273302 0.068567
C64   C     C_R   0.000000 0.500000 0.273302 0.068567
C65   C     C_R   0.951961 0.548629 0.226852 -0.152546
C66   C     C_R   0.548629 0.048039 0.226852 -0.152546
C67   C     C_R   0.048039 0.451371 0.226852 -0.152546
C68   C     C_R   0.451371 0.951961 0.226852 -0.152546
C69   C     C_R   0.951961 0.451371 0.773148 -0.152545
C70   C     C_R   0.548629 0.951961 0.773148 -0.152546
C71   C     C_R   0.048039 0.548629 0.773148 -0.152545
C72   C     C_R   0.451371 0.048039 0.773148 -0.152546
C73   C     C_R   0.451961 0.048629 0.726852 -0.152546
C74   C     C_R   0.048629 0.548039 0.726852 -0.152547
C75   C     C_R   0.548039 0.951371 0.726852 -0.152546
C76   C     C_R   0.951371 0.451961 0.726852 -0.152547
C77   C     C_R   0.451961 0.951371 0.273148 -0.152546
C78   C     C_R   0.048629 0.451961 0.273148 -0.152546
C79   C     C_R   0.548039 0.048629 0.273148 -0.152546
C80   C     C_R   0.951371 0.548039 0.273148 -0.152546
H1    H     H_    0.041393 0.456050 0.138885 0.159222
H2    H     H_    0.456050 0.958607 0.138885 0.159222
H3    H     H_    0.958607 0.543949 0.138885 0.159222
H4    H     H_    0.543949 0.041393 0.138885 0.159222
H5    H     H_    0.041393 0.543949 0.861115 0.159222
H6    H     H_    0.456050 0.041393 0.861115 0.159222
H7    H     H_    0.958607 0.456050 0.861115 0.159222
H8    H     H_    0.543949 0.958607 0.861115 0.159222
H9    H     H_    0.541393 0.956050 0.638885 0.159222
H10   H     H_    0.956050 0.458607 0.638885 0.159222
H11   H     H_    0.458607 0.043950 0.638885 0.159222
H12   H     H_    0.043949 0.541393 0.638885 0.159222
H13   H     H_    0.541393 0.043950 0.361115 0.159222
H14   H     H_    0.956050 0.541393 0.361115 0.159222
H15   H     H_    0.458607 0.956050 0.361115 0.159222
H16   H     H_    0.043950 0.458607 0.361115 0.159222
H17   H     H_    0.933406 0.567639 0.209370 0.168999
H18   H     H_    0.567639 0.066594 0.209370 0.168999
H19   H     H_    0.066594 0.432361 0.209370 0.168999
H20   H     H_    0.432361 0.933406 0.209370 0.168999
H21   H     H_    0.933406 0.432361 0.790630 0.168998
H22   H     H_    0.567639 0.933406 0.790630 0.168999
H23   H     H_    0.066594 0.567639 0.790630 0.168999
H24   H     H_    0.432361 0.066594 0.790630 0.168999
H25   H     H_    0.433406 0.067639 0.709370 0.168999
H26   H     H_    0.067639 0.566594 0.709370 0.168999
H27   H     H_    0.566594 0.932361 0.709370 0.168999
H28   H     H_    0.932361 0.433406 0.709370 0.168999
H29   H     H_    0.433406 0.932361 0.290630 0.168998
H30   H     H_    0.067639 0.433406 0.290630 0.168999
H31   H     H_    0.566594 0.067639 0.290630 0.168999
H32   H     H_    0.932361 0.566594 0.290630 0.168999
C81   C     C_R   0.021737 0.173218 0.530713 -0.150222
C82   C     C_R   0.173218 0.978261 0.530711 -0.150221
C83   C     C_R   0.978262 0.826782 0.530713 -0.150222
C84   C     C_R   0.826782 0.021738 0.530712 -0.150222
C85   C     C_R   0.021737 0.826782 0.469287 -0.150222
C86   C     C_R   0.173218 0.021740 0.469289 -0.150221
C87   C     C_R   0.978262 0.173218 0.469287 -0.150221
C88   C     C_R   0.826782 0.978262 0.469288 -0.150222
C89   C     C_R   0.521738 0.673218 0.030713 -0.150222
C90   C     C_R   0.673218 0.478263 0.030713 -0.150222
C91   C     C_R   0.478261 0.326782 0.030712 -0.150222
C92   C     C_R   0.326782 0.521737 0.030713 -0.150222
C93   C     C_R   0.521738 0.326782 0.969288 -0.150222
C94   C     C_R   0.673218 0.521737 0.969287 -0.150222
C95   C     C_R   0.478262 0.673218 0.969287 -0.150223
C96   C     C_R   0.326782 0.478263 0.969287 -0.150222
H33   H     H_    0.038940 0.188693 0.554050 0.209448
H34   H     H_    0.188692 0.961056 0.554046 0.209449
H35   H     H_    0.961059 0.811307 0.554050 0.209449
H36   H     H_    0.811307 0.038941 0.554049 0.209448
H37   H     H_    0.038940 0.811307 0.445950 0.209448
H38   H     H_    0.188693 0.038945 0.445954 0.209451
H39   H     H_    0.961059 0.188693 0.445950 0.209448
H40   H     H_    0.811307 0.961058 0.445951 0.209449
H41   H     H_    0.538941 0.688693 0.054049 0.209448
H42   H     H_    0.688693 0.461060 0.054050 0.209448
H43   H     H_    0.461057 0.311307 0.054048 0.209449
H44   H     H_    0.311307 0.538940 0.054050 0.209448
H45   H     H_    0.538942 0.311308 0.945952 0.209448
H46   H     H_    0.688693 0.538941 0.945950 0.209448
H47   H     H_    0.461059 0.688693 0.945951 0.209448
H48   H     H_    0.311307 0.461060 0.945950 0.209448
C97   C     C_R   0.022537 0.133866 0.530737 0.299310
C98   C     C_R   0.133866 0.977460 0.530735 0.299305
C99   C     C_R   0.977462 0.866133 0.530737 0.299307
C100  C     C_R   0.866134 0.022538 0.530737 0.299308
C101  C     C_R   0.022537 0.866133 0.469262 0.299310
C102  C     C_R   0.133866 0.022540 0.469265 0.299305
C103  C     C_R   0.977462 0.133866 0.469263 0.299308
C104  C     C_R   0.866134 0.977462 0.469263 0.299308
C105  C     C_R   0.522538 0.633866 0.030737 0.299309
C106  C     C_R   0.633866 0.477462 0.030737 0.299310
C107  C     C_R   0.477461 0.366133 0.030736 0.299306
C108  C     C_R   0.366133 0.522538 0.030737 0.299308
C109  C     C_R   0.522538 0.366134 0.969264 0.299308
C110  C     C_R   0.633866 0.522538 0.969263 0.299309
C111  C     C_R   0.477462 0.633866 0.969263 0.299310
C112  C     C_R   0.366133 0.477463 0.969263 0.299310
C113  C     C_R   1.000000 0.113674 0.500000 -0.232029
C114  C     C_R   0.113674 0.000000 0.500000 -0.232032
C115  C     C_R   1.000000 0.886326 0.500000 -0.232028
C116  C     C_R   0.886326 1.000000 0.500000 -0.232030
C117  C     C_R   0.500000 0.613674 0.000000 -0.232031
C118  C     C_R   0.613674 0.500000 0.000000 -0.232030
C119  C     C_R   0.500000 0.386326 1.000000 -0.232030
C120  C     C_R   0.386326 0.500000 1.000000 -0.232029
C121  C     C_R   1.000000 0.192766 0.500000 -0.026125
C122  C     C_R   0.192766 0.000000 0.500000 -0.026127
C123  C     C_R   1.000000 0.807234 0.500000 -0.026126
C124  C     C_R   0.807234 1.000000 0.500000 -0.026125
C125  C     C_R   0.500000 0.692766 0.000000 -0.026125
C126  C     C_R   0.692766 0.500000 1.000000 -0.026125
C127  C     C_R   0.500000 0.307234 1.000000 -0.026126
C128  C     C_R   0.307234 0.500000 0.000000 -0.026125
C129  C     C_1   1.000000 0.233116 0.500000 0.090927
C130  C     C_1   0.233116 0.000000 0.500000 0.090927
C131  C     C_1   1.000000 0.766884 0.500000 0.090927
C132  C     C_1   0.766884 1.000000 0.500000 0.090927
C133  C     C_1   0.500000 0.733116 0.000000 0.090927
C134  C     C_1   0.733116 0.500000 1.000000 0.090927
C135  C     C_1   0.500000 0.266884 1.000000 0.090927
C136  C     C_1   0.266884 0.500000 0.000000 0.090927
C137  C     C_1   1.000000 0.266925 0.500000 0.196405
C138  C     C_1   0.266925 0.000000 0.500000 0.196405
C139  C     C_1   1.000000 0.733075 0.500000 0.196405
C140  C     C_1   0.733075 1.000000 0.500000 0.196405
C141  C     C_1   0.500000 0.766925 0.000000 0.196405
C142  C     C_1   0.766925 0.500000 1.000000 0.196405
C143  C     C_1   0.500000 0.233075 1.000000 0.196405
C144  C     C_1   0.233075 0.500000 0.000000 0.196405
C145  C     C_R   0.018950 0.327120 0.533642 0.338720
C146  C     C_R   0.327120 0.981050 0.533642 0.338720
C147  C     C_R   0.981050 0.672880 0.533642 0.338720
C148  C     C_R   0.672880 0.018950 0.533642 0.338720
C149  C     C_R   0.018950 0.672880 0.466358 0.338720
C150  C     C_R   0.327120 0.018950 0.466358 0.338720
C151  C     C_R   0.981050 0.327120 0.466358 0.338720
C152  C     C_R   0.672880 0.981050 0.466358 0.338720
C153  C     C_R   0.518950 0.827120 0.033642 0.338720
C154  C     C_R   0.827120 0.481050 0.033642 0.338720
C155  C     C_R   0.481050 0.172880 0.033642 0.338720
C156  C     C_R   0.172880 0.518950 0.033642 0.338720
C157  C     C_R   0.518950 0.172880 0.966358 0.338721
C158  C     C_R   0.827120 0.518950 0.966358 0.338720
C159  C     C_R   0.481050 0.827120 0.966358 0.338719
C160  C     C_R   0.172880 0.481050 0.966358 0.338719
C161  C     C_R   0.018957 0.366559 0.533705 0.282835
C162  C     C_R   0.366559 0.981043 0.533705 0.282836
C163  C     C_R   0.981043 0.633441 0.533705 0.282835
C164  C     C_R   0.633441 0.018957 0.533705 0.282835
C165  C     C_R   0.018957 0.633441 0.466295 0.282834
C166  C     C_R   0.366559 0.018957 0.466295 0.282836
C167  C     C_R   0.981043 0.366559 0.466295 0.282834
C168  C     C_R   0.633441 0.981043 0.466295 0.282836
C169  C     C_R   0.518957 0.866559 0.033705 0.282836
C170  C     C_R   0.866559 0.481043 0.033705 0.282834
C171  C     C_R   0.481043 0.133441 0.033705 0.282837
C172  C     C_R   0.133441 0.518957 0.033705 0.282835
C173  C     C_R   0.518957 0.133441 0.966295 0.282836
C174  C     C_R   0.866559 0.518957 0.966295 0.282835
C175  C     C_R   0.481043 0.866559 0.966295 0.282836
C176  C     C_R   0.133441 0.481043 0.966295 0.282836
C177  C     C_R   1.000000 0.386404 0.500000 -0.330763
C178  C     C_R   0.386404 0.000000 0.500000 -0.330765
C179  C     C_R   1.000000 0.613596 0.500000 -0.330763
C180  C     C_R   0.613596 1.000000 0.500000 -0.330764
C181  C     C_R   0.500000 0.886404 0.000000 -0.330765
C182  C     C_R   0.886404 0.500000 1.000000 -0.330763
C183  C     C_R   0.500000 0.113596 1.000000 -0.330765
C184  C     C_R   0.113596 0.500000 0.000000 -0.330764
C185  C     C_R   1.000000 0.307436 0.500000 -0.207468
C186  C     C_R   0.307436 0.000000 0.500000 -0.207468
C187  C     C_R   1.000000 0.692564 0.500000 -0.207467
C188  C     C_R   0.692564 1.000000 0.500000 -0.207467
C189  C     C_R   0.500000 0.807436 0.000000 -0.207467
C190  C     C_R   0.807436 0.500000 1.000000 -0.207467
C191  C     C_R   0.500000 0.192564 1.000000 -0.207468
C192  C     C_R   0.192564 0.500000 0.000000 -0.207467
O33   O     O_R   0.054230 0.999960 0.462480 -0.542456
O34   O     O_R   0.999960 0.945770 0.462480 -0.542455
O35   O     O_R   0.945770 0.000040 0.462480 -0.542455
O36   O     O_R   0.000040 0.054230 0.462480 -0.542454
O37   O     O_R   0.054230 0.000040 0.537520 -0.542456
O38   O     O_R   0.999960 0.054230 0.537520 -0.542456
O39   O     O_R   0.945770 0.999960 0.537520 -0.542455
O40   O     O_R   0.000040 0.945770 0.537520 -0.542454
O41   O     O_R   0.554230 0.499960 0.962480 -0.542454
O42   O     O_R   0.499960 0.445770 0.962480 -0.542455
O43   O     O_R   0.445770 0.500040 0.962480 -0.542455
O44   O     O_R   0.500040 0.554230 0.962480 -0.542455
O45   O     O_R   0.554230 0.500040 0.037520 -0.542455
O46   O     O_R   0.499960 0.554230 0.037520 -0.542455
O47   O     O_R   0.445770 0.499960 0.037520 -0.542454
O48   O     O_R   0.500040 0.445770 0.037520 -0.542456
C193  C     C_R   0.072099 0.000000 0.500000 0.913304
C194  C     C_R   1.000000 0.927900 0.500000 0.913301
C195  C     C_R   0.927900 1.000000 0.500000 0.913299
C196  C     C_R   1.000000 0.072099 0.500000 0.913302
C197  C     C_R   0.572099 0.500000 0.000000 0.913296
C198  C     C_R   0.500000 0.427900 0.000000 0.913299
C199  C     C_R   0.427900 0.500000 0.000000 0.913298
C200  C     C_R   0.500000 0.572099 0.000000 0.913295
Cu9   Cu    Cu3+1 0.000000 0.000000 0.455570 1.217847
Cu10  Cu    Cu3+1 0.000000 0.000000 0.544430 1.217847
Cu11  Cu    Cu3+1 0.500000 0.500000 0.955570 1.217849
Cu12  Cu    Cu3+1 0.500000 0.500000 0.044430 1.217848
N1    N     N_R   0.047389 0.115116 0.561077 0.150608
O49   O     O_R   0.052689 0.128730 0.600628 -0.279428
O50   O     O_R   0.069244 0.088353 0.547156 -0.319647
N2    N     N_R   0.115116 0.952607 0.561073 0.150608
O51   O     O_R   0.128730 0.947303 0.600623 -0.279429
O52   O     O_R   0.088352 0.930754 0.547149 -0.319657
N3    N     N_R   0.952611 0.884884 0.561077 0.150609
O53   O     O_R   0.947309 0.871270 0.600628 -0.279428
O54   O     O_R   0.930755 0.911647 0.547155 -0.319652
N4    N     N_R   0.884884 0.047390 0.561076 0.150608
O55   O     O_R   0.871271 0.052691 0.600627 -0.279427
O56   O     O_R   0.911647 0.069246 0.547153 -0.319653
N5    N     N_R   0.047388 0.884884 0.438922 0.150608
O57   O     O_R   0.052687 0.871271 0.399371 -0.279428
O58   O     O_R   0.069245 0.911646 0.452844 -0.319647
N6    N     N_R   0.115116 0.047394 0.438928 0.150609
O59   O     O_R   0.128733 0.052701 0.399379 -0.279430
O60   O     O_R   0.088350 0.069246 0.452851 -0.319659
N7    N     N_R   0.952611 0.115116 0.438923 0.150608
O61   O     O_R   0.947310 0.128729 0.399372 -0.279427
O62   O     O_R   0.930755 0.088353 0.452846 -0.319652
N8    N     N_R   0.884884 0.952609 0.438924 0.150608
O63   O     O_R   0.871270 0.947308 0.399374 -0.279428
O64   O     O_R   0.911647 0.930755 0.452847 -0.319654
N9    N     N_R   0.547390 0.615116 0.061076 0.150608
O65   O     O_R   0.552690 0.628729 0.100628 -0.279427
O66   O     O_R   0.569245 0.588353 0.047154 -0.319653
N10   N     N_R   0.615116 0.452611 0.061077 0.150608
O67   O     O_R   0.628729 0.447312 0.100629 -0.279427
O68   O     O_R   0.588354 0.430755 0.047155 -0.319650
N11   N     N_R   0.452608 0.384884 0.061074 0.150609
O69   O     O_R   0.447305 0.371269 0.100624 -0.279429
O70   O     O_R   0.430755 0.411648 0.047152 -0.319655
N12   N     N_R   0.384884 0.547389 0.061077 0.150608
O71   O     O_R   0.371271 0.552688 0.100629 -0.279426
O72   O     O_R   0.411646 0.569245 0.047155 -0.319651
N13   N     N_R   0.547391 0.384884 0.938925 0.150607
O73   O     O_R   0.552692 0.371271 0.899374 -0.279427
O74   O     O_R   0.569246 0.411647 0.952848 -0.319654
N14   N     N_R   0.615116 0.547389 0.938923 0.150608
O75   O     O_R   0.628729 0.552689 0.899372 -0.279427
O76   O     O_R   0.588354 0.569245 0.952845 -0.319652
N15   N     N_R   0.452610 0.615116 0.938924 0.150608
O77   O     O_R   0.447310 0.628729 0.899372 -0.279427
O78   O     O_R   0.430754 0.588353 0.952846 -0.319653
N16   N     N_R   0.384884 0.452611 0.938923 0.150608
O79   O     O_R   0.371271 0.447312 0.899371 -0.279427
O80   O     O_R   0.411646 0.430755 0.952845 -0.319649
Cl1   Cl    Cl    0.042607 0.302310 0.576051 -0.443359
Cl2   Cl    Cl    0.302310 0.957393 0.576052 -0.443359
Cl3   Cl    Cl    0.957393 0.697690 0.576051 -0.443359
Cl4   Cl    Cl    0.697690 0.042607 0.576052 -0.443359
Cl5   Cl    Cl    0.042607 0.697690 0.423948 -0.443360
Cl6   Cl    Cl    0.302310 0.042607 0.423949 -0.443359
Cl7   Cl    Cl    0.957393 0.302310 0.423948 -0.443359
Cl8   Cl    Cl    0.697690 0.957393 0.423949 -0.443359
Cl9   Cl    Cl    0.542607 0.802310 0.076051 -0.443360
Cl10  Cl    Cl    0.802310 0.457393 0.076051 -0.443360
Cl11  Cl    Cl    0.457393 0.197690 0.076051 -0.443359
Cl12  Cl    Cl    0.197690 0.542607 0.076051 -0.443360
Cl13  Cl    Cl    0.542607 0.197690 0.923948 -0.443360
Cl14  Cl    Cl    0.802310 0.542607 0.923948 -0.443359
Cl15  Cl    Cl    0.457393 0.802310 0.923949 -0.443359
Cl16  Cl    Cl    0.197690 0.457393 0.923949 -0.443360
Cl17  Cl    Cl    0.041545 0.390986 0.577252 -0.478773
Cl18  Cl    Cl    0.390986 0.958455 0.577252 -0.478773
Cl19  Cl    Cl    0.958455 0.609014 0.577252 -0.478774
Cl20  Cl    Cl    0.609014 0.041545 0.577252 -0.478773
Cl21  Cl    Cl    0.041545 0.609014 0.422747 -0.478773
Cl22  Cl    Cl    0.390986 0.041545 0.422748 -0.478773
Cl23  Cl    Cl    0.958455 0.390986 0.422747 -0.478773
Cl24  Cl    Cl    0.609014 0.958455 0.422748 -0.478773
Cl25  Cl    Cl    0.541545 0.890986 0.077252 -0.478774
Cl26  Cl    Cl    0.890986 0.458455 0.077252 -0.478773
Cl27  Cl    Cl    0.458455 0.109014 0.077252 -0.478774
Cl28  Cl    Cl    0.109014 0.541544 0.077253 -0.478774
Cl29  Cl    Cl    0.541545 0.109014 0.922748 -0.478774
Cl30  Cl    Cl    0.890986 0.541544 0.922748 -0.478773
Cl31  Cl    Cl    0.458455 0.890986 0.922748 -0.478773
Cl32  Cl    Cl    0.109014 0.458455 0.922748 -0.478773

loop_
_geom_bond_atom_site_label_1
_geom_bond_atom_site_label_2
_geom_bond_distance
_ccdc_geom_bond_type
C163  C179  1.410555 A    
C110  C118  1.422021 A    
O25   C13   1.287288 A    
C102  N6    1.438055 S    
C146  C162  1.405566 A    
N9    O65   1.301344 A    
C165  C179  1.410557 A    
C150  C166  1.405566 A    
C12   C37   1.456935 S    
C46   C70   1.402251 A    
C148  C164  1.405562 A    
C117  C200  1.481682 S    
O18   Cu2   1.965495 S    
O46   Cu12  1.943906 S    
C101  N5    1.438049 S    
C111  C117  1.422022 A    
O41   C197  1.298335 A    
C82   H34   1.084095 S    
O32   C16   1.287288 A    
C139  C187  1.443777 S    
O35   Cu9   1.943910 S    
C126  C134  1.438017 S    
C86   H38   1.084097 S    
O19   Cu3   1.965495 S    
N6    O59   1.301350 A    
Cu1   Cu3   2.657970 S    
Cu2   Cu4   2.657970 S    
C17   C43   1.397222 A    
O3    C3    1.289912 A    
C19   C33   1.400838 A    
C52   C62   1.412118 A    
C162  Cl18  1.769257 S    
C32   C54   1.397222 A    
O47   Cu12  1.943910 S    
C168  C180  1.410553 A    
C54   C64   1.412116 A    
C112  C120  1.422020 A    
C23   C45   1.397222 A    
C155  Cl11  1.768656 S    
C154  C170  1.405562 A    
O5    Cu1   1.949757 S    
C88   C124  1.394013 A    
O37   Cu10  1.943906 S    
C49   C73   1.402251 A    
C18   H2    1.084721 S    
C25   C37   1.400838 A    
N8    O63   1.301346 A    
C145  C161  1.405562 A    
C111  N15   1.438049 S    
C153  Cl9   1.768657 S    
O34   Cu9   1.943910 S    
O17   C9    1.287288 A    
C2    C178  1.473792 S    
N12   O71   1.301345 A    
C124  C132  1.438017 S    
C55   C79   1.402251 A    
O48   Cu12  1.943910 S    
C22   C48   1.397222 A    
C101  C115  1.422022 A    
C146  Cl2   1.768657 S    
C148  C188  1.406196 A    
C116  C195  1.481682 S    
C94   C110  1.402747 A    
C104  C116  1.422021 A    
C52   C76   1.402251 A    
O40   Cu10  1.943910 S    
O39   C195  1.298333 A    
C109  N13   1.438050 S    
O26   Cu6   1.965495 S    
C56   C64   1.412116 A    
C151  C167  1.405566 A    
C105  N9    1.438049 S    
C154  C190  1.406196 A    
C89   H41   1.084098 S    
O27   C13   1.287288 A    
O8    Cu2   1.949757 S    
O31   C15   1.287288 A    
C149  C165  1.405562 A    
C25   C51   1.397222 A    
C166  C178  1.410555 A    
C49   C61   1.412116 A    
C137  C185  1.443777 S    
C15   C34   1.456935 S    
N10   O67   1.301344 A    
C29   C55   1.397222 A    
C118  C197  1.481682 S    
C151  Cl7   1.768657 S    
C31   C53   1.397222 A    
O41   Cu11  1.943906 S    
C87   C121  1.394015 A    
C143  C191  1.443777 S    
C121  C129  1.438017 S    
C144  C192  1.443777 S    
C82   C122  1.394012 A    
C83   C99   1.402747 A    
O9    C5    1.289916 A    
C140  C188  1.443777 S    
C141  C189  1.443777 S    
N14   O75   1.301344 A    
C100  C116  1.422019 A    
C50   C74   1.402251 A    
O33   Cu9   1.943906 S    
O4    C4    1.289915 A    
O35   C195  1.298335 A    
N5    O57   1.301346 A    
C30   H14   1.084723 S    
C77   H29   1.083603 S    
C103  C113  1.422020 A    
O6    Cu4   1.949757 S    
C130  C138  1.204927 T    
C159  C175  1.405562 A    
C160  C176  1.405562 A    
C157  Cl13  1.768655 S    
C164  Cl20  1.769261 S    
C75   H27   1.083600 S    
N15   O77   1.301344 A    
C94   H46   1.084098 S    
C157  C173  1.405566 A    
C53   C63   1.412118 A    
C31   C39   1.400840 A    
O21   Cu1   1.965492 S    
C113  C196  1.481682 S    
O48   C198  1.298333 A    
C82   C98   1.402750 A    
C98   C114  1.422021 A    
O23   C11   1.287288 A    
C8    C184  1.473788 S    
O11   C7    1.289912 A    
C169  Cl25  1.769257 S    
C18   C44   1.397222 A    
C86   C102  1.402750 A    
C171  Cl27  1.769256 S    
C73   H25   1.083600 S    
N2    O51   1.301346 A    
O13   C7    1.289915 A    
C28   H12   1.084721 S    
C148  Cl4   1.768659 S    
C17   C33   1.400838 A    
C50   C62   1.412114 A    
N4    O56   1.301041 A    
C21   C47   1.397222 A    
C51   C75   1.402251 A    
O7    C1    1.289914 A    
C176  Cl32  1.769258 S    
C65   C80   1.396357 A    
C107  N11   1.438054 S    
O26   C14   1.287288 A    
O29   C15   1.287288 A    
C67   C78   1.396357 A    
O30   C16   1.287288 A    
C71   H23   1.083603 S    
C154  Cl10  1.768657 S    
O29   Cu5   1.965492 S    
C10   C39   1.456935 S    
C53   C77   1.402249 A    
C51   C61   1.412116 A    
C14   C35   1.456935 S    
C164  C180  1.410555 A    
N9    O66   1.301041 A    
O16   Cu6   1.949757 S    
N1    O50   1.301041 A    
C24   C36   1.400838 A    
C41   C65   1.402251 A    
C152  C168  1.405562 A    
C105  C117  1.422019 A    
C42   C58   1.412114 A    
N7    O62   1.301040 A    
C102  C114  1.422021 A    
C26   C52   1.397222 A    
C84   H36   1.084098 S    
O15   Cu7   1.949757 S    
C108  C120  1.422022 A    
C30   C56   1.397222 A    
C45   C59   1.412118 A    
C28   C50   1.397222 A    
C89   C105  1.402747 A    
C168  Cl24  1.769260 S    
O44   Cu11  1.943906 S    
C170  Cl26  1.769259 S    
C85   C123  1.394015 A    
O32   Cu6   1.965492 S    
C151  C185  1.406195 A    
C91   H43   1.084097 S    
C29   C39   1.400836 A    
C169  C181  1.410553 A    
C95   C125  1.394015 A    
O39   Cu10  1.943910 S    
C133  C141  1.204927 T    
C171  C183  1.410555 A    
C18   C34   1.400840 A    
C3    C179  1.473788 S    
C160  Cl16  1.768657 S    
O22   Cu4   1.965492 S    
C114  C193  1.481679 S    
C68   C77   1.396357 A    
C120  C199  1.481682 S    
O23   Cu3   1.965492 S    
C158  C174  1.405562 A    
C92   C108  1.402747 A    
C123  C131  1.438017 S    
O12   C8    1.289915 A    
O1    C1    1.289916 A    
C96   C128  1.394011 A    
C165  Cl21  1.769261 S    
C32   C40   1.400838 A    
C54   C78   1.402249 A    
C23   C35   1.400840 A    
C60   C61   1.405358 A    
C42   C66   1.402251 A    
C67   H19   1.083602 S    
C90   H42   1.084096 S    
C65   H17   1.083602 S    
C175  C181  1.410557 A    
O30   Cu8   1.965492 S    
C134  C142  1.204927 T    
N6    O60   1.301043 A    
N16   O79   1.301345 A    
C95   C111  1.402747 A    
C69   H21   1.083603 S    
O45   C197  1.298333 A    
C110  N14   1.438048 S    
C129  C137  1.204923 T    
C149  Cl5   1.768657 S    
C66   C79   1.396357 A    
C106  N10   1.438050 S    
C174  Cl30  1.769260 S    
O43   C199  1.298335 A    
C4    C180  1.473792 S    
C9    C40   1.456935 S    
N5    O58   1.301040 A    
C5    C181  1.473792 S    
O10   C6    1.289914 A    
C11   C38   1.456935 S    
C7    C183  1.473792 S    
N8    O64   1.301042 A    
C13   C36   1.456935 S    
O47   C199  1.298333 A    
C45   C69   1.402249 A    
C90   C126  1.394013 A    
N12   O72   1.301040 A    
C47   C71   1.402249 A    
C58   C63   1.405358 A    
C99   C115  1.422020 A    
C132  C140  1.204927 T    
C97   C113  1.422020 A    
C78   H30   1.083602 S    
C44   C58   1.412118 A    
C69   C76   1.396357 A    
C125  C133  1.438017 S    
C93   C127  1.394015 A    
O31   Cu7   1.965492 S    
C27   C37   1.400838 A    
C99   N3    1.438054 S    
N13   O74   1.301040 A    
C46   C60   1.412116 A    
O46   C200  1.298333 A    
C92   H44   1.084094 S    
C161  Cl17  1.769260 S    
N3    O53   1.301347 A    
C176  C184  1.410557 A    
C112  N16   1.438050 S    
C147  C187  1.406195 A    
O21   C11   1.287288 A    
C19   H3    1.084721 S    
C119  C198  1.481679 S    
O22   C12   1.287288 A    
C149  C187  1.406196 A    
C24   C46   1.397222 A    
C135  C143  1.204927 T    
O13   Cu5   1.949757 S    
C84   C100  1.402747 A    
C28   C38   1.400836 A    
C26   C38   1.400840 A    
C30   C40   1.400838 A    
Cu11  Cu12  2.679547 S    
C87   C103  1.402750 A    
C162  C178  1.410553 A    
N10   O68   1.301040 A    
O33   C193  1.298335 A    
C76   H28   1.083598 S    
O45   Cu12  1.943906 S    
O3    Cu3   1.949757 S    
C167  C177  1.410556 A    
C152  Cl8   1.768659 S    
C159  Cl15  1.768659 S    
O36   C196  1.298335 A    
C145  Cl1   1.768659 S    
C172  C184  1.410556 A    
O28   Cu8   1.965495 S    
C93   C109  1.402747 A    
C174  C182  1.410555 A    
C70   H22   1.083600 S    
N11   O69   1.301347 A    
C91   C107  1.402747 A    
C145  C185  1.406197 A    
N14   O76   1.301040 A    
C91   C127  1.394013 A    
C157  C191  1.406194 A    
C155  C171  1.405566 A    
C88   C104  1.402750 A    
C48   C60   1.412116 A    
C142  C190  1.443777 S    
C167  Cl23  1.769259 S    
O43   Cu11  1.943910 S    
C109  C119  1.422023 A    
O9    Cu5   1.949757 S    
C155  C191  1.406197 A    
O11   Cu7   1.949757 S    
C22   H6    1.084721 S    
C96   C112  1.402747 A    
O37   C193  1.298333 A    
C16   C33   1.456935 S    
C19   C41   1.397222 A    
C146  C186  1.406194 A    
C25   H9    1.084721 S    
N15   O78   1.301039 A    
O5    C3    1.289915 A    
O7    Cu3   1.949757 S    
N7    O61   1.301348 A    
C81   C121  1.394013 A    
O14   C6    1.289916 A    
C44   C68   1.402251 A    
N2    O52   1.301040 A    
C71   C74   1.396357 A    
O18   C10   1.287288 A    
C170  C182  1.410557 A    
O17   Cu1   1.965495 S    
C156  C172  1.405566 A    
C57   C64   1.405358 A    
C32   H16   1.084723 S    
C48   C72   1.402251 A    
C59   C62   1.405358 A    
C107  C119  1.422023 A    
Cu9   Cu10  2.679547 S    
C43   C57   1.412118 A    
C81   H33   1.084098 S    
C138  C186  1.443777 S    
C131  C139  1.204923 T    
C24   H8    1.084721 S    
C150  C186  1.406195 A    
C70   C75   1.396357 A    
C158  Cl14  1.768659 S    
C85   H37   1.084096 S    
C86   C122  1.394014 A    
O14   Cu8   1.949757 S    
C159  C189  1.406196 A    
C84   C124  1.394013 A    
O25   Cu5   1.965495 S    
C147  C163  1.405562 A    
C128  C136  1.438021 S    
N1    O49   1.301349 A    
C21   C35   1.400836 A    
O42   Cu11  1.943910 S    
O8    C4    1.289912 A    
C153  C169  1.405562 A    
O4    Cu4   1.949757 S    
C136  C144  1.204923 T    
C31   H15   1.084723 S    
C66   H18   1.083600 S    
C161  C177  1.410553 A    
C156  C192  1.406195 A    
C98   N2    1.438054 S    
C20   C34   1.400836 A    
C158  C190  1.406195 A    
C104  N8    1.438052 S    
C1    C177  1.473788 S    
C20   C42   1.397222 A    
C95   H47   1.084098 S    
C103  N7    1.438051 S    
C55   C63   1.412114 A    
O42   C198  1.298335 A    
C108  N12   1.438050 S    
C156  Cl12  1.768655 S    
C175  Cl31  1.769257 S    
C6    C182  1.473788 S    
C173  Cl29  1.769257 S    
O38   Cu10  1.943906 S    
O16   C8    1.289912 A    
C87   H39   1.084096 S    
C163  Cl19  1.769260 S    
C88   H40   1.084097 S    
O38   C196  1.298333 A    
C97   N1    1.438050 S    
C72   C73   1.396357 A    
C81   C97   1.402747 A    
C47   C59   1.412114 A    
Cu5   Cu7   2.657970 S    
C79   H31   1.083600 S    
C106  C118  1.422020 A    
O6    C2    1.289916 A    
Cu6   Cu8   2.657970 S    
N3    O54   1.301043 A    
C173  C183  1.410556 A    
C172  Cl28  1.769259 S    
O27   Cu7   1.965495 S    
C153  C189  1.406194 A    
C74   H26   1.083598 S    
C100  N4    1.438050 S    
C68   H20   1.083600 S    
C96   H48   1.084098 S    
C152  C188  1.406194 A    
N4    O55   1.301343 A    
C147  Cl3   1.768659 S    
O36   Cu9   1.943906 S    
O19   C9    1.287288 A    
C90   C106  1.402747 A    
C115  C194  1.481682 S    
O24   C12   1.287288 A    
C160  C192  1.406197 A    
O28   C14   1.287288 A    
O24   Cu2   1.965492 S    
O12   Cu8   1.949757 S    
C94   C126  1.394013 A    
N11   O70   1.301042 A    
C80   H32   1.083600 S    
N16   O80   1.301041 A    
O2    Cu2   1.949757 S    
C20   H4    1.084721 S    
O34   C194  1.298333 A    
C89   C125  1.394011 A    
C29   H13   1.084721 S    
C22   C36   1.400838 A    
C56   C80   1.402251 A    
C27   H11   1.084723 S    
O2    C2    1.289914 A    
C127  C135  1.438017 S    
C92   C128  1.394013 A    
C122  C130  1.438017 S    
C166  Cl22  1.769257 S    
C93   H45   1.084095 S    
C72   H24   1.083602 S    
C83   C123  1.394015 A    
O20   Cu4   1.965495 S    
C41   C57   1.412116 A    
O20   C10   1.287288 A    
C43   C67   1.402249 A    
O44   C200  1.298335 A    
O10   Cu6   1.949757 S    
C85   C101  1.402747 A    
C17   H1    1.084721 S    
C83   H35   1.084094 S    
O15   C5    1.289914 A    
C27   C49   1.397222 A    
O40   C194  1.298335 A    
C21   H5    1.084721 S    
N13   O73   1.301345 A    
O1    Cu1   1.949757 S    
C23   H7    1.084723 S    
C150  Cl6   1.768656 S    
C26   H10   1.084721 S    
