data_mof_unit_22032.cif
_audit_creation_date              2012-12-10T17:18:16-0500
_audit_creation_method            fapswitch 2.2
_symmetry_space_group_name_H-M    P1
_symmetry_Int_Tables_number       1
_space_group_crystal_system       triclinic
_cell_length_a                    10.117071
_cell_length_b                    10.836364
_cell_length_c                    14.99769
_cell_angle_alpha                 90.597781
_cell_angle_beta                  81.203915
_cell_angle_gamma                 95.7473
_cell_volume                      1616.70477415

loop_
_atom_site_label
_atom_site_type_symbol
_atom_type_description
_atom_site_fract_x
_atom_site_fract_y
_atom_site_fract_z
_atom_type_partial_charge
C1    C     C_R   0.556391 0.732625 0.491129 0.999323
C2    C     C_R   0.443530 0.267244 0.503876 0.993453
C3    C     C_R   0.623285 0.707250 0.943111 -0.093177
C4    C     C_R   0.371487 0.292684 0.057600 -0.097847
C5    C     C_2   0.588411 0.864578 0.478661 -0.299466
C6    C     C_2   0.411303 0.134986 0.498402 -0.271739
C7    C     C_2   0.487431 0.933470 0.474393 -0.127707
C8    C     C_2   0.511850 0.065678 0.472012 -0.133640
C9    C     C_2   0.927176 0.510182 0.507301 -0.084523
C10   C     C_2   0.072818 0.489859 0.492682 -0.088441
C11   C     C_R   0.500065 0.499478 0.672929 0.977942
C12   C     C_R   0.499865 0.500193 0.327036 0.960704
C13   C     C_R   0.408182 0.413136 0.194656 -0.096754
C14   C     C_R   0.588338 0.587663 0.805804 -0.106091
C15   C     C_R   0.499115 0.498211 0.231463 -0.200773
C16   C     C_R   0.500570 0.500422 0.768486 -0.197530
C17   C     C_R   0.587834 0.584120 0.177307 0.225383
C18   C     C_R   0.414565 0.411872 0.821960 0.220840
C19   C     C_R   0.570473 0.597959 0.087166 0.006430
C20   C     C_R   0.430260 0.399445 0.912650 0.011795
C21   C     C_R   0.498075 0.499332 0.046773 0.042356
C22   C     C_R   0.500478 0.499141 0.953364 0.045890
C23   C     C_R   0.423256 0.401093 0.100127 0.006051
C24   C     C_R   0.573247 0.598568 0.900330 -0.002278
C25   C     C_R   0.621207 0.707124 0.037091 -0.098006
C26   C     C_R   0.379328 0.290709 0.963053 -0.103437
H1    H     H_    0.615332 0.105919 0.453830 0.192875
H2    H     H_    0.383760 0.893031 0.478627 0.193881
H3    H     H_    0.308083 0.094334 0.516602 0.163716
H4    H     H_    0.691816 0.905423 0.474573 0.157632
H5    H     H_    0.109078 0.421972 0.443603 0.176977
H6    H     H_    0.890898 0.578063 0.556395 0.178113
H7    H     H_    0.119759 0.614869 0.583231 0.196595
H8    H     H_    0.880255 0.385157 0.416749 0.180387
N1    N     N_2   0.842700 0.448880 0.462930 -0.186057
N2    N     N_2   0.157300 0.551120 0.537070 -0.186338
O1    O     O_R   0.431060 0.692470 0.507460 -0.621403
O2    O     O_R   0.568940 0.307530 0.492540 -0.629049
O3    O     O_R   0.651120 0.659650 0.483670 -0.597412
O4    O     O_R   0.348880 0.340350 0.516330 -0.584016
O5    O     O_R   0.389960 0.516440 0.644050 -0.566515
O6    O     O_R   0.610040 0.483560 0.355950 -0.573055
O7    O     O_R   0.610030 0.483620 0.620260 -0.619262
O8    O     O_R   0.389970 0.516380 0.379740 -0.620067
Zn1   Zn    Zn3+2 0.353060 0.521920 0.515880 1.029725
Zn2   Zn    Zn3+2 0.646940 0.478080 0.484120 1.016910
C27   C     C_2   0.295187 0.342351 0.254227 0.928725
O9    O     O_2   0.317187 0.279047 0.316352 -0.636215
O10   O     O_R   0.163592 0.347081 0.237499 -0.756271
H9    H     H_    0.095247 0.295022 0.281855 0.345198
C28   C     C_2   0.697555 0.662891 0.746263 0.931184
O11   O     O_2   0.814274 0.660599 0.757996 -0.582980
O12   O     O_R   0.666656 0.737357 0.678307 -0.798351
H10   H     H_    0.749525 0.784578 0.643108 0.336990
Br1   Br    Br    0.739025 0.672561 0.225034 -0.404220
Br2   Br    Br    0.268782 0.317760 0.772045 -0.411646
C29   C     C_2   0.647760 0.826544 0.084438 0.996769
O13   O     O_2   0.752536 0.892903 0.062487 -0.505409
O14   O     O_R   0.553708 0.860553 0.156426 -0.784992
H11   H     H_    0.585733 0.940092 0.186201 0.371999
C30   C     C_2   0.360712 0.169930 0.915831 0.992194
O15   O     O_2   0.257092 0.100884 0.934493 -0.505790
O16   O     O_R   0.461303 0.137918 0.847306 -0.762399
H12   H     H_    0.434921 0.057243 0.816802 0.389940
C31   C     C_2   0.654631 0.826841 0.893028 0.946659
O17   O     O_2   0.566008 0.871585 0.860987 -0.600252
O18   O     O_R   0.785418 0.886008 0.880682 -0.685784
H13   H     H_    0.793864 0.965867 0.844726 0.369517
C32   C     C_2   0.329926 0.175371 0.109404 0.951182
O19   O     O_2   0.214902 0.126134 0.114046 -0.507230
O20   O     O_R   0.421721 0.124045 0.155245 -0.783010
H14   H     H_    0.380082 0.047213 0.190947 0.371801

loop_
_geom_bond_atom_site_label_1
_geom_bond_atom_site_label_2
_ccdc_geom_bond_type
C6    H3    S    
N2    Zn1   S    
C4    C26   A    
C11   O7    A    
C28   O11   D    
C18   Br2   S    
C27   O10   S    
C11   C16   S    
C2    O2    A    
O5    Zn1   S    
C14   C28   S    
C12   C15   S    
C1    O1    A    
H8    N1    S    
O4    Zn1   S    
H7    N2    S    
C13   C15   A    
C3    C24   A    
C32   O20   S    
C7    C8    S    
C12   O8    A    
C2    C6    S    
C21   C22   A    
C29   O13   D    
C3    C31   S    
C12   O6    A    
C20   C26   A    
O3    Zn2   S    
C1    C5    S    
C22   C24   A    
C16   C18   A    
C4    C32   S    
C17   C19   A    
C26   C30   S    
C10   N2    D    
C31   O17   D    
C18   C20   A    
C21   C23   A    
C32   O19   D    
C19   C25   A    
O7    Zn2   S    
C14   C16   A    
O2    Zn2   S    
C29   O14   S    
C30   O15   D    
C1    O3    A    
C28   O12   S    
O1    Zn1   S    
O18   H13   S    
C25   C29   S    
C9    C10   S    
C2    O4    A    
O14   H11   S    
C3    C25   A    
O20   H14   S    
O8    Zn1   S    
C13   C23   A    
C5    C7    D    
O10   H9    S    
O6    Zn2   S    
C11   O5    A    
C14   C24   A    
C15   C17   A    
C8    H1    S    
C17   Br1   S    
C9    N1    D    
C6    C8    D    
C9    H6    S    
C19   C21   A    
C4    C23   A    
O12   H10   S    
N1    Zn2   S    
C13   C27   S    
C10   H5    S    
C30   O16   S    
C7    H2    S    
C27   O9    D    
C5    H4    S    
C20   C22   A    
O16   H12   S    
C31   O18   S    
