data_mof_unit_20106.cif
_audit_creation_date              2012-12-10T18:10:44-0500
_audit_creation_method            fapswitch 2.2
_symmetry_space_group_name_H-M    P1
_symmetry_Int_Tables_number       1
_space_group_crystal_system       triclinic
_cell_length_a                    12.616953
_cell_length_b                    13.143979
_cell_length_c                    15.734902
_cell_angle_alpha                 90.617143
_cell_angle_beta                  102.724476
_cell_angle_gamma                 82.351244
_cell_volume                      2522.23117758

loop_
_atom_site_label
_atom_site_type_symbol
_atom_type_description
_atom_site_fract_x
_atom_site_fract_y
_atom_site_fract_z
_atom_type_partial_charge
C1    C     C_R   0.438813 0.691136 0.486848 0.846328
C2    C     C_R   0.596370 0.200211 0.501112 -0.045403
C3    C     C_R   0.300428 0.838058 0.499725 -0.190010
C4    C     C_R   0.500983 0.500295 0.661516 0.906578
C5    C     C_R   0.272001 0.942773 0.507799 -0.147196
C6    C     C_R   0.345350 0.010081 0.499083 -0.190459
C7    C     C_R   0.447044 0.973406 0.477732 0.084549
C8    C     C_R   0.467320 0.869472 0.456227 0.083910
C9    C     C_R   0.529340 0.036321 0.476967 0.078071
C10   C     C_R   0.621411 0.000171 0.441615 0.174470
C11   C     C_R   0.631472 0.901451 0.408778 -0.252042
C12   C     C_3   0.377091 0.526972 0.025726 -0.146382
C13   C     C_R   0.555383 0.836725 0.415907 -0.197658
C14   C     C_R   0.523379 0.133901 0.511993 -0.256779
C15   C     C_R   0.687514 0.164992 0.466614 -0.203902
C16   C     C_R   0.561012 0.308806 0.508631 0.857170
C17   C     C_R   0.399615 0.800680 0.476874 -0.108372
C18   C     C_R   0.088919 0.344291 0.381853 -0.306621
C19   C     C_R   0.799114 0.631314 0.600951 0.027798
C20   C     C_R   0.903240 0.660799 0.621587 -0.248469
C21   C     C_R   0.984870 0.611249 0.583240 -0.195264
C22   C     C_R   0.962399 0.531321 0.523806 0.017354
C23   C     C_3   0.496027 0.499168 0.081974 0.258903
C24   C     C_R   0.854769 0.504151 0.505080 0.236062
C25   C     C_R   0.041830 0.477597 0.482304 -0.013717
C26   C     C_R   0.012024 0.398212 0.423290 0.194077
C27   C     C_R   0.905880 0.373159 0.406257 -0.293798
C28   C     C_R   0.499019 0.499713 0.338506 0.886475
C29   C     C_R   0.828585 0.425441 0.446645 -0.209367
C30   C     C_R   0.150436 0.498901 0.496901 -0.046533
C31   C     C_R   0.194751 0.369064 0.399243 0.021684
C32   C     C_3   0.380043 0.525105 0.927596 -0.451595
C33   C     C_3   0.568012 0.582024 0.965235 -0.393642
C34   C     C_3   0.549311 0.393241 0.056675 -0.376279
C35   C     C_3   0.565917 0.581206 0.062986 -0.422051
C36   C     C_1   0.496873 0.499179 0.249163 -0.152515
C37   C     C_3   0.500033 0.500425 0.917298 0.332564
C38   C     C_2   0.295865 0.460589 0.045883 0.913943
C39   C     C_3   0.548701 0.393215 0.958507 -0.379681
C40   C     C_1   0.496102 0.499023 0.173657 -0.105179
C41   C     C_1   0.502556 0.500850 0.826217 -0.106887
C42   C     C_1   0.502937 0.500822 0.750884 -0.182221
C43   C     C_R   0.701060 0.064225 0.438310 -0.199561
H1    H     H_    0.347244 0.607239 0.041118 0.133544
H2    H     H_    0.194883 0.971569 0.524549 0.143283
H3    H     H_    0.343068 0.601293 0.896913 0.159861
H4    H     H_    0.565522 0.761154 0.388488 0.172846
H5    H     H_    0.255632 0.327953 0.368165 0.141412
H6    H     H_    0.882357 0.312657 0.361459 0.150655
H7    H     H_    0.067447 0.283549 0.336767 0.146368
H8    H     H_    0.180880 0.557253 0.540548 0.123837
H9    H     H_    0.735187 0.669758 0.630307 0.141861
H10   H     H_    0.064123 0.637198 0.601328 0.134873
H11   H     H_    0.920616 0.722003 0.667028 0.151763
H12   H     H_    0.330414 0.467467 0.892124 0.193917
H13   H     H_    0.748700 0.402507 0.430890 0.209145
H14   H     H_    0.654336 0.565817 0.957761 0.177682
H15   H     H_    0.533991 0.659666 0.936372 0.172120
H16   H     H_    0.531471 0.658639 0.081377 0.173219
H17   H     H_    0.651284 0.564601 0.102551 0.184460
H18   H     H_    0.499348 0.333882 0.925865 0.188880
H19   H     H_    0.633922 0.372394 0.949448 0.167221
H20   H     H_    0.506111 0.330284 0.072947 0.209178
H21   H     H_    0.162867 0.453246 0.095824 0.344092
H22   H     H_    0.635479 0.376958 0.094711 0.164550
H23   H     H_    0.744703 0.216219 0.457555 0.148516
H24   H     H_    0.699191 0.873597 0.378908 0.151071
H25   H     H_    0.771114 0.037729 0.410737 0.135898
H26   H     H_    0.459583 0.162119 0.545395 0.149537
H27   H     H_    0.246497 0.786158 0.514075 0.151696
H28   H     H_    0.319169 0.090429 0.507200 0.135361
N1    N     N_R   0.222200 0.444690 0.455710 -0.102895
N2    N     N_R   0.776960 0.554780 0.543830 -0.131490
O1    O     O_R   0.366740 0.627160 0.478850 -0.613977
O2    O     O_R   0.212084 0.504583 0.085263 -0.807099
O3    O     O_R   0.544830 0.662520 0.507140 -0.620183
O4    O     O_R   0.410920 0.482310 0.608710 -0.613381
O5    O     O_R   0.589010 0.517670 0.637000 -0.610907
O6    O     O_R   0.455170 0.337480 0.492860 -0.617253
O7    O     O_R   0.633260 0.372840 0.521150 -0.634789
O8    O     O_R   0.410990 0.482330 0.363000 -0.596368
O9    O     O_R   0.589080 0.517690 0.391290 -0.641487
O10   O     O_2   0.302645 0.369643 0.027547 -0.642891
Zn1   Zn    Zn3+2 0.381090 0.476390 0.481110 0.949160
Zn2   Zn    Zn3+2 0.618910 0.523610 0.518890 0.928364

loop_
_geom_bond_atom_site_label_1
_geom_bond_atom_site_label_2
_ccdc_geom_bond_type
C30   H8    S    
C8    C13   A    
C38   O10   D    
C27   C29   A    
C41   C42   T    
C19   C20   A    
C18   C26   A    
C7    C8    A    
C12   C23   S    
C26   C27   A    
C33   H15   S    
C1    O1    A    
O6    Zn1   S    
C24   N2    A    
C23   C40   S    
C35   H16   S    
C24   C29   A    
C19   H9    S    
C43   H25   S    
C22   C25   A    
C2    C16   S    
C9    C10   A    
C32   H12   S    
C28   O8    A    
C21   C22   A    
C12   C32   S    
C37   C41   S    
C34   H22   S    
C11   H24   S    
C38   O2    S    
C6    H28   S    
C39   H18   S    
C28   O9    A    
C34   C39   S    
C36   C40   T    
C3    H27   S    
C20   H11   S    
C13   H4    S    
O4    Zn1   S    
C25   C26   A    
C15   H23   S    
C5    H2    S    
C33   C37   S    
C35   H17   S    
C16   O7    A    
C9    C14   A    
C4    O5    A    
O7    Zn2   S    
C19   N2    A    
C23   C34   S    
C32   C37   S    
C2    C15   A    
N2    Zn2   S    
N1    Zn1   S    
O5    Zn2   S    
C31   N1    A    
C23   C35   S    
C31   H5    S    
C14   H26   S    
C22   C24   A    
O8    Zn1   S    
C18   H7    S    
C25   C30   A    
C7    C9    A    
C39   H19   S    
C33   H14   S    
C10   C43   A    
C1    O3    A    
C32   H3    S    
O1    Zn1   S    
C3    C5    A    
C30   N1    A    
C6    C7    A    
C29   H13   S    
O9    Zn2   S    
C1    C17   S    
C8    C17   A    
C16   O6    A    
C15   C43   A    
C4    O4    A    
C12   H1    S    
C21   H10   S    
C11   C13   A    
C5    C6    A    
C4    C42   S    
C34   H20   S    
C33   C35   S    
H21   O2    S    
C3    C17   A    
C12   C38   S    
C2    C14   A    
C10   C11   A    
C20   C21   A    
C28   C36   S    
C37   C39   S    
C18   C31   A    
O3    Zn2   S    
C27   H6    S    
