data_mof_unit_38966.cif
_audit_creation_date              2012-12-11T15:29:21-0500
_audit_creation_method            fapswitch 2.2
_symmetry_space_group_name_H-M    P1
_symmetry_Int_Tables_number       1
_space_group_crystal_system       triclinic
_cell_length_a                    13.484445
_cell_length_b                    13.509992
_cell_length_c                    27.510919
_cell_angle_alpha                 90.744672
_cell_angle_beta                  90.091933
_cell_angle_gamma                 60.054349
_cell_volume                      4342.28078166

loop_
_atom_site_label
_atom_site_type_symbol
_atom_type_description
_atom_site_fract_x
_atom_site_fract_y
_atom_site_fract_z
_atom_type_partial_charge
C1    C     C_R   0.620343 0.101264 0.569848 0.543932
C2    C     C_1   0.630608 0.733289 0.616107 -0.014039
C3    C     C_3   0.670925 0.575501 0.767969 -0.089038
C4    C     C_3   0.677595 0.658345 0.804944 0.058454
C5    C     C_3   0.572393 0.678813 0.742056 -0.108635
C6    C     C_3   0.661538 0.687299 0.710438 0.048249
C7    C     C_3   0.579185 0.761285 0.779761 -0.110382
C8    C     C_3   0.668118 0.770319 0.747334 -0.106198
C9    C     C_1   0.686934 0.636436 0.857089 -0.033211
C10   C     C_1   0.648301 0.707437 0.658186 -0.058072
C11   C     C_3   0.112600 0.108089 0.738454 -0.121335
C12   C     C_R   0.599750 0.779364 0.568433 0.543123
C13   C     C_3   0.209226 0.053074 0.776914 -0.118541
C14   C     C_1   0.100851 0.198027 0.901030 0.020055
C15   C     C_1   0.230460 0.137583 0.617186 -0.013372
C16   C     C_3   0.056120 0.219839 0.768828 0.055975
C17   C     C_3   0.151658 0.165299 0.806683 0.065408
C18   C     C_3   0.124552 0.264939 0.741264 -0.116914
C19   C     C_3   0.182139 0.152658 0.711674 0.035836
C20   C     C_3   0.221093 0.209692 0.779564 -0.118192
C21   C     C_3   0.279237 0.097267 0.749135 -0.107012
C22   C     C_1   0.129825 0.178083 0.859073 -0.006668
C23   C     C_R   0.277726 0.121758 0.569332 0.546481
C24   C     C_1   0.203574 0.145825 0.659346 -0.055413
C25   C     C_3   0.684326 0.243950 0.738307 -0.095227
C26   C     C_3   0.582864 0.283092 0.774330 -0.095752
C27   C     C_1   0.690286 0.205568 0.901874 0.006531
C28   C     C_1   0.634772 0.132850 0.618015 -0.013668
C29   C     C_3   0.761478 0.144625 0.772368 -0.085862
C30   C     C_3   0.659896 0.183481 0.807615 0.057578
C31   C     C_3   0.724888 0.066024 0.746168 -0.109823
C32   C     C_3   0.647964 0.165561 0.712846 0.048531
C33   C     C_3   0.623496 0.105012 0.782157 -0.110936
C34   C     C_R   0.621632 0.098288 0.430518 0.550774
C35   C     C_3   0.546218 0.204347 0.747985 -0.104842
C36   C     C_1   0.672310 0.194188 0.859906 -0.037231
C37   C     C_1   0.642048 0.151283 0.660377 -0.058541
C38   C     C_R   0.644583 0.704902 0.386896 0.018317
C39   C     C_R   0.746372 0.686000 0.365188 -0.140933
C40   C     C_R   0.765521 0.657597 0.316065 -0.139239
C41   C     C_R   0.684294 0.644784 0.288833 0.031725
C42   C     C_R   0.592821 0.644493 0.312841 -0.123592
C43   C     C_R   0.572626 0.675031 0.361602 -0.127677
C44   C     C_R   0.588902 0.689859 0.207798 -0.100382
C45   C     C_R   0.602965 0.773740 0.431408 0.535103
C46   C     C_R   0.594183 0.675743 0.157513 -0.111487
C47   C     C_R   0.801508 0.575225 0.161658 -0.116483
C48   C     C_R   0.796271 0.585354 0.211786 -0.123092
C49   C     C_R   0.690032 0.639767 0.235478 0.031595
C50   C     C_R   0.700672 0.615117 0.134378 0.030840
C51   C     C_R   0.235582 0.132406 0.381307 0.027865
C52   C     C_R   0.273703 0.034252 0.351781 -0.120968
C53   C     C_R   0.257531 0.044333 0.301928 -0.106266
C54   C     C_R   0.201123 0.152557 0.281057 0.019203
C55   C     C_R   0.155832 0.250897 0.310776 -0.130016
C56   C     C_R   0.280507 0.119242 0.430530 0.540253
C57   C     C_R   0.174498 0.240909 0.360681 -0.120316
C58   C     C_R   0.208509 0.233682 0.199915 0.035796
C59   C     C_R   0.169125 0.255435 0.151885 -0.090173
C60   C     C_R   0.095071 0.125476 0.159413 -0.133273
C61   C     C_R   0.130665 0.105660 0.207222 -0.132382
C62   C     C_R   0.183048 0.162573 0.228425 0.004084
C63   C     C_R   0.109254 0.204437 0.132161 -0.007495
C64   C     C_R   0.634640 0.124230 0.379750 0.045641
C65   C     C_R   0.581491 0.237984 0.364325 -0.144000
C66   C     C_R   0.571953 0.261613 0.314579 -0.142446
C67   C     C_3   0.759911 0.584428 0.735584 -0.093752
C68   C     C_R   0.595716 0.174165 0.280220 0.044536
C69   C     C_R   0.625118 0.064920 0.297416 -0.024590
C70   C     C_R   0.671198 0.036057 0.344140 -0.022956
C71   C     C_R   0.702998 0.094718 0.202492 -0.089669
C72   C     C_R   0.726019 0.102565 0.153885 0.010617
C73   C     C_R   0.582860 0.304649 0.157188 -0.129744
C74   C     C_R   0.553435 0.292734 0.204540 -0.090900
C75   C     C_R   0.615038 0.188012 0.228126 0.065042
C76   C     C_R   0.671822 0.211105 0.131840 0.025731
C77   C     C_R   0.050799 0.234276 0.948298 0.555201
C78   C     C_3   0.766817 0.666878 0.773381 -0.091525
C79   C     C_R   0.711836 0.562115 0.946536 0.558607
C80   C     C_R   0.722303 0.223815 0.949296 0.564625
C81   C     C_R   0.048355 0.243571 0.086160 0.533870
C82   C     C_R   0.710456 0.570188 0.085070 0.541474
C83   C     C_R   0.718193 0.232171 0.086935 0.564647
C84   C     C_1   0.696559 0.608984 0.898999 0.008060
Cr1   Cr    Cr6+3 0.417550 0.169090 0.500530 1.028005
Cr2   Cr    Cr6+3 0.669180 0.913420 0.499920 1.059158
Cr3   Cr    Cr6+3 0.413260 0.917540 0.499520 1.026558
Cr4   Cr    Cr6+3 0.909770 0.175810 0.018240 1.063049
Cr5   Cr    Cr6+3 0.913300 0.427650 0.016090 1.045768
Cr6   Cr    Cr6+3 0.657770 0.431010 0.016900 1.037843
H1    H     H_    0.266271 0.250715 0.796803 0.107497
H2    H     H_    0.088838 0.352028 0.726259 0.100739
H3    H     H_    0.524332 0.372410 0.786607 0.106695
H4    H     H_    0.708594 0.301039 0.719542 0.095781
H5    H     H_    0.457509 0.228944 0.737240 0.107270
H6    H     H_    0.598438 0.048134 0.800628 0.103562
H7    H     H_    0.783566 0.976691 0.733938 0.105427
H8    H     H_    0.805709 0.703452 0.384853 0.151556
H9    H     H_    0.833915 0.512425 0.716685 0.095908
H10   H     H_    0.515638 0.707430 0.137058 0.128281
H11   H     H_    0.838738 0.655448 0.298947 0.104123
H12   H     H_    0.875681 0.545219 0.231849 0.109702
H13   H     H_    0.885285 0.526881 0.144848 0.146872
H14   H     H_    0.495672 0.684137 0.378210 0.131593
H15   H     H_    0.322769 0.949385 0.366669 0.135835
H16   H     H_    0.111391 0.050416 0.228558 0.117196
H17   H     H_    0.049255 0.084767 0.145007 0.137720
H18   H     H_    0.108450 0.335137 0.295163 0.110843
H19   H     H_    0.552200 0.307400 0.390636 0.120085
H20   H     H_    0.754097 0.013585 0.220198 0.099939
H21   H     H_    0.485131 0.366309 0.223072 0.138545
H22   H     H_    0.505180 0.833964 0.798386 0.102025
H23   H     H_    0.538683 0.388554 0.141160 0.142891
H24   H     H_    0.492606 0.683396 0.728538 0.108962
H25   H     H_    0.671443 0.495432 0.777118 0.129661
H26   H     H_    0.244621 0.966119 0.791995 0.106323
H27   H     H_    0.371986 0.046414 0.740336 0.107751
O1    O     O_R   0.301780 0.195490 0.553940 -0.506486
O2    O     O_R   0.658840 0.818280 0.449970 -0.496287
O3    O     O_R   0.503160 0.801780 0.445740 -0.526068
O4    O     O_R   0.319320 0.022190 0.450230 -0.503289
O5    O     O_3   0.499990 0.000010 0.499990 -0.255460
O6    O     O_R   0.819250 0.149410 0.965240 -0.487890
O7    O     O_R   0.006940 0.180310 0.968270 -0.492731
O8    O     O_R   0.028420 0.332670 0.963010 -0.500586
O9    O     O_R   0.810130 0.520390 0.966030 -0.484368
O10   O     O_R   0.636050 0.541380 0.962520 -0.506733
O11   O     O_R   0.666480 0.323610 0.968170 -0.493907
O12   O     O_R   0.522450 0.158840 0.550250 -0.496065
O13   O     O_R   0.817280 0.156800 0.072180 -0.474040
O14   O     O_R   0.005110 0.187160 0.067410 -0.506706
O15   O     O_R   0.026450 0.340060 0.069950 -0.523535
O16   O     O_R   0.808300 0.527240 0.065170 -0.503393
O17   O     O_R   0.634070 0.548770 0.069460 -0.518235
O18   O     O_R   0.664650 0.330470 0.067300 -0.512259
O19   O     O_3   0.826940 0.344820 0.017080 -0.256790
O20   O     O_R   0.694460 0.003360 0.553820 -0.504483
O21   O     O_R   0.657750 0.819520 0.549120 -0.496195
O22   O     O_R   0.501990 0.803120 0.552700 -0.506222
O23   O     O_R   0.318230 0.023430 0.549370 -0.491690
O24   O     O_R   0.302950 0.194150 0.446980 -0.512258
O25   O     O_R   0.523540 0.157600 0.451100 -0.509463
O26   O     O_R   0.695630 0.002030 0.446860 -0.448900
H28   H     H_    0.846577 0.662236 0.786960 0.111130
C85   C     C_2   0.929814 0.289345 0.777820 0.194215
H29   H     H_    0.872218 0.320821 0.747157 0.075854
O27   O     O_2   0.891127 0.310616 0.819103 -0.516572
H30   H     H_    0.850406 0.119279 0.783018 0.130031
H31   H     H_    0.505596 0.736958 0.225037 0.109825
H32   H     H_    0.532900 0.627545 0.293363 0.100928
C86   C     C_2   0.276282 0.284357 0.219488 0.239093
H33   H     H_    0.320176 0.256666 0.253978 0.138182
O28   O     O_2   0.284858 0.357162 0.197039 -0.531690
H34   H     H_    0.182739 0.313953 0.130135 0.175003
H35   H     H_    0.666941 0.850672 0.738109 0.103650
H36   H     H_    0.291582 0.967693 0.279466 0.115813
H37   H     H_    0.144873 0.317464 0.382860 0.129052
C87   C     C_2   0.805503 0.994318 0.128119 0.255822
H38   H     H_    0.873985 0.924721 0.147954 0.086296
O29   O     O_2   0.790848 0.978914 0.085503 -0.470158
H39   H     H_    0.546111 0.347531 0.303296 0.108867
C88   C     C_2   0.603411 0.983561 0.268404 0.187705
H40   H     H_    0.633232 0.897559 0.280877 0.102922
O30   O     O_2   0.545590 0.013958 0.231581 -0.493246
C89   C     C_2   0.771193 0.919988 0.351118 0.224588
H41   H     H_    0.786040 0.850892 0.326612 0.070435
O31   O     O_2   0.845654 0.902850 0.380595 -0.478800
H42   H     H_    0.067146 0.067393 0.721171 0.100441

loop_
_geom_bond_atom_site_label_1
_geom_bond_atom_site_label_2
_ccdc_geom_bond_type
C44   C49   A    
C58   C62   A    
C66   C68   A    
C89   H41   S    
C5    H24   S    
C73   C74   A    
Cr4   O13   S    
Cr3   O23   S    
Cr4   O7    S    
C2    C12   S    
C29   H30   S    
C85   H29   S    
C72   C87   S    
C7    C8    S    
Cr5   O8    S    
C53   C54   A    
C52   C53   A    
C68   C75   S    
C11   C19   S    
C88   H40   S    
Cr5   O15   S    
C63   C81   S    
C60   C63   A    
C19   C21   S    
C18   C19   S    
C1    O12   A    
C69   C70   A    
C4    C7    S    
C79   C84   S    
Cr6   O17   S    
C81   O14   A    
C71   H20   S    
C17   C20   S    
C73   H23   S    
C7    H22   S    
C51   C56   S    
C41   C42   A    
C14   C77   S    
C8    H35   S    
C43   H14   S    
C38   C45   S    
C21   H27   S    
Cr2   O20   S    
Cr1   O12   S    
C40   H11   S    
C87   O29   D    
C31   C32   S    
C16   C17   S    
Cr2   O5    S    
C1    C28   S    
C86   H33   S    
C31   C33   S    
Cr2   O2    S    
C51   C57   A    
C64   C70   A    
C83   O18   A    
C67   H9    S    
C45   O2    A    
C26   H3    S    
C15   C23   S    
C77   O8    A    
C25   H4    S    
C89   O31   D    
Cr5   O19   S    
C86   O28   D    
C8    C78   S    
Cr1   O1    S    
C67   C78   S    
C23   O1    A    
Cr4   O6    S    
C76   C83   S    
C41   C49   S    
C85   O27   D    
C59   H34   S    
C44   C46   A    
Cr2   O26   S    
C47   C50   A    
C88   O30   D    
Cr5   O9    S    
C25   C29   S    
C38   C39   A    
C20   H1    S    
C34   O26   A    
Cr5   O16   S    
C74   C75   A    
C51   C52   A    
C32   C35   S    
C23   O23   A    
C47   H13   S    
C69   C88   S    
Cr4   O19   S    
C83   O13   A    
C27   C80   S    
C70   C89   S    
Cr1   O24   S    
C74   H21   S    
C5    C7    S    
C68   C69   A    
C81   O15   A    
C6    C8    S    
C80   O11   A    
C3    C5    S    
C58   C59   A    
C66   H39   S    
C16   C85   S    
C82   O17   A    
C30   C36   S    
C4    C78   S    
C29   C30   S    
C78   H28   S    
Cr6   O19   S    
C11   C16   S    
C47   C48   A    
Cr6   O10   S    
C48   H12   S    
C34   C64   S    
C12   O22   A    
C13   C21   S    
Cr1   O5    S    
C15   C24   T    
C32   C37   S    
C61   H16   S    
C65   H19   S    
C60   H17   S    
C56   O24   A    
C45   O3    A    
C40   C41   A    
C79   O9    A    
C52   H15   S    
C26   C30   S    
C55   C57   A    
C87   H38   S    
C73   C76   A    
C12   O21   A    
C42   C43   A    
C3    C4    S    
C2    C10   T    
C33   H6    S    
C39   C40   A    
C1    O20   A    
C58   C86   S    
C50   C82   S    
Cr3   O4    S    
C11   H42   S    
C46   H10   S    
C54   C55   A    
C34   O25   A    
C30   C33   S    
C59   C63   A    
C3    C67   S    
C17   C22   S    
Cr3   O22   S    
C39   H8    S    
Cr1   O25   S    
C6    C10   S    
Cr3   O5    S    
C35   H5    S    
C27   C36   T    
C54   C62   S    
C46   C50   A    
C57   H37   S    
C44   H31   S    
C13   C17   S    
C55   H18   S    
C18   H2    S    
C64   C65   A    
C14   C22   T    
C82   O16   A    
C19   C24   S    
C25   C26   S    
C79   O10   A    
C38   C43   A    
C29   C31   S    
C77   O7    A    
C6    C67   S    
C56   O4    A    
C71   C75   A    
Cr6   O18   S    
C11   C13   S    
C5    C6    S    
C28   C37   T    
C25   C32   S    
C72   C76   A    
C48   C49   A    
C33   C35   S    
C18   C20   S    
C31   H7    S    
C61   C62   A    
C42   H32   S    
C13   H26   S    
Cr2   O21   S    
C9    C84   T    
C26   C35   S    
Cr3   O3    S    
C71   C72   A    
C20   C21   S    
C53   H36   S    
C16   C18   S    
C65   C66   A    
Cr6   O11   S    
C60   C61   A    
C3    H25   S    
Cr4   O14   S    
C4    C9    S    
C80   O6    A    
