data_mof_unit_67720.cif
_audit_creation_date              2012-12-10T19:48:34-0500
_audit_creation_method            fapswitch 2.2
_symmetry_space_group_name_H-M    P1
_symmetry_Int_Tables_number       1
_space_group_crystal_system       triclinic
_cell_length_a                    13.124882
_cell_length_b                    12.898965
_cell_length_c                    6.128265
_cell_angle_alpha                 81.556166
_cell_angle_beta                  99.815927
_cell_angle_gamma                 60.757779
_cell_volume                      859.485596037

loop_
_atom_site_label
_atom_site_type_symbol
_atom_type_description
_atom_site_fract_x
_atom_site_fract_y
_atom_site_fract_z
_atom_type_partial_charge
C1    C     C_R   0.542166 0.214959 0.538156 0.672494
C2    C     C_3   0.392799 0.107225 0.415094 -0.038357
C3    C     C_3   0.486711 0.898093 0.481674 0.025985
C4    C     C_3   0.513310 0.101898 0.518319 0.025988
C5    C     C_3   0.425101 0.997332 0.616996 -0.120257
C6    C     C_3   0.574919 0.002661 0.382991 -0.120227
C7    C     C_3   0.479927 0.596541 0.116816 0.176123
C8    C     C_3   0.520072 0.403460 0.883181 0.176133
C9    C     C_3   0.392184 0.608492 0.470824 0.330594
C10   C     C_3   0.607815 0.391509 0.529173 0.330602
C11   C     C_3   0.591271 0.492196 0.883812 0.393925
C12   C     C_R   0.457844 0.785039 0.461846 0.672536
C13   C     C_3   0.408727 0.507804 0.116185 0.393912
C14   C     C_R   0.219739 0.540055 0.459561 0.682031
C15   C     C_R   0.780253 0.459972 0.540432 0.682109
C16   C     C_R   0.943665 0.899049 0.010937 -0.239737
C17   C     C_R   0.056318 0.100982 0.989066 -0.239725
C18   C     C_R   0.925880 0.824113 0.171183 0.025184
C19   C     C_R   0.074110 0.175921 0.828839 0.025168
C20   C     C_R   0.965882 0.701372 0.160205 -0.021561
C21   C     C_R   0.034107 0.298661 0.839829 -0.021535
C22   C     C_R   0.015908 0.661316 0.982180 -0.125619
C23   C     C_R   0.889152 0.490107 0.531652 -0.096436
C24   C     C_R   0.984079 0.338711 0.017855 -0.125585
C25   C     C_R   0.044876 0.732128 0.842604 0.006009
C26   C     C_R   0.955110 0.267892 0.157407 0.005979
C27   C     C_R   0.008643 0.851046 0.856742 -0.120555
C28   C     C_R   0.991342 0.148979 0.143261 -0.120571
C29   C     C_R   0.880538 0.594878 0.387974 -0.067981
C30   C     C_R   0.119455 0.405147 0.612021 -0.067921
C31   C     C_2   0.373095 0.721829 0.940407 0.759232
C32   C     C_2   0.626902 0.278172 0.059585 0.759228
C33   C     C_2   0.869184 0.876453 0.347344 0.777151
C34   C     C_R   0.110836 0.509927 0.468361 -0.096398
C35   C     C_2   0.130817 0.123584 0.652670 0.777162
C36   C     C_R   0.015002 0.397179 0.648768 0.011161
C37   C     C_R   0.984985 0.602860 0.351264 0.011202
C38   C     C_3   0.546220 0.990116 0.719232 -0.231143
C39   C     C_3   0.453800 0.009875 0.280757 -0.231137
C40   C     C_3   0.607224 0.892767 0.584895 -0.038365
Cu1   Cu    Cu3+1 0.500030 0.499990 0.643150 0.855571
Cu2   Cu    Cu3+1 0.499970 0.500010 0.356850 0.855565
H1    H     H_    0.026897 0.907676 0.741463 0.211991
H2    H     H_    0.908560 0.303420 0.283023 0.147015
H3    H     H_    0.790724 0.673315 0.298556 0.187807
H4    H     H_    0.209281 0.326639 0.701311 0.187842
H5    H     H_    0.697562 0.807274 0.662948 0.208447
H6    H     H_    0.302474 0.192732 0.337052 0.208435
H7    H     H_    0.584453 0.975099 0.904453 0.146113
H8    H     H_    0.415567 0.024891 0.095537 0.146111
H9    H     H_    0.364914 0.004699 0.724988 0.206514
H10   H     H_    0.635108 0.995287 0.275001 0.206508
H11   H     H_    0.464296 0.807451 0.000940 0.309401
H12   H     H_    0.973087 0.092346 0.258527 0.212006
H13   H     H_    0.535689 0.192560 0.999047 0.309414
H14   H     H_    0.803603 0.019915 0.488832 0.340595
H15   H     H_    0.196379 0.980127 0.511175 0.340615
H16   H     H_    0.303698 0.696805 0.440246 0.006285
H17   H     H_    0.696302 0.303196 0.559750 0.006279
H18   H     H_    0.909771 0.994339 0.008035 0.186964
H19   H     H_    0.090217 0.005693 0.991955 0.186972
H20   H     H_    0.041110 0.570445 0.963791 0.162657
H21   H     H_    0.958868 0.429583 0.036237 0.162648
H22   H     H_    0.091420 0.696595 0.716980 0.147014
I1    I     I_    0.699930 0.590764 0.971772 -0.409953
I2    I     I_    0.300057 0.409244 0.028229 -0.409910
N1    N     N_3   0.500090 0.499970 0.858290 -0.447099
N2    N     N_3   0.499910 0.500030 0.141710 -0.447101
O1    O     O_R   0.500060 0.316850 0.620870 -0.550105
O2    O     O_R   0.381250 0.825903 0.918733 -0.759360
O3    O     O_2   0.719993 0.267810 0.168057 -0.633779
O4    O     O_R   0.618736 0.174103 0.081261 -0.759381
O5    O     O_2   0.841480 0.819695 0.476189 -0.655232
O6    O     O_R   0.846236 0.992105 0.366619 -0.741446
O7    O     O_2   0.158535 0.180332 0.523846 -0.655258
O8    O     O_R   0.153767 0.007931 0.633401 -0.741456
O9    O     O_R   0.499940 0.683150 0.379130 -0.550116
O10   O     O_R   0.500000 0.316860 0.379090 -0.529354
O11   O     O_R   0.500000 0.683140 0.620910 -0.529360
O12   O     O_R   0.319670 0.500010 0.620890 -0.518377
O13   O     O_R   0.680330 0.499990 0.379110 -0.518408
O14   O     O_R   0.319620 0.500010 0.379110 -0.523033
O15   O     O_R   0.680380 0.499990 0.620890 -0.523053
O16   O     O_2   0.280013 0.732184 0.831912 -0.633784

loop_
_geom_bond_atom_site_label_1
_geom_bond_atom_site_label_2
_ccdc_geom_bond_type
C40   H5    S    
C8    C13   S    
C34   C37   A    
Cu1   Cu2   S    
Cu2   O14   S    
Cu1   O12   S    
C26   H2    S    
C32   O4    S    
C38   H7    S    
C7    C11   S    
C35   O7    D    
C23   C29   A    
H15   O8    S    
C19   C21   A    
C24   C26   A    
Cu1   O15   S    
C12   O11   A    
C9    H16   S    
C16   H18   S    
C9    C13   S    
C3    C12   S    
C17   H19   S    
C7    N2    S    
C2    C39   S    
C31   O2    S    
C22   C25   A    
C14   O12   A    
H13   O4    S    
C16   C27   A    
C15   C23   S    
C3    C39   S    
C5    C38   S    
Cu2   N2    S    
C1    O10   A    
Cu2   O13   S    
H11   O2    S    
C11   N1    S    
C32   O3    D    
C13   I2    S    
C35   O8    S    
H14   O6    S    
C30   C34   A    
C8    C32   S    
C7    C31   S    
Cu1   N1    S    
C15   O13   A    
C21   C36   S    
C28   H12   S    
C15   O15   A    
C2    H6    S    
C1    O1    A    
C31   O16   D    
C29   H3    S    
C25   H22   S    
C2    C4    S    
C9    N1    S    
Cu1   O11   S    
C22   H20   S    
C12   O9    A    
C16   C18   A    
C8    N1    S    
C33   O5    D    
C20   C22   A    
C3    C40   S    
Cu2   O10   S    
C24   H21   S    
C6    C40   S    
C4    C6    S    
C14   O14   A    
Cu1   O1    S    
C7    C9    S    
C17   C28   A    
C30   H4    S    
C4    C38   S    
C3    C5    S    
C14   C34   S    
C10   N2    S    
C25   C27   A    
C26   C28   A    
C30   C36   A    
C1    C4    S    
C10   H17   S    
C19   C35   S    
C38   C40   S    
C20   C37   S    
C17   C19   A    
C18   C20   A    
C18   C33   S    
C10   C11   S    
C2    C5    S    
C27   H1    S    
C33   O6    S    
C39   H8    S    
Cu2   O9    S    
C8    C10   S    
C23   C36   A    
C21   C24   A    
C29   C37   A    
C6    C39   S    
C5    H9    S    
C6    H10   S    
C11   I1    S    
C13   N2    S    
