data_mof_unit_54396.cif
_audit_creation_date              2012-12-11T19:05:44-0500
_audit_creation_method            fapswitch 2.2
_symmetry_space_group_name_H-M    P1
_symmetry_Int_Tables_number       1
_space_group_crystal_system       triclinic
_cell_length_a                    8.209683
_cell_length_b                    15.015836
_cell_length_c                    22.884995
_cell_angle_alpha                 98.491912
_cell_angle_beta                  89.427295
_cell_angle_gamma                 98.620874
_cell_volume                      2758.48745731

loop_
_atom_site_label
_atom_site_type_symbol
_atom_type_description
_atom_site_fract_x
_atom_site_fract_y
_atom_site_fract_z
_atom_type_partial_charge
Ba1   Ba    Ba6+2 0.856840 0.543240 0.473380 1.640615
Ba2   Ba    Ba6+2 0.332990 0.456840 0.526630 1.637204
C1    C     C_3   0.705825 0.877508 0.329387 -0.366906
C2    C     C_R   0.112058 0.572353 0.940592 -0.018012
C3    C     C_R   0.063784 0.565501 0.880025 0.620027
C4    C     C_3   0.135210 0.732996 0.316666 0.321760
C5    C     C_R   0.952285 0.407960 0.878095 0.571693
C6    C     C_R   0.997129 0.412309 0.937973 -0.011961
C7    C     C_R   0.077299 0.494586 0.969429 -0.088389
C8    C     C_R   0.193365 0.654404 0.973550 0.150961
C9    C     C_R   0.236919 0.657386 0.033166 -0.104213
C10   C     C_R   0.202160 0.580354 0.062004 -0.035436
C11   C     C_R   0.122200 0.498733 0.030065 -0.053198
C12   C     C_3   0.671112 0.783344 0.347875 0.355621
C13   C     C_R   0.963405 0.335213 0.967025 -0.065601
C14   C     C_R   0.008156 0.339392 0.026152 -0.076629
C15   C     C_R   0.087702 0.420910 0.058523 -0.020105
C16   C     C_3   0.110544 0.755901 0.255163 -0.310967
C17   C     C_R   0.134119 0.425855 0.118562 0.591152
C18   C     C_R   0.245800 0.583639 0.122177 0.581250
C19   C     C_2   0.789992 0.433573 0.765851 -0.103678
C20   C     C_3   0.757935 0.411799 0.700102 -0.054778
C21   C     C_1   0.004814 0.519258 0.686411 0.028670
C22   C     C_2   0.055794 0.518116 0.741772 -0.116614
C23   C     C_3   0.476211 0.324529 0.345297 0.293482
C24   C     C_2   0.939971 0.477313 0.786290 0.193634
C25   C     C_R   0.415221 0.551491 0.233609 -0.096825
C26   C     C_R   0.457665 0.558921 0.293496 -0.017436
C27   C     C_R   0.188238 0.481003 0.314114 0.029827
C28   C     C_3   0.231510 0.735518 0.601733 0.308205
C29   C     C_R   0.142555 0.475342 0.254085 -0.099149
C30   C     C_R   0.255316 0.511742 0.212910 0.197286
C31   C     C_2   0.856750 0.479789 0.666616 -0.270816
C32   C     C_R   0.348689 0.822990 0.458123 -0.006593
C33   C     C_R   0.580793 0.789557 0.510753 0.077783
C34   C     C_3   0.459714 0.299730 0.278536 -0.361498
C35   C     C_R   0.758983 0.229129 0.516675 -0.292214
C36   C     C_R   0.851525 0.170261 0.537616 0.016035
C37   C     C_R   0.793218 0.076849 0.530741 -0.148017
C38   C     C_R   0.640647 0.040742 0.501264 0.013878
C39   C     C_R   0.553954 0.101757 0.476262 -0.016051
C40   C     C_3   0.264442 0.838464 0.619262 -0.381391
C41   C     C_R   0.572934 0.946209 0.494415 0.001345
C42   C     C_R   0.419722 0.915495 0.463592 -0.021435
C43   C     C_R   0.340528 0.977519 0.438938 -0.101303
C44   C     C_R   0.407461 0.068116 0.444251 -0.052956
C45   C     C_3   0.055934 0.260200 0.681513 0.316427
C46   C     C_R   0.649238 0.881447 0.518737 -0.135354
C47   C     C_R   0.434034 0.760394 0.479196 -0.299982
C48   C     C_R   0.616015 0.195536 0.483674 0.021346
C49   C     C_3   0.965838 0.262924 0.397278 0.311422
C50   C     C_3   0.944401 0.160040 0.379376 -0.385365
C51   C     C_3   0.701890 0.676238 0.658468 0.256993
C52   C     C_3   0.666236 0.709198 0.723387 -0.127868
C53   C     C_3   0.071037 0.232530 0.742650 -0.069110
C54   C     C_3   0.511212 0.212397 0.652855 0.351733
C55   C     C_3   0.460647 0.119014 0.671305 -0.373155
C56   C     C_R   0.343485 0.525513 0.333303 -0.302447
H1    H     H_    0.738239 0.785540 0.390124 0.083282
H2    H     H_    0.832804 0.666667 0.653678 0.010018
H3    H     H_    0.840181 0.896969 0.323403 0.141113
H4    H     H_    0.732218 0.779539 0.736495 0.135907
H5    H     H_    0.536383 0.766927 0.354568 -0.057084
H6    H     H_    0.662816 0.928423 0.363978 0.072844
H7    H     H_    0.573998 0.384470 0.355442 0.061047
H8    H     H_    0.360200 0.241019 0.267064 0.138682
H9    H     H_    0.428976 0.358329 0.258758 0.070792
H10   H     H_    0.577634 0.281435 0.259768 0.131243
H11   H     H_    0.640086 0.877870 0.287266 0.126345
H12   H     H_    0.358637 0.856895 0.655238 0.127673
H13   H     H_    0.147200 0.322107 0.679013 0.084032
H14   H     H_    0.930341 0.276288 0.675503 -0.060995
H15   H     H_    0.084064 0.294412 0.776204 0.117062
H16   H     H_    0.184152 0.201059 0.745601 0.142127
H17   H     H_    0.648138 0.225645 0.652679 -0.067464
H18   H     H_    0.463044 0.210452 0.607390 0.080341
H19   H     H_    0.324649 0.100414 0.669426 0.152150
H20   H     H_    0.049486 0.670129 0.321474 0.100792
H21   H     H_    0.979708 0.278272 0.046499 0.125027
H22   H     H_    0.902131 0.270851 0.944016 0.129904
H23   H     H_    0.310001 0.871945 0.581013 0.062485
H24   H     H_    0.298726 0.721128 0.056884 0.122184
H25   H     H_    0.507033 0.576267 0.203241 0.117395
H26   H     H_    0.180730 0.548005 0.755324 0.135427
H27   H     H_    0.698087 0.406270 0.795497 0.125543
H28   H     H_    0.020318 0.442458 0.239610 0.128080
H29   H     H_    0.378754 0.530240 0.379214 0.083325
H30   H     H_    0.264154 0.720402 0.321107 -0.043320
H31   H     H_    0.812648 0.487300 0.623313 0.072597
H32   H     H_    0.380033 0.689424 0.474890 0.074570
H33   H     H_    0.225646 0.957241 0.414718 0.111798
H34   H     H_    0.148958 0.864004 0.634762 0.129934
H35   H     H_    0.759786 0.900266 0.545393 0.088959
H36   H     H_    0.805464 0.301263 0.522097 0.067158
H37   H     H_    0.871293 0.034651 0.547572 0.082896
H38   H     H_    0.339691 0.111315 0.423361 0.101692
H39   H     H_    0.995992 0.786204 0.252819 0.150054
H40   H     H_    0.216682 0.805079 0.243686 0.122721
H41   H     H_    0.348027 0.710768 0.588251 0.005857
H42   H     H_    0.142287 0.719061 0.564220 0.071891
H43   H     H_    0.619872 0.611177 0.643428 0.058128
H44   H     H_    0.657020 0.584873 0.750356 0.189606
H45   H     H_    0.846247 0.283607 0.410671 0.000566
H46   H     H_    0.844033 0.651070 0.759203 0.199054
H47   H     H_    0.531985 0.711461 0.728466 0.133560
H48   H     H_    0.357004 0.342123 0.362904 0.020411
H49   H     H_    0.098962 0.692770 0.222694 0.120533
H50   H     H_    0.915546 0.111178 0.723312 0.193304
H51   H     H_    0.821926 0.199080 0.754205 0.207520
H52   H     H_    0.515485 0.067082 0.640871 0.071013
H53   H     H_    0.505129 0.119135 0.716989 0.120852
H54   H     H_    0.360933 0.755817 0.950491 0.180890
H55   H     H_    0.176701 0.786776 0.971273 0.180207
H56   H     H_    0.054471 0.282059 0.434846 0.071862
H57   H     H_    0.850008 0.138656 0.343621 0.131317
H58   H     H_    0.904596 0.124876 0.417468 0.063744
H59   H     H_    0.063187 0.139094 0.363426 0.121018
N1    N     N_R   0.986614 0.483697 0.849013 -0.429049
N2    N     N_R   0.209932 0.507152 0.150509 -0.423262
N3    N     N_3   0.717173 0.651003 0.763195 -0.489520
N4    N     N_3   0.927878 0.168517 0.755925 -0.463633
N5    N     N_3   0.233446 0.735523 0.947023 -0.426752
O1    O     O_2   0.889550 0.449620 0.359410 -0.459866
O2    O     O_2   0.189502 0.175133 0.530689 -0.482100
O3    O     O_3   0.088498 0.188689 0.638483 -0.609722
O4    O     O_3   0.130120 0.450560 0.430480 -0.494634
O5    O     O_3   0.576410 0.610420 0.531990 -0.488607
O6    O     O_2   0.341630 0.276020 0.466390 -0.465775
O7    O     O_3   0.517279 0.249772 0.369034 -0.644369
O8    O     O_2   0.428621 0.454424 0.708451 -0.503864
O9    O     O_3   0.445791 0.278895 0.692337 -0.601936
O10   O     O_2   0.087734 0.632848 0.855261 -0.559937
O11   O     O_2   0.882807 0.335824 0.851801 -0.609963
O12   O     O_3   0.672392 0.745104 0.626888 -0.648535
O13   O     O_2   0.109449 0.357090 0.141986 -0.596695
O14   O     O_2   0.315350 0.655170 0.149317 -0.614796
O15   O     O_3   0.674100 0.616440 0.398760 -0.487540
O16   O     O_2   0.794960 0.553673 0.294413 -0.499295
O17   O     O_3   0.022539 0.303930 0.348528 -0.626700
O18   O     O_3   0.725804 0.719444 0.303754 -0.598121
O19   O     O_2   0.848070 0.724010 0.533650 -0.461775
O20   O     O_3   0.092910 0.663610 0.428710 -0.492374
O21   O     O_2   0.010528 0.825692 0.468986 -0.487211
O22   O     O_3   0.100931 0.805539 0.358719 -0.611526
O23   O     O_2   0.300150 0.550410 0.640630 -0.463014
O24   O     O_3   0.059590 0.549510 0.569530 -0.492831
O25   O     O_3   0.515610 0.383640 0.601250 -0.469316
O26   O     O_3   0.168830 0.696305 0.650563 -0.627950
O27   O     O_3   0.613300 0.389650 0.468010 -0.476614
O28   O     O_3   0.096810 0.336470 0.571300 -0.489743
P1    P     P_3+3 0.056010 0.422560 0.367570 0.993433
P2    P     P_3+3 0.670430 0.710550 0.550450 0.985031
P3    P     P_3+3 0.137929 0.780551 0.429245 0.932294
P4    P     P_3+3 0.133710 0.577520 0.632440 0.989540
P5    P     P_3+3 0.056721 0.217697 0.568808 0.947595
P6    P     P_3+3 0.663518 0.610376 0.321940 0.949497
P7    P     P_3+3 0.524765 0.276313 0.446121 0.938674
P8    P     P_3+3 0.536298 0.385950 0.677102 0.938394

loop_
_geom_bond_atom_site_label_1
_geom_bond_atom_site_label_2
_ccdc_geom_bond_type
Ba2   O28   S    
C19   C24   D    
C53   N4    S    
C54   H18   S    
C52   N3    S    
C47   H32   S    
C23   O7    S    
C56   H29   S    
O7    P7    S    
C34   H9    S    
Ba1   O15   S    
C5    C6    A    
C43   C44   A    
C54   C55   S    
Ba2   O23   S    
C12   H1    S    
C1    H11   S    
C22   C24   S    
C5    O11   D    
C36   C37   A    
C34   H8    S    
O21   P3    D    
C49   H45   S    
C13   C14   A    
C48   P7    S    
C28   H42   S    
C40   H12   S    
C4    H30   S    
O6    P7    D    
Ba1   P2    S    
Ba1   Ba2   S    
O22   P3    S    
C7    C11   A    
C16   H49   S    
Ba1   O20   S    
C53   H16   S    
C3    O10   D    
H55   N5    S    
C29   C30   A    
C51   H43   S    
C6    C7    A    
C21   C31   D    
C33   C47   A    
C21   C22   D    
Ba1   O27   S    
C16   H39   S    
C41   C46   A    
H50   N4    S    
C50   H59   S    
Ba2   O27   S    
C1    H3    S    
C17   N2    Am   
Ba2   P4    S    
C54   H17   S    
C19   C20   S    
C5    N1    Am   
Ba1   O24   S    
C40   H23   S    
O26   P4    S    
C36   P5    S    
C33   C46   A    
C51   H2    S    
C23   H48   S    
C45   O3    S    
C19   H27   S    
C50   H58   S    
C9    H24   S    
C4    C16   S    
O1    P1    D    
C49   H56   S    
C46   H35   S    
C49   C50   S    
C55   H19   S    
C32   C42   A    
Ba1   O4    S    
C37   C38   A    
C14   C15   A    
C20   P8    S    
Ba2   O25   S    
C51   C52   S    
C52   H4    S    
C28   H41   S    
C26   P6    S    
O15   P6    S    
O9    P8    S    
C41   C42   A    
Ba1   O1    S    
H54   N5    S    
C35   C36   A    
C31   H31   S    
O5    P2    S    
C27   P1    S    
O4    P1    S    
C13   H22   S    
O24   P4    S    
C39   C44   A    
C4    O22   S    
O12   P2    S    
C10   C18   A    
C23   H7    S    
C18   O14   D    
C45   H13   S    
C1    C12   S    
O18   P6    S    
O23   P4    D    
Ba2   O4    S    
C38   C39   A    
C12   O18   S    
C6    C13   A    
O28   P5    S    
C21   P4    S    
C33   P2    S    
C30   N2    S    
C2    C8    A    
C39   C48   A    
H44   N3    S    
C42   C43   A    
C45   C53   S    
C50   H57   S    
O16   P6    D    
C20   C31   S    
C32   C47   A    
C52   H47   S    
C25   C30   A    
C51   O12   S    
Ba1   O5    S    
C2    C3    A    
C8    N5    S    
C9    C10   A    
C34   H10   S    
C55   H52   S    
C28   O26   S    
C26   C56   A    
C1    H6    S    
Ba2   O24   S    
C24   N1    S    
C11   C15   A    
C3    N1    Am   
O8    P8    D    
C14   H21   S    
C38   C41   A    
C25   H25   S    
C37   H37   S    
C27   C29   A    
Ba2   O5    S    
C35   C48   A    
H51   N4    S    
Ba1   O19   S    
C55   H53   S    
O27   P7    S    
C12   H5    S    
O17   P1    S    
C15   C17   A    
C35   H36   S    
Ba1   P1    S    
C40   H34   S    
O20   P3    S    
C22   H26   S    
C43   H33   S    
C45   H14   S    
C32   P3    S    
C54   O9    S    
C4    H20   S    
C8    C9    A    
C23   C34   S    
C53   H15   S    
C44   H38   S    
C27   C56   A    
O2    P5    D    
C25   C26   A    
C29   H28   S    
C28   C40   S    
C16   H40   S    
C10   C11   A    
C2    C7    A    
O25   P8    S    
C17   O13   D    
C18   N2    Am   
O3    P5    S    
O19   P2    D    
Ba2   O6    S    
H46   N3    S    
C49   O17   S    
