data_mof_unit_59219.cif
_audit_creation_date              2012-12-11T15:15:40-0500
_audit_creation_method            fapswitch 2.2
_symmetry_space_group_name_H-M    P1
_symmetry_Int_Tables_number       1
_space_group_crystal_system       triclinic
_cell_length_a                    20.634009
_cell_length_b                    22.768958
_cell_length_c                    6.931276
_cell_angle_alpha                 89.999542
_cell_angle_beta                  87.421507
_cell_angle_gamma                 90.000054
_cell_volume                      3253.11959865

loop_
_atom_site_label
_atom_site_type_symbol
_atom_type_description
_atom_site_fract_x
_atom_site_fract_y
_atom_site_fract_z
_atom_type_partial_charge
O1    O     O_R   0.387100 0.552640 0.378490 -0.539178
O2    O     O_R   0.612900 0.052640 0.621510 -0.539178
O3    O     O_R   0.249610 0.559600 0.072250 -0.548404
O4    O     O_R   0.750390 0.059600 0.927750 -0.548395
O5    O     O_R   0.249120 0.447360 0.902040 -0.534323
O6    O     O_R   0.750880 0.947360 0.097960 -0.534311
C1    C     C_R   0.225640 0.572134 0.242944 0.714588
C2    C     C_R   0.774358 0.072137 0.757055 0.714564
O7    O     O_R   0.386610 0.559560 0.048860 -0.538844
O8    O     O_R   0.613390 0.059560 0.951140 -0.538845
O9    O     O_R   0.387100 0.447320 0.878470 -0.537697
O10   O     O_R   0.612900 0.947320 0.121530 -0.537697
C3    C     C_R   0.407768 0.574899 0.214844 0.682203
C4    C     C_R   0.592232 0.074899 0.785154 0.682200
O11   O     O_R   0.249120 0.552680 0.402050 -0.542441
O12   O     O_R   0.750880 0.052680 0.597950 -0.542436
O13   O     O_3   0.318110 0.463180 0.223790 -0.351532
O14   O     O_3   0.681890 0.963180 0.776210 -0.351532
V1    V     V_3+5 0.318110 0.506830 0.948930 1.440400
V2    V     V_3+5 0.681890 0.006830 0.051070 1.440409
O15   O     O_R   0.386610 0.440400 0.548840 -0.540046
O16   O     O_R   0.613390 0.940400 0.451160 -0.540048
C5    C     C_R   0.407782 0.425044 0.714779 0.696505
C6    C     C_R   0.592218 0.925044 0.285222 0.696502
O17   O     O_R   0.249610 0.440440 0.572240 -0.510301
O18   O     O_R   0.750390 0.940440 0.427760 -0.510301
C7    C     C_R   0.225871 0.427798 0.743120 0.719711
C8    C     C_R   0.774127 0.927797 0.256881 0.719714
V3    V     V_3+5 0.318110 0.493170 0.448930 1.478728
V4    V     V_3+5 0.681890 0.993170 0.551070 1.478730
O19   O     O_3   0.318110 0.536820 0.723940 -0.380881
O20   O     O_3   0.681890 0.036820 0.276060 -0.380880
C9    C     C_R   0.170044 0.386907 0.758354 -0.120007
C10   C     C_R   0.829951 0.886902 0.241647 -0.120016
C11   C     C_R   0.120998 0.385756 0.621196 -0.009090
C12   C     C_R   0.878996 0.885745 0.378807 -0.009084
C13   C     C_R   0.067526 0.348816 0.651504 -0.238989
C14   C     C_R   0.932464 0.848799 0.348497 -0.238993
C15   C     C_R   0.061826 0.311609 0.812584 0.135302
C16   C     C_R   0.938162 0.811596 0.187408 0.135318
C17   C     C_R   0.109816 0.313398 0.952256 0.168596
C18   C     C_R   0.890176 0.813395 0.047727 0.168587
C19   C     C_R   0.163424 0.350698 0.922007 -0.182656
C20   C     C_R   0.836569 0.850697 0.077987 -0.182663
C21   C     C_R   0.922845 0.164034 0.871066 -0.155991
C22   C     C_R   0.077144 0.664019 0.128927 -0.155988
C23   C     C_R   0.874078 0.121348 0.893026 0.129807
C24   C     C_R   0.125915 0.621337 0.106972 0.129807
C25   C     C_R   0.836863 0.149010 0.575950 -0.225546
C26   C     C_R   0.163129 0.649003 0.424043 -0.225558
C27   C     C_R   0.886221 0.190699 0.556830 -0.152779
C28   C     C_R   0.113768 0.690689 0.443159 -0.152777
C29   C     C_R   0.928588 0.199414 0.705855 0.137852
C30   C     C_R   0.071401 0.699401 0.294135 0.137848
C31   C     C_2   0.005337 0.271621 0.834102 -0.181488
C32   C     C_2   0.994647 0.771604 0.165886 -0.181465
C33   C     C_2   0.980834 0.243591 0.682575 -0.195863
C34   C     C_2   0.019151 0.743575 0.317412 -0.195857
C35   C     C_R   0.829237 0.114280 0.743470 -0.069251
C36   C     C_R   0.170758 0.614273 0.256526 -0.069236
H1    H     H_    0.803826 0.144590 0.459741 0.128373
H2    H     H_    0.196167 0.644585 0.540253 0.128377
H3    H     H_    0.000049 0.252426 0.537048 0.128116
H4    H     H_    0.999938 0.752410 0.462939 0.128118
H5    H     H_    0.958071 0.168206 0.981370 0.104726
H6    H     H_    0.041916 0.668187 0.018628 0.104713
H7    H     H_    0.200839 0.351179 0.026814 0.162330
H8    H     H_    0.799155 0.851184 0.973177 0.162345
H9    H     H_    0.985008 0.263276 0.978316 0.127270
H10   H     H_    0.014975 0.763257 0.021672 0.127258
H11   H     H_    0.029595 0.349537 0.548236 0.116097
H12   H     H_    0.970394 0.849515 0.451768 0.116090
H13   H     H_    0.890738 0.216853 0.426302 0.111030
H14   H     H_    0.109250 0.716844 0.573684 0.111032
C37   C     C_R   0.577602 0.363177 0.661162 -0.006362
C38   C     C_R   0.422401 0.863173 0.338896 -0.006355
H15   H     H_    0.532351 0.448532 0.643932 0.147763
H16   H     H_    0.467651 0.948528 0.356121 0.147759
H17   H     H_    0.668970 0.276387 0.676276 0.114776
H18   H     H_    0.331033 0.776382 0.323821 0.114777
C39   C     C_R   0.461984 0.382341 0.714389 -0.082711
C40   C     C_R   0.538016 0.882341 0.285618 -0.082713
C41   C     C_R   0.475186 0.095833 0.817879 -0.148661
C42   C     C_R   0.524813 0.595835 0.182073 -0.148659
C43   C     C_R   0.422016 0.133361 0.822645 -0.100508
C44   C     C_R   0.577982 0.633365 0.177289 -0.100511
C45   C     C_R   0.430211 0.193629 0.795629 -0.165404
C46   C     C_R   0.569787 0.693631 0.204323 -0.165404
C47   C     C_R   0.492651 0.218460 0.762800 0.087440
C48   C     C_R   0.507348 0.718460 0.237192 0.087441
C49   C     C_R   0.547124 0.179333 0.756765 0.070304
C50   C     C_R   0.452877 0.679332 0.243248 0.070306
C51   C     C_R   0.502616 0.280599 0.735067 0.080570
C52   C     C_R   0.497384 0.780598 0.264941 0.080568
C53   C     C_R   0.566960 0.302082 0.695977 0.050902
C54   C     C_R   0.433042 0.802079 0.304068 0.050901
C55   C     C_R   0.619234 0.262210 0.695835 -0.204490
C56   C     C_R   0.380769 0.762207 0.304232 -0.204491
C57   C     C_R   0.609526 0.202448 0.725003 -0.180306
C58   C     C_R   0.390476 0.702446 0.275048 -0.180307
C59   C     C_R   0.450847 0.322168 0.745089 -0.213062
C60   C     C_R   0.549152 0.822168 0.254901 -0.213065
C61   C     C_R   0.524821 0.402119 0.672113 -0.149831
C62   C     C_R   0.475181 0.902117 0.327927 -0.149830
C63   C     C_R   0.537940 0.117742 0.784755 -0.093967
C64   C     C_R   0.462060 0.617743 0.215238 -0.093970
H19   H     H_    0.401195 0.309387 0.775696 0.097283
H20   H     H_    0.598802 0.809389 0.224270 0.097284
H21   H     H_    0.467319 0.049210 0.840136 0.120278
H22   H     H_    0.532679 0.549214 0.159797 0.120280
H23   H     H_    0.386452 0.219416 0.800379 0.110024
H24   H     H_    0.613546 0.719419 0.199555 0.110022
H25   H     H_    0.373724 0.115532 0.847731 0.134990
H26   H     H_    0.626273 0.615537 0.152171 0.134990
H27   H     H_    0.651856 0.174272 0.722491 0.103484
H28   H     H_    0.348146 0.674269 0.277579 0.103488
C65   C     C_2   0.120652 0.424266 0.449713 0.323318
H29   H     H_    0.079291 0.452606 0.428499 0.038331
O21   O     O_2   0.163725 0.421327 0.323832 -0.532585
C66   C     C_2   0.879348 0.924254 0.550287 0.323272
H30   H     H_    0.920714 0.952589 0.571500 0.038349
O22   O     O_2   0.836274 0.921322 0.676168 -0.532586
C67   C     C_2   0.642698 0.387864 0.605993 0.367096
H31   H     H_    0.681161 0.360575 0.543835 0.042917
O23   O     O_2   0.653919 0.440136 0.625997 -0.524575
C68   C     C_2   0.357307 0.887858 0.394096 0.367096
H32   H     H_    0.318850 0.860570 0.456288 0.042919
O24   O     O_2   0.346082 0.940128 0.374076 -0.524577
C69   C     C_3   0.874785 0.083378 0.073382 -0.376883
C70   C     C_3   0.897723 0.021151 0.025994 -0.708542
H33   H     H_    0.862501 0.998186 0.936855 0.256490
H34   H     H_    0.945745 0.022206 0.946879 0.219706
H35   H     H_    0.902632 0.996194 0.161990 0.196729
H36   H     H_    0.908653 0.101775 0.178195 0.173980
H37   H     H_    0.827082 0.083059 0.153087 0.194710
C71   C     C_3   0.125205 0.583360 0.926633 -0.376900
C72   C     C_3   0.102264 0.521137 0.974055 -0.708648
H38   H     H_    0.137516 0.498159 0.063050 0.256525
H39   H     H_    0.054274 0.522203 0.053332 0.219740
H40   H     H_    0.097290 0.496185 0.838075 0.196750
H41   H     H_    0.091336 0.601754 0.821821 0.173991
H42   H     H_    0.172905 0.583036 0.846918 0.194715
C73   C     C_3   0.105814 0.276156 0.133800 -0.368468
C74   C     C_3   0.121735 0.211898 0.090175 -0.749077
H43   H     H_    0.086351 0.192458 0.992689 0.231493
H44   H     H_    0.171270 0.208173 0.021632 0.230791
H45   H     H_    0.119952 0.186440 0.226940 0.221836
H46   H     H_    0.140668 0.292208 0.239689 0.204021
H47   H     H_    0.057092 0.280005 0.207162 0.159872
C75   C     C_3   0.894179 0.776167 0.866154 -0.368513
C76   C     C_3   0.878243 0.711909 0.909707 -0.748991
H48   H     H_    0.913664 0.692434 0.007030 0.231460
H49   H     H_    0.828724 0.708194 0.978402 0.230789
H50   H     H_    0.879956 0.686478 0.772877 0.221829
H51   H     H_    0.859332 0.792235 0.760275 0.204041
H52   H     H_    0.942903 0.780014 0.792805 0.159876

loop_
_geom_bond_atom_site_label_1
_geom_bond_atom_site_label_2
_ccdc_geom_bond_type
C38   C62   A    
V4    O20   S    
C59   H19   S    
C68   H32   S    
C48   C52   A    
C38   C68   S    
C49   C63   A    
C58   H28   S    
O4    C2    A    
V1    O19   S    
C37   C53   A    
C67   H31   S    
C15   C17   A    
C13   H11   S    
C39   C59   A    
C7    C9    S    
C72   H39   S    
O9    V1    S    
C23   C69   S    
C37   C67   S    
C11   C13   A    
C42   C44   A    
C17   C73   S    
O3    C1    A    
C65   O21   D    
C2    C35   S    
C57   H27   S    
C66   O22   D    
C44   C46   A    
C67   O23   D    
C45   H23   S    
O12   V4    S    
C73   C74   S    
C69   H37   S    
O13   V3    S    
C76   H50   S    
O7    C3    A    
C6    C40   S    
C9    C11   A    
O5    C7    A    
C48   C50   A    
O7    V1    S    
C4    C63   S    
O6    C8    A    
O8    V2    S    
C16   C32   S    
C54   C56   A    
C42   C64   A    
C76   H48   S    
C41   H21   S    
C24   C36   A    
O14   V4    S    
C47   C49   A    
C5    C39   S    
C10   C12   A    
C52   C54   A    
C15   C31   S    
C43   C45   A    
C8    C10   S    
C2    O12   A    
C75   H52   S    
C37   C61   A    
C17   C19   A    
O10   V2    S    
C18   C20   A    
C74   H45   S    
C12   C66   S    
C55   C57   A    
C28   C30   A    
O11   V3    S    
C22   C24   A    
C21   C23   A    
O17   V3    S    
C73   H46   S    
C13   C15   A    
C72   H40   S    
C14   H12   S    
C60   H20   S    
C23   C35   A    
C25   H1    S    
H16   C62   S    
C9    C19   A    
H15   C61   S    
C10   C20   A    
C74   H44   S    
O8    C4    A    
C51   C59   A    
C29   C33   S    
C3    C64   S    
C1    O11   A    
C34   H4    S    
C25   C27   A    
O15   V3    S    
C42   H22   S    
C41   C63   A    
C27   C29   A    
C39   C61   A    
C70   H34   S    
C71   H41   S    
C18   C75   S    
C26   C28   A    
C22   C30   A    
O1    V3    S    
C40   C60   A    
C31   C33   D    
O3    V1    S    
C31   H9    S    
C71   H42   S    
C50   C64   A    
C41   C43   A    
C46   C48   A    
O18   V4    S    
C32   H10   S    
C75   H51   S    
O15   C5    A    
C21   H5    S    
C26   H2    S    
O16   C6    A    
C20   H8    S    
C70   H35   S    
O1    C3    A    
C12   C14   A    
C1    C36   S    
C66   H30   S    
C50   C58   A    
C69   C70   S    
V2    O20   S    
C68   O24   D    
O16   V4    S    
H18   C56   S    
C44   H26   S    
O18   C8    A    
C24   C71   S    
C27   H13   S    
C33   H3    S    
C16   C18   A    
C53   C55   A    
C22   H6    S    
H17   C55   S    
O5    V1    S    
O4    V2    S    
O17   C7    A    
O6    V2    S    
C72   H38   S    
O10   C6    A    
C28   H14   S    
C25   C35   A    
O2    V4    S    
C74   H43   S    
C26   C36   A    
C43   H25   S    
C70   H33   S    
V3    O19   S    
C65   H29   S    
C38   C54   A    
C14   C16   A    
C51   C53   A    
O9    C5    A    
O13   V1    S    
C32   C34   D    
O14   V2    S    
C76   H49   S    
C47   C51   A    
O2    C4    A    
C56   C58   A    
C11   C65   S    
C21   C29   A    
C69   H36   S    
C46   H24   S    
C73   H47   S    
C30   C34   S    
C52   C60   A    
C19   H7    S    
C45   C47   A    
C40   C62   A    
C75   C76   S    
C71   C72   S    
C49   C57   A    
