data_mof_unit_63787.cif
_audit_creation_date              2012-12-10T20:45:27-0500
_audit_creation_method            fapswitch 2.2
_symmetry_space_group_name_H-M    P1
_symmetry_Int_Tables_number       1
_space_group_crystal_system       triclinic
_cell_length_a                    10.728046
_cell_length_b                    10.662937
_cell_length_c                    9.879728
_cell_angle_alpha                 90.42926
_cell_angle_beta                  91.186996
_cell_angle_gamma                 89.542606
_cell_volume                      1129.85770781

loop_
_atom_site_label
_atom_site_type_symbol
_atom_type_description
_atom_site_fract_x
_atom_site_fract_y
_atom_site_fract_z
_atom_type_partial_charge
C1    C     C_R   0.498589 0.260197 0.499995 0.884960
C2    C     C_R   0.173486 0.820820 0.092863 0.276130
C3    C     C_R   0.931018 0.551189 0.393092 -0.176100
C4    C     C_R   0.872907 0.502389 0.505720 -0.091279
C5    C     C_R   0.942790 0.459794 0.618918 0.024812
C6    C     C_R   0.069794 0.450222 0.607649 -0.160592
C7    C     C_R   0.127917 0.501918 0.496169 -0.079340
C8    C     C_R   0.058676 0.558721 0.390667 0.049893
C9    C     C_R   0.875459 0.564778 0.829443 -0.073482
C10   C     C_R   0.838123 0.562689 0.963682 0.238152
C11   C     C_R   0.817253 0.447844 0.026590 -0.247605
C12   C     C_R   0.260233 0.502279 0.498550 0.894822
C13   C     C_R   0.834683 0.335296 0.955024 0.291555
C14   C     C_R   0.873486 0.337481 0.820423 -0.199179
C15   C     C_R   0.893074 0.452624 0.756974 0.036685
C16   C     C_R   0.521974 0.064656 0.619832 0.053255
C17   C     C_R   0.487607 0.128464 0.502439 -0.068448
C18   C     C_R   0.436396 0.063992 0.391307 -0.132095
C19   C     C_R   0.437679 0.934543 0.390829 -0.164732
C20   C     C_R   0.489373 0.871467 0.502537 -0.059590
C21   C     C_R   0.524375 0.936879 0.619434 0.069250
C22   C     C_3   0.642610 0.932105 0.703151 0.117126
C23   C     C_R   0.499150 0.739702 0.500468 0.926946
C24   C     C_3   0.638582 0.074483 0.704328 -0.453563
C25   C     C_R   0.491088 0.390126 0.069705 0.214873
C26   C     C_R   0.517003 0.607696 0.073112 -0.086878
C27   C     C_R   0.518208 0.607507 0.929493 -0.026894
C28   C     C_R   0.490335 0.390443 0.927235 0.196093
C29   C     C_3   0.384278 0.301637 0.917290 -0.432271
C30   C     C_3   0.385566 0.299791 0.070625 -0.440424
C31   C     C_R   0.740064 0.500434 0.501935 0.915488
C32   C     C_R   0.141700 0.861792 0.223409 0.254266
C33   C     C_R   0.112985 0.774226 0.322358 -0.225106
C34   C     C_R   0.111719 0.645670 0.291768 0.027831
C35   C     C_R   0.139796 0.604881 0.160851 -0.194003
C36   C     C_R   0.171374 0.691723 0.061878 0.228317
H1    H     H_    0.399346 0.112985 0.304364 0.178762
H2    H     H_    0.620348 0.114981 0.806000 0.207648
H3    H     H_    0.411634 0.210329 0.871328 0.218899
N1    N     N_R   0.499160 0.499140 0.142800 -0.123055
N2    N     N_R   0.499160 0.499180 0.857150 -0.105812
O1    O     O_R   0.500020 0.316790 0.614690 -0.626484
O2    O     O_R   0.500000 0.316760 0.385350 -0.616386
O3    O     O_R   0.316770 0.500030 0.614670 -0.588200
O4    O     O_R   0.316750 0.499990 0.385330 -0.626115
O5    O     O_R   0.500000 0.683240 0.614650 -0.612729
O6    O     O_R   0.499980 0.683210 0.385310 -0.631242
O7    O     O_R   0.683250 0.500010 0.614670 -0.616214
O8    O     O_R   0.683230 0.499970 0.385330 -0.614866
Zn1   Zn    Zn3+2 0.500010 0.500020 0.653130 0.989807
Zn2   Zn    Zn3+2 0.499990 0.499980 0.346870 0.972494
Br1   Br    Br    0.216065 0.940627 0.956961 -0.409596
H4    H     H_    0.788078 0.445872 0.130679 0.194375
Br2   Br    Br    0.808076 0.178840 0.042366 -0.426838
H5    H     H_    0.889305 0.250405 0.766142 0.183381
H6    H     H_    0.403088 0.884485 0.302121 0.164719
H7    H     H_    0.629093 0.890809 0.804659 0.161963
Br3   Br    Br    0.785200 0.865048 0.606429 -0.475492
H8    H     H_    0.715702 0.119552 0.649598 0.226614
H9    H     H_    0.528869 0.695173 0.127600 0.182887
Br4   Br    Br    0.126474 0.036540 0.268035 -0.424805
H10   H     H_    0.531071 0.694700 0.876893 0.164805
H11   H     H_    0.298548 0.345062 0.872467 0.233193
H12   H     H_    0.299889 0.339912 0.115853 0.223446
H13   H     H_    0.415431 0.207202 0.109943 0.217269
H14   H     H_    0.085836 0.806710 0.421759 0.217991
H15   H     H_    0.133061 0.506331 0.134672 0.180291
Br5   Br    Br    0.200729 0.631465 0.882724 -0.515899
H16   H     H_    0.876528 0.593413 0.311835 0.207473
H17   H     H_    0.124003 0.412027 0.691863 0.185413
H18   H     H_    0.893522 0.653873 0.782133 0.215640
Br6   Br    Br    0.818851 0.717804 0.059543 -0.502208

loop_
_geom_bond_atom_site_label_1
_geom_bond_atom_site_label_2
_ccdc_geom_bond_type
C19   H6    S    
C22   Br3   S    
C24   H2    S    
C29   H11   S    
C16   C21   A    
C27   H10   S    
C30   H12   S    
N1    Zn2   S    
C18   C19   A    
C9    C10   A    
C27   N2    A    
C1    C17   S    
C19   C20   A    
C11   H4    S    
C20   C23   S    
C35   H15   S    
O2    Zn2   S    
C32   C33   A    
C29   H3    S    
C22   H7    S    
O7    Zn1   S    
C14   H5    S    
C9    C15   A    
C7    C8    A    
C16   C24   S    
C23   O5    A    
C8    C34   S    
C21   C22   S    
C25   C28   A    
C11   C13   A    
C26   N1    A    
C26   C27   A    
C29   C30   S    
C2    Br1   S    
O1    Zn1   S    
C24   H8    S    
C28   C29   S    
C3    H16   S    
C18   H1    S    
C31   O8    A    
C33   H14   S    
C17   C18   A    
C6    C7    A    
C31   O7    A    
C25   N1    A    
C32   Br4   S    
C5    C6    A    
C34   C35   A    
C22   C24   S    
C7    C12   S    
C5    C15   S    
C4    C31   S    
C23   O6    A    
C10   C11   A    
O4    Zn2   S    
O3    Zn1   S    
C3    C4    A    
C30   H13   S    
C1    O1    A    
C33   C34   A    
C20   C21   A    
C3    C8    A    
C2    C32   A    
C13   Br2   S    
C12   O3    A    
C2    C36   A    
C25   C30   S    
C6    H17   S    
N2    Zn1   S    
O5    Zn1   S    
C14   C15   A    
C4    C5    A    
O6    Zn2   S    
C13   C14   A    
C26   H9    S    
C36   Br5   S    
C1    O2    A    
C28   N2    A    
C9    H18   S    
C16   C17   A    
C12   O4    A    
O8    Zn2   S    
C35   C36   A    
C10   Br6   S    
