data_mof_unit_10382.cif
_audit_creation_date              2013-03-05T16:37:41-0500
_audit_creation_method            fapswitch 2.2
_symmetry_space_group_name_H-M    P1
_symmetry_Int_Tables_number       1
_space_group_crystal_system       triclinic
_cell_length_a                    18.698064
_cell_length_b                    18.734867
_cell_length_c                    18.885545
_cell_angle_alpha                 109.59158
_cell_angle_beta                  109.436143
_cell_angle_gamma                 109.338461
_cell_volume                      5095.74257741

loop_
_atom_site_label
_atom_site_type_symbol
_atom_site_description
_atom_site_fract_x
_atom_site_fract_y
_atom_site_fract_z
_atom_type_partial_charge
O1    O     O_R   0.408360 0.551710 0.460090 -0.621143
O2    O     O_R   0.408390 0.448280 0.356670 -0.610245
C1    C     C_R   0.381206 0.501820 0.380463 0.892193
O3    O     O_R   0.591600 0.643340 0.551710 -0.635106
O4    O     O_R   0.591630 0.539900 0.448290 -0.622179
C2    C     C_R   0.621959 0.620630 0.502199 0.864022
Zn1   Zn    Zn3+2 0.499980 0.569070 0.569050 1.007926
Zn2   Zn    Zn3+2 0.500020 0.430930 0.430950 1.026943
O5    O     O_R   0.591610 0.551720 0.643330 -0.612277
O6    O     O_R   0.591640 0.448290 0.539910 -0.607452
O7    O     O_R   0.408370 0.460100 0.551710 -0.622100
O8    O     O_R   0.408400 0.356660 0.448290 -0.606045
C3    C     C_R   0.619823 0.500066 0.619416 0.868712
C4    C     C_R   0.377472 0.380149 0.497999 0.894946
H1    H     H_    0.750844 0.846050 0.881981 0.156786
C5    C     C_R   0.696216 0.839406 0.758515 -0.042653
H2    H     H_    0.652394 0.861694 0.769590 0.174714
C6    C     C_R   0.698129 0.820363 0.681309 0.003569
H3    H     H_    0.655695 0.827979 0.633118 0.144670
C7    C     C_R   0.753328 0.789635 0.665421 0.133865
C8    C     C_R   0.810451 0.783122 0.730050 -0.109262
H4    H     H_    0.856219 0.763324 0.720567 0.156277
C9    C     C_R   0.809231 0.803431 0.807826 -0.075342
H5    H     H_    0.853734 0.799556 0.858029 0.149892
C10   C     C_R   0.751516 0.830474 0.821678 -0.034733
C11   C     C_R   0.818036 0.830222 0.580310 0.248283
C12   C     C_R   0.813013 0.815001 0.500122 -0.210487
C13   C     C_R   0.743786 0.738697 0.421793 -0.034939
C14   C     C_R   0.685700 0.673965 0.425880 -0.241262
H6    H     H_    0.634359 0.613426 0.366320 0.179975
C15   C     C_R   0.689061 0.688566 0.504507 -0.123842
C16   C     C_R   0.753358 0.768418 0.582316 -0.119570
C17   C     C_R   0.697599 0.763665 0.292944 0.254166
C18   C     C_R   0.686028 0.743256 0.209852 -0.153490
H7    H     H_    0.661169 0.774670 0.177313 0.162221
C19   C     C_R   0.705095 0.681562 0.167501 -0.084336
H8    H     H_    0.695076 0.666004 0.103204 0.215232
C20   C     C_R   0.734903 0.638523 0.207037 -0.090555
H9    H     H_    0.747765 0.589210 0.173356 0.191797
C21   C     C_R   0.746869 0.657937 0.289552 -0.266357
H10   H     H_    0.767073 0.621668 0.317933 0.150714
C22   C     C_R   0.731330 0.722284 0.334722 0.130439
C23   C     C_R   0.428762 0.792801 0.534024 -0.236853
H11   H     H_    0.410319 0.821922 0.579838 0.189190
C24   C     C_R   0.368623 0.708548 0.463748 -0.208346
H12   H     H_    0.304622 0.674540 0.455827 0.156036
C25   C     C_R   0.389620 0.668823 0.402530 0.187098
C26   C     C_R   0.472167 0.714277 0.411991 0.210112
C27   C     C_R   0.532232 0.799468 0.482624 -0.227140
H13   H     H_    0.595487 0.834745 0.489597 0.174969
C28   C     C_R   0.510993 0.839490 0.543993 0.314777
C29   C     C_R   0.256616 0.581151 0.257742 0.265828
C30   C     C_R   0.185484 0.499888 0.187116 -0.186169
C31   C     C_R   0.177772 0.420868 0.183130 0.004650
C32   C     C_R   0.244943 0.423964 0.246190 -0.203695
H14   H     H_    0.240427 0.363465 0.242715 0.194591
C33   C     C_R   0.315596 0.503822 0.315832 -0.132551
C34   C     C_R   0.320466 0.583152 0.324226 -0.103600
C35   C     C_R   0.028404 0.296330 0.125950 0.214355
C36   C     C_R   0.964534 0.205929 0.068787 0.108490
C37   C     C_R   0.972314 0.155655 0.999295 0.379417
C38   C     C_R   0.044424 0.194385 0.990405 -0.148665
H15   H     H_    0.051727 0.156148 0.938781 0.260800
C39   C     C_R   0.108411 0.281367 0.048183 -0.227404
H16   H     H_    0.165625 0.307806 0.042128 0.235173
C40   C     C_R   0.101054 0.333123 0.115376 0.072376
C41   C     C_R   0.274622 0.557573 0.605574 0.351141
C42   C     C_R   0.286383 0.485318 0.596215 -0.271721
H17   H     H_    0.334421 0.489762 0.651598 0.198115
C43   C     C_R   0.236008 0.406619 0.516795 -0.053616
C44   C     C_R   0.169640 0.398430 0.446033 0.302869
C45   C     C_R   0.156431 0.469690 0.455315 -0.270733
H18   H     H_    0.104606 0.462598 0.400955 0.179428
C46   C     C_R   0.208869 0.549673 0.533727 0.097397
C47   C     C_R   0.182221 0.264661 0.514840 0.106537
C48   C     C_R   0.186399 0.187750 0.502386 -0.026476
C49   C     C_R   0.251493 0.174835 0.488243 0.100073
C50   C     C_R   0.312641 0.239073 0.486414 -0.145265
H19   H     H_    0.363221 0.229537 0.475919 0.165720
C51   C     C_R   0.309922 0.315291 0.498420 -0.108750
C52   C     C_R   0.244544 0.329084 0.512156 0.081560
C53   C     C_R   0.309065 0.087398 0.539039 0.319469
C54   C     C_R   0.329126 0.018959 0.521320 0.080580
C55   C     C_R   0.294612 0.956223 0.434206 0.104269
C56   C     C_R   0.238071 0.960081 0.366789 -0.236517
H20   H     H_    0.210557 0.910982 0.300252 0.182651
C57   C     C_R   0.218555 0.027810 0.383380 0.242028
C58   C     C_R   0.255832 0.093206 0.470072 -0.188946
H21   H     H_    0.598978 0.441247 0.719694 0.163053
C59   C     C_R   0.794743 0.579999 0.651753 -0.194128
H22   H     H_    0.749449 0.593073 0.612425 0.136827
C60   C     C_R   0.876885 0.610509 0.659857 -0.186755
H23   H     H_    0.893305 0.645233 0.626895 0.189446
C61   C     C_R   0.935673 0.591568 0.705553 -0.130294
H24   H     H_    0.996470 0.609221 0.704500 0.217593
C62   C     C_R   0.913963 0.543873 0.745989 0.322959
C63   C     C_R   0.834000 0.522715 0.748997 -0.052842
C64   C     C_R   0.772137 0.535216 0.694817 0.057496
C65   C     C_R   0.688078 0.502371 0.684095 -0.113239
C66   C     C_R   0.665361 0.465679 0.730832 -0.177377
C67   C     C_R   0.726449 0.461550 0.792316 0.153447
C68   C     C_R   0.812293 0.490765 0.803097 -0.129651
O9    O     O_R   0.051730 0.908360 0.460070 -0.619004
O10   O     O_R   0.948280 0.908380 0.356650 -0.608701
C69   C     C_R   0.999418 0.878564 0.380264 0.880787
O11   O     O_R   0.960110 0.908350 0.551690 -0.568329
O12   O     O_R   0.856660 0.908370 0.448270 -0.634832
C70   C     C_R   0.879741 0.879413 0.499146 0.884885
Zn3   Zn    Zn3+2 0.069080 0.999960 0.569030 1.109886
Zn4   Zn    Zn3+2 0.930920 0.999990 0.430930 1.013398
O13   O     O_R   0.051720 0.091580 0.643310 -0.572348
O14   O     O_R   0.948270 0.091600 0.539890 -0.630459
O15   O     O_R   0.143340 0.091590 0.551680 -0.606431
O16   O     O_R   0.039890 0.091610 0.448270 -0.581862
C71   C     C_R   0.000637 0.120622 0.619903 0.883214
C72   C     C_R   0.120139 0.119208 0.499534 0.886611
O17   O     O_R   0.051710 0.460040 0.908380 -0.521118
O18   O     O_R   0.948270 0.356620 0.908410 -0.631867
C73   C     C_R   0.997408 0.379353 0.877772 0.981807
O19   O     O_R   0.143330 0.551680 0.091590 -0.545531
O20   O     O_R   0.039890 0.448260 0.091620 -0.656154
C74   C     C_R   0.120004 0.498572 0.118896 0.956774
Zn5   Zn    Zn3+2 0.069060 0.569020 0.999970 1.147941
Zn6   Zn    Zn3+2 0.930920 0.430910 0.000010 1.021459
O21   O     O_R   0.051700 0.643310 0.091570 -0.618862
O22   O     O_R   0.948260 0.539890 0.091600 -0.618875
O23   O     O_R   0.960080 0.551670 0.908360 -0.609120
O24   O     O_R   0.856640 0.448250 0.908390 -0.633907
C75   C     C_R   0.001950 0.619900 0.121769 0.920624
C76   C     C_R   0.879355 0.496606 0.876114 0.909655
C77   C     C_R   0.160057 0.804945 0.562844 -0.228026
H25   H     H_    0.228909 0.835736 0.608728 0.188736
C78   C     C_R   0.135401 0.795138 0.480301 -0.196004
H26   H     H_    0.185214 0.819192 0.464196 0.156447
C79   C     C_R   0.046908 0.755917 0.419230 0.168661
C80   C     C_R   0.983325 0.726880 0.441885 -0.209205
H27   H     H_    0.915229 0.697689 0.395877 0.135216
C81   C     C_R   0.007708 0.737087 0.524647 -0.181121
H28   H     H_    0.957192 0.714705 0.540648 0.166324
C82   C     C_R   0.096473 0.776362 0.586113 0.375868
C83   C     C_R   0.021929 0.685852 0.268814 0.151400
C84   C     C_R   0.004192 0.685906 0.189937 -0.028614
C85   C     C_R   0.986488 0.748459 0.174915 0.000475
C86   C     C_R   0.982760 0.809254 0.237415 -0.164239
H29   H     H_    0.968728 0.857261 0.225757 0.199995
C87   C     C_R   0.000099 0.810668 0.315802 -0.144849
C88   C     C_R   0.021900 0.750480 0.333281 -0.011276
C89   C     C_R   0.046083 0.796091 0.089733 -0.082322
H30   H     H_    0.110727 0.830944 0.145787 0.167169
C90   C     C_R   0.037945 0.792828 0.012461 -0.043832
H31   H     H_    0.095645 0.826109 0.009608 0.169138
C91   C     C_R   0.955746 0.745253 0.938486 -0.185326
H32   H     H_    0.949855 0.741252 0.878103 0.166596
C92   C     C_R   0.881105 0.702789 0.942109 -0.247817
H33   H     H_    0.817880 0.666745 0.883839 0.184194
C93   C     C_R   0.887887 0.704097 0.019067 0.347813
C94   C     C_R   0.972092 0.750843 0.093741 -0.031959
H34   H     H_    0.398483 0.322301 0.806908 0.192898
C95   C     C_R   0.296198 0.259587 0.829816 -0.154647
H35   H     H_    0.333333 0.237671 0.865685 0.192833
C96   C     C_R   0.211867 0.239814 0.817045 0.365283
C97   C     C_R   0.165012 0.269261 0.769100 0.024547
C98   C     C_R   0.204449 0.318898 0.737658 -0.168939
H36   H     H_    0.171705 0.346498 0.706251 0.175648
C99   C     C_R   0.287604 0.336857 0.750097 -0.097097
H37   H     H_    0.317094 0.374986 0.725206 0.155469
C100  C     C_R   0.333484 0.307415 0.796308 -0.056920
C101  C     C_R   0.076930 0.320300 0.821629 0.276191
C102  C     C_R   0.996016 0.311593 0.811376 -0.178057
C103  C     C_R   0.915442 0.238651 0.738737 0.101149
C104  C     C_R   0.917314 0.172109 0.678293 0.204243
C105  C     C_R   0.998845 0.184691 0.686253 -0.074133
C106  C     C_R   0.078620 0.257329 0.758423 -0.099271
C107  C     C_R   0.789126 0.205296 0.767933 0.350855
C108  C     C_R   0.709025 0.201283 0.753784 -0.126582
H38   H     H_    0.678701 0.181920 0.789006 0.198480
C109  C     C_R   0.665747 0.219340 0.692574 -0.260080
H39   H     H_    0.603606 0.215312 0.681949 0.194278
C110  C     C_R   0.700846 0.240437 0.643404 -0.179168
H40   H     H_    0.664254 0.252250 0.595034 0.197828
C111  C     C_R   0.781118 0.245454 0.655168 0.337237
C112  C     C_R   0.828857 0.232521 0.722201 -0.162191
N1    N     N_R   0.572562 0.926952 0.615998 0.199174
O25   O     O_R   0.554627 0.962353 0.674989 -0.391926
O26   O     O_R   0.647670 0.971637 0.623946 -0.405169
C113  C     C_3   0.494833 0.673595 0.345585 -0.868938
H41   H     H_    0.490908 0.611804 0.341321 0.223852
H42   H     H_    0.448804 0.659534 0.281073 0.283289
H43   H     H_    0.561795 0.717454 0.362837 0.241538
N2    N     N_R   0.262777 0.661732 0.263611 0.205246
O27   O     O_R   0.330950 0.718869 0.270019 -0.390733
O28   O     O_R   0.199920 0.677819 0.261800 -0.471634
C114  C     C_3   0.023493 0.353807 0.200937 -0.787731
H44   H     H_    0.966154 0.320100 0.206111 0.260654
H45   H     H_    0.083434 0.380867 0.262338 0.247974
H46   H     H_    0.019794 0.409346 0.195027 0.233318
C115  C     C_3   0.893258 0.162829 0.086175 -0.725382
H47   H     H_    0.855563 0.090793 0.045690 0.260055
H48   H     H_    0.922803 0.176157 0.153982 0.270875
H49   H     H_    0.847188 0.188312 0.075314 0.249843
N3    N     N_R   0.908500 0.065150 0.937470 0.223992
O29   O     O_R   0.825634 0.040505 0.899634 -0.320735
O30   O     O_R   0.933589 0.010794 0.906861 -0.337006
C116  C     C_3   0.193888 0.624999 0.538529 -0.789408
H50   H     H_    0.256583 0.684038 0.564567 0.241880
H51   H     H_    0.147875 0.610411 0.473639 0.211977
H52   H     H_    0.165255 0.638902 0.580860 0.287187
N4    N     N_R   0.330142 0.637621 0.687911 0.211644
O31   O     O_R   0.300068 0.687269 0.716972 -0.321274
O32   O     O_R   0.408840 0.656644 0.738523 -0.381513
N5    N     N_R   0.112039 0.316580 0.366302 0.193550
O33   O     O_R   0.142994 0.272353 0.329967 -0.371955
O34   O     O_R   0.027863 0.285024 0.330666 -0.418966
C117  C     C_3   0.110211 0.277037 0.528014 -0.783544
H53   H     H_    0.133240 0.346672 0.570810 0.229982
H54   H     H_    0.053916 0.252405 0.464410 0.298525
H55   H     H_    0.086682 0.241887 0.559497 0.212882
N6    N     N_R   0.344728 0.152681 0.626884 0.199908
O35   O     O_R   0.402029 0.233053 0.656848 -0.454732
O36   O     O_R   0.320493 0.131483 0.677324 -0.399747
C118  C     C_3   0.390577 0.014574 0.593836 -0.749727
H56   H     H_    0.416989 0.068960 0.659238 0.276790
H57   H     H_    0.355863 0.952356 0.591745 0.229744
H58   H     H_    0.447746 0.017809 0.586258 0.253783
C119  C     C_3   0.320552 0.887112 0.411700 -0.725097
H59   H     H_    0.392340 0.918364 0.438039 0.246661
H60   H     H_    0.301631 0.844663 0.438842 0.230941
H61   H     H_    0.288930 0.845360 0.340497 0.289921
N7    N     N_R   0.164500 0.031603 0.311387 0.216057
O37   O     O_R   0.166682 0.003380 0.239534 -0.386400
O38   O     O_R   0.107993 0.056677 0.314455 -0.362116
N8    N     N_R   0.966281 0.505764 0.769221 0.224192
O39   O     O_R   0.049794 0.546339 0.796756 -0.344176
O40   O     O_R   0.928205 0.424860 0.749715 -0.421353
C120  C     C_3   0.696833 0.427876 0.845936 -0.726052
H62   H     H_    0.739353 0.477575 0.915813 0.282149
H63   H     H_    0.628941 0.413319 0.829624 0.235040
H64   H     H_    0.697577 0.366113 0.834069 0.238685
N9    N     N_R   0.121959 0.787866 0.671682 0.213498
O41   O     O_R   0.203410 0.818368 0.726411 -0.323239
O42   O     O_R   0.064233 0.769363 0.696231 -0.397461
C121  C     C_3   0.041616 0.618956 0.286442 -0.827398
H65   H     H_    0.106671 0.652520 0.345032 0.242796
H66   H     H_    0.991135 0.580603 0.297475 0.230099
H67   H     H_    0.043800 0.572293 0.233909 0.251468
N10   N     N_R   0.809541 0.657142 0.019352 0.177125
O43   O     O_R   0.811006 0.623545 0.069567 -0.460066
O44   O     O_R   0.734355 0.640376 0.963057 -0.414185
N11   N     N_R   0.176411 0.191999 0.854356 0.203223
O45   O     O_R   0.092455 0.143270 0.819463 -0.340301
O46   O     O_R   0.228470 0.191637 0.920074 -0.370291
N12   N     N_R   0.886637 0.909999 0.659181 0.208078
O47   O     O_R   0.868831 0.968274 0.697147 -0.312154
O48   O     O_R   0.961228 0.915953 0.701523 -0.296063
N13   N     N_R   0.157900 0.393353 0.896646 0.214616
O49   O     O_R   0.211397 0.450979 0.888381 -0.333106
O50   O     O_R   0.175219 0.405826 0.973801 -0.428901
C122  C     C_3   0.832612 0.088592 0.604840 -0.705147
H68   H     H_    0.779000 0.075771 0.620077 0.265109
H69   H     H_    0.811225 0.092881 0.544831 0.244500
H70   H     H_    0.841282 0.030657 0.592175 0.239349
N14   N     N_R   0.828073 0.179798 0.827563 0.237538
O51   O     O_R   0.814769 0.190628 0.892868 -0.380872
O52   O     O_R   0.870182 0.138735 0.812914 -0.317823
N15   N     N_R   0.810117 0.260899 0.596696 0.232375
O53   O     O_R   0.889209 0.281397 0.611326 -0.347384
O54   O     O_R   0.756903 0.256461 0.527973 -0.375572
C123  C     C_3   0.671459 0.827866 0.332629 -0.860850
H71   H     H_    0.708236 0.890560 0.336430 0.252532
H72   H     H_    0.600491 0.801482 0.291175 0.246249
H73   H     H_    0.684653 0.842033 0.398939 0.239578

loop_
_geom_bond_atom_site_label_1
_geom_bond_atom_site_label_2
_geom_bond_distance
_ccdc_geom_bond_type
O10   Zn4   2.018991 S    
C57   C58   1.413204 A    
N13   O50   1.300059 A    
C11   C16   1.391837 A    
C99   H37   1.082658 S    
C32   C33   1.388696 A    
C120  H63   1.111248 S    
C102  C103  1.422298 A    
C98   H36   1.080610 S    
C66   C67   1.376610 A    
C104  C105  1.409934 A    
C107  C112  1.424593 A    
C96   C97   1.420874 A    
C33   C34   1.408941 A    
C120  H62   1.108145 S    
N6    O35   1.300793 A    
C79   C80   1.399540 A    
C108  C109  1.388020 A    
C97   C106  1.487918 S    
C56   H20   1.082130 S    
C35   C114  1.517506 S    
Zn1   O7    2.017802 S    
C96   N11   1.442010 S    
C11   C12   1.407646 A    
C67   C68   1.429454 A    
O11   C70   1.282220 A    
C17   C22   1.422761 A    
Zn6   O22   2.021300 S    
C19   H8    1.081499 S    
C98   C99   1.394038 A    
C105  C106  1.411840 A    
C89   C90   1.393825 A    
C6    H3    1.076894 S    
C118  H58   1.109745 S    
C28   N1    1.440133 S    
C30   C74   1.438206 S    
O17   C73   1.287270 A    
C95   H35   1.082556 S    
O4    C2    1.288697 A    
Zn2   O6    2.027574 S    
O7    C4    1.274457 A    
C50   C51   1.389827 A    
C32   H14   1.085900 S    
H1    C10   1.082308 S    
C103  C104  1.399849 A    
C85   C86   1.378802 A    
C63   C64   1.411472 A    
C119  H61   1.108533 S    
C18   H7    1.083373 S    
N3    O29   1.301007 A    
C13   C22   1.487061 S    
C115  H48   1.109417 S    
C43   C52   1.490218 S    
O5    C3    1.273695 A    
C107  C108  1.402087 A    
C60   H23   1.082351 S    
O20   Zn6   2.022039 S    
C38   C39   1.387475 A    
C77   C82   1.406146 A    
C3    C65   1.418940 S    
C37   N3    1.437795 S    
O18   C73   1.272890 A    
Zn5   O23   2.022165 S    
C84   C85   1.407430 A    
N9    O41   1.301622 A    
C49   C58   1.487231 S    
C5    H2    1.082385 S    
C109  C110  1.388957 A    
C67   C120  1.516699 S    
C121  H66   1.110304 S    
O12   C70   1.277658 A    
C95   C96   1.407811 A    
C43   C44   1.407889 A    
C4    C51   1.438269 S    
C14   H6    1.085304 S    
N15   O53   1.300623 A    
Zn4   O16   2.016868 S    
C92   C93   1.407288 A    
C63   C68   1.446429 A    
C53   C58   1.415288 A    
O19   Zn5   2.025973 S    
C49   C50   1.378287 A    
Zn6   O24   2.026057 S    
O15   C72   1.277422 A    
C21   C22   1.404532 A    
C2    C15   1.436946 S    
O18   Zn6   2.023078 S    
C35   C36   1.427017 A    
C99   C100  1.392757 A    
O1    Zn1   2.027574 S    
C8    H4    1.081523 S    
C103  C112  1.499385 S    
C14   C15   1.392078 A    
N3    O30   1.301298 A    
C123  H71   1.110538 S    
C115  H47   1.105497 S    
O3    Zn1   2.019487 S    
C55   C119  1.508784 S    
N8    O40   1.294729 A    
O10   C69   1.289264 A    
N7    O37   1.301012 A    
O19   C74   1.285502 A    
H34   C100  1.082178 S    
C85   C94   1.484526 S    
C24   C25   1.401158 A    
C123  H72   1.110297 S    
C101  C106  1.386748 A    
C54   C118  1.514345 S    
N10   O44   1.301632 A    
N11   O46   1.301507 A    
C121  H67   1.104153 S    
O20   C74   1.274155 A    
C87   C88   1.418159 A    
C56   C57   1.399117 A    
C41   C42   1.405225 A    
C25   C26   1.408293 A    
C62   N8    1.430468 S    
C48   C49   1.406902 A    
C45   H18   1.082503 S    
C86   C87   1.394968 A    
N4    O31   1.300798 A    
C104  C122  1.523781 S    
C21   H10   1.082212 S    
C114  H45   1.105593 S    
C117  H53   1.108988 S    
C42   H17   1.083762 S    
N14   O52   1.300652 A    
C75   C84   1.431940 S    
H21   C66   1.086190 S    
O22   C75   1.276452 A    
C27   C28   1.408514 A    
C57   N7    1.439797 S    
C101  N13   1.439549 S    
N9    O42   1.301218 A    
C82   N9    1.439081 S    
C91   C92   1.396468 A    
C110  H40   1.082356 S    
C36   C37   1.421098 A    
O1    C1    1.275852 A    
C93   C94   1.419701 A    
C111  C112  1.433532 A    
C115  H49   1.110182 S    
C122  H69   1.109726 S    
C47   C48   1.413218 A    
N2    O27   1.300819 A    
C26   C113  1.503326 S    
C118  H56   1.106547 S    
O21   C75   1.278107 A    
C107  N14   1.439482 S    
N1    O26   1.300926 A    
N15   O54   1.301850 A    
C59   C60   1.382972 A    
C54   C55   1.413816 A    
C53   N6    1.433774 S    
C123  H73   1.108020 S    
C17   C123  1.508609 S    
Zn2   O8    2.019487 S    
C114  H46   1.104681 S    
C62   C63   1.440475 A    
C7    C8    1.401435 A    
C38   H15   1.080450 S    
C60   C61   1.382512 A    
C17   C18   1.404423 A    
N11   O45   1.300376 A    
N1    O25   1.301513 A    
C61   H24   1.082823 S    
O9    C69   1.277887 A    
C41   C46   1.417443 A    
C29   N2    1.438337 S    
C55   C56   1.400178 A    
C61   C62   1.403603 A    
C23   C24   1.394196 A    
C92   H33   1.082452 S    
C29   C34   1.394418 A    
C36   C115  1.514037 S    
C73   C102  1.439952 S    
C111  N15   1.451212 S    
C11   N12   1.436537 S    
C1    C33   1.435564 S    
C45   C46   1.404352 A    
C101  C102  1.404799 A    
N5    O34   1.300631 A    
O8    C4    1.289249 A    
C114  H44   1.104766 S    
C79   C88   1.488698 S    
C8    C9    1.398588 A    
C23   H11   1.082493 S    
C78   H26   1.079612 S    
N7    O38   1.300599 A    
C120  H64   1.108220 S    
C90   C91   1.391785 A    
O3    C2    1.274350 A    
C27   H13   1.083182 S    
C77   H25   1.082377 S    
C29   C30   1.407971 A    
C48   C72   1.429119 S    
C80   C81   1.398217 A    
N12   O48   1.300770 A    
C97   C98   1.403105 A    
C7    C16   1.484479 S    
C5    C10   1.395607 A    
Zn1   O5    2.020908 S    
C31   C32   1.381707 A    
C13   C14   1.379329 A    
N2    O28   1.299263 A    
C121  H65   1.109250 S    
C50   H19   1.085592 S    
C109  H39   1.082874 S    
C15   C16   1.414762 A    
C47   C52   1.402175 A    
C68   C76   1.463894 S    
C116  H51   1.111168 S    
C51   C52   1.415523 A    
C77   C78   1.396388 A    
O6    C3    1.277219 A    
O24   C76   1.288599 A    
O4    Zn2   2.017802 S    
O16   C72   1.280554 A    
C30   C31   1.412352 A    
N14   O51   1.301514 A    
C81   C82   1.407049 A    
Zn3   O15   2.020807 S    
C47   C117  1.523032 S    
C44   N5    1.434294 S    
C83   C121  1.523443 S    
C65   C66   1.376601 A    
O9    Zn3   2.025706 S    
N6    O36   1.300882 A    
O12   Zn4   2.020555 S    
C5    C6    1.396013 A    
N12   O47   1.300582 A    
C113  H43   1.102982 S    
Zn3   O13   2.019119 S    
O2    C1    1.286005 A    
O17   Zn5   2.021216 S    
C117  H54   1.108549 S    
C44   C45   1.401537 A    
C118  H57   1.110230 S    
C108  H38   1.082651 S    
C93   N10   1.440418 S    
C83   C84   1.414730 A    
C39   H16   1.082286 S    
C25   C34   1.481928 S    
C20   C21   1.394544 A    
N10   O43   1.300268 A    
C23   C28   1.403867 A    
C59   H22   1.081506 S    
C20   H9    1.082046 S    
C46   C116  1.507018 S    
C12   C70   1.430509 S    
C26   C27   1.405736 A    
C69   C87   1.443188 S    
C19   C20   1.393816 A    
N8    O39   1.301915 A    
C119  H60   1.108194 S    
C18   C19   1.394809 A    
C95   C100  1.396261 A    
C122  H68   1.106446 S    
C116  H52   1.109588 S    
C6    C7    1.403730 A    
C89   C94   1.405128 A    
C117  H55   1.107033 S    
C37   C38   1.398939 A    
Zn4   O14   2.025791 S    
O23   C76   1.284156 A    
Zn5   O21   2.023204 S    
C81   H28   1.082551 S    
C83   C88   1.400211 A    
C9    H5    1.075970 S    
N5    O33   1.301171 A    
C122  H70   1.108962 S    
C24   H12   1.082769 S    
C86   H29   1.084851 S    
C71   C105  1.434552 S    
C9    C10   1.396711 A    
C110  C111  1.407689 A    
C116  H50   1.110088 S    
N4    O32   1.301576 A    
C64   C65   1.397896 A    
O2    Zn2   2.020909 S    
C12   C13   1.410447 A    
C78   C79   1.401563 A    
C42   C43   1.402741 A    
C90   H31   1.082284 S    
C80   H27   1.076621 S    
O13   C71   1.276034 A    
C91   H32   1.082502 S    
C53   C54   1.418103 A    
C113  H41   1.108729 S    
C31   C40   1.484392 S    
C113  H42   1.109624 S    
C89   H30   1.081750 S    
C59   C64   1.412645 A    
O14   C71   1.284323 A    
C41   N4    1.440638 S    
N13   O49   1.300854 A    
C39   C40   1.395985 A    
C35   C40   1.418807 A    
C119  H59   1.109864 S    
O11   Zn3   2.016782 S    
