data_mof_unit_29643.cif
_audit_creation_date              2012-12-11T15:06:56-0500
_audit_creation_method            fapswitch 2.2
_symmetry_space_group_name_H-M    P1
_symmetry_Int_Tables_number       1
_space_group_crystal_system       triclinic
_cell_length_a                    19.573594
_cell_length_b                    11.328379
_cell_length_c                    18.717292
_cell_angle_alpha                 90.621186
_cell_angle_beta                  90.604699
_cell_angle_gamma                 90.211976
_cell_volume                      4149.81264412

loop_
_atom_site_label
_atom_site_type_symbol
_atom_type_description
_atom_site_fract_x
_atom_site_fract_y
_atom_site_fract_z
_atom_type_partial_charge
C1    C     C_R   0.761220 0.523071 0.639024 0.536040
C2    C     C_3   0.252750 0.055994 0.563162 0.066692
C3    C     C_R   0.728714 0.997749 0.143285 0.527829
C4    C     C_R   0.775953 0.138217 0.860364 0.529188
C5    C     C_R   0.228100 0.126432 0.143359 0.520141
C6    C     C_R   0.275953 0.638217 0.860364 0.529188
C7    C     C_R   0.728100 0.626432 0.143359 0.520141
C8    C     C_R   0.968820 0.354007 0.853807 0.530591
C9    C     C_R   0.029561 0.353103 0.146855 0.529121
C10   C     C_R   0.468820 0.854007 0.853807 0.530591
C11   C     C_R   0.529561 0.853103 0.146855 0.529120
C12   C     C_3   0.687294 0.132838 0.464803 -0.235066
C13   C     C_3   0.247283 0.557323 0.436605 0.065711
C14   C     C_3   0.312880 0.131991 0.535758 -0.232527
C15   C     C_3   0.187294 0.632838 0.464803 -0.235066
C16   C     C_3   0.812880 0.631991 0.535758 -0.232527
C17   C     C_3   0.692179 0.145535 0.546070 -0.232049
C18   C     C_3   0.307944 0.145251 0.454598 -0.232188
C19   C     C_3   0.192179 0.645535 0.546070 -0.232049
C20   C     C_3   0.807944 0.645251 0.454598 -0.232188
C21   C     C_3   0.756660 0.939715 0.479502 -0.216329
C22   C     C_3   0.243083 0.938747 0.518312 -0.218283
C23   C     C_3   0.256660 0.439715 0.479502 -0.216329
C24   C     C_3   0.752750 0.555994 0.563162 0.066692
C25   C     C_3   0.743082 0.438747 0.518312 -0.218283
C26   C     C_2   0.661565 0.227455 0.082988 0.203237
C27   C     C_2   0.342363 0.234937 0.914172 0.190189
C28   C     C_2   0.161566 0.727456 0.082988 0.203238
C29   C     C_2   0.842364 0.734937 0.914172 0.190189
C30   C     C_3   0.759713 0.090525 0.574170 0.066284
C31   C     C_3   0.240183 0.090743 0.425821 0.066425
C32   C     C_3   0.259713 0.590525 0.574170 0.066284
C33   C     C_3   0.740183 0.590742 0.425821 0.066425
C34   C     C_3   0.752955 0.958205 0.560779 -0.263837
C35   C     C_3   0.246460 0.958203 0.437208 -0.261659
C36   C     C_3   0.252955 0.458205 0.560779 -0.263837
C37   C     C_R   0.238987 0.524273 0.360639 0.541888
C38   C     C_3   0.746460 0.458203 0.437208 -0.261659
C39   C     C_3   0.823164 0.133895 0.531321 -0.214655
C40   C     C_3   0.176926 0.133338 0.469742 -0.214363
C41   C     C_3   0.323164 0.633895 0.531321 -0.214655
C42   C     C_3   0.676926 0.633338 0.469742 -0.214363
C43   C     C_3   0.003963 0.205501 0.458145 -0.231059
C44   C     C_3   0.996413 0.205115 0.540064 -0.233002
C45   C     C_3   0.503963 0.705501 0.458145 -0.231059
C46   C     C_3   0.496413 0.705115 0.540064 -0.233002
C47   C     C_3   0.064970 0.406690 0.475542 -0.214100
C48   C     C_R   0.261220 0.023071 0.639024 0.536040
C49   C     C_3   0.935270 0.405641 0.525300 -0.212235
C50   C     C_3   0.564970 0.906690 0.475542 -0.214100
C51   C     C_3   0.435270 0.905641 0.525300 -0.212235
C52   C     C_3   0.941640 0.390535 0.444180 -0.261991
C53   C     C_3   0.058603 0.390754 0.556472 -0.261270
C54   C     C_3   0.441640 0.890536 0.444180 -0.261991
C55   C     C_3   0.558603 0.890754 0.556472 -0.261270
C56   C     C_3   0.010782 0.333766 0.430957 0.064254
C57   C     C_3   0.989402 0.332983 0.568969 0.064485
C58   C     C_3   0.510782 0.833766 0.430957 0.064254
C59   C     C_R   0.738987 0.024273 0.360639 0.541889
C60   C     C_3   0.489402 0.832983 0.568969 0.064485
C61   C     C_3   0.809740 0.007623 0.042750 -0.244261
C62   C     C_3   0.181656 0.045581 0.950227 -0.247978
C63   C     C_3   0.309740 0.507622 0.042749 -0.244262
C64   C     C_3   0.681656 0.545581 0.950227 -0.247979
C65   C     C_R   0.773754 0.120539 0.649600 0.535814
C66   C     C_R   0.226125 0.121159 0.350576 0.535521
C67   C     C_R   0.273754 0.620539 0.649600 0.535814
C68   C     C_R   0.726125 0.621159 0.350576 0.535521
C69   C     C_3   0.814711 0.020631 0.963381 -0.231028
C70   C     C_3   0.811288 0.131329 0.450212 -0.262731
C71   C     C_3   0.177160 0.052180 0.030040 -0.232466
C72   C     C_3   0.314711 0.520631 0.963381 -0.231029
C73   C     C_3   0.677160 0.552181 0.030040 -0.232467
C74   C     C_3   0.682660 0.988818 0.013656 -0.230729
C75   C     C_3   0.304008 0.989429 0.969352 -0.205259
C76   C     C_3   0.182659 0.488818 0.013656 -0.230728
C77   C     C_3   0.804008 0.489429 0.969352 -0.205259
C78   C     C_3   0.730642 0.176813 0.063024 -0.061138
C79   C     C_3   0.274626 0.198040 0.946621 -0.096725
C80   C     C_3   0.230642 0.676813 0.063024 -0.061138
C81   C     C_3   0.188917 0.129758 0.550815 -0.261129
C82   C     C_3   0.774626 0.698039 0.946621 -0.096724
C83   C     C_3   0.736583 0.041008 0.068025 0.042951
C84   C     C_3   0.255545 0.069811 0.926158 0.041872
C85   C     C_3   0.236583 0.541008 0.068025 0.042952
C86   C     C_3   0.755546 0.569811 0.926158 0.041872
C87   C     C_3   0.758001 0.103378 0.934735 0.029085
C88   C     C_3   0.243862 0.095991 0.066339 0.024722
C89   C     C_3   0.258001 0.603378 0.934735 0.029085
C90   C     C_3   0.743862 0.595990 0.066339 0.024722
C91   C     C_3   0.689945 0.038678 0.937577 -0.229850
C92   C     C_3   0.311288 0.631329 0.450212 -0.262731
C93   C     C_3   0.294750 0.998054 0.052293 -0.262238
C94   C     C_3   0.189945 0.538678 0.937577 -0.229850
C95   C     C_3   0.794749 0.498053 0.052293 -0.262238
C96   C     C_3   0.751276 0.210851 0.986383 -0.209934
C97   C     C_3   0.274433 0.206744 0.030110 -0.180868
C98   C     C_3   0.251277 0.710851 0.986383 -0.209934
C99   C     C_3   0.774433 0.706743 0.030110 -0.180868
C100  C     C_3   0.998867 0.481718 0.041655 -0.217202
C101  C     C_3   0.997924 0.481791 0.960720 -0.217879
C102  C     C_3   0.498867 0.981718 0.041655 -0.217202
C103  C     C_3   0.688917 0.629758 0.550815 -0.261129
C104  C     C_3   0.497924 0.981791 0.960720 -0.217878
C105  C     C_3   0.060548 0.279179 0.028380 -0.218812
C106  C     C_3   0.931741 0.285343 0.971084 -0.216905
C107  C     C_3   0.560547 0.779179 0.028381 -0.218812
C108  C     C_3   0.431741 0.785343 0.971084 -0.216905
C109  C     C_3   0.938300 0.292496 0.053899 -0.268122
C110  C     C_3   0.054580 0.289154 0.946418 -0.267692
C111  C     C_3   0.438300 0.792496 0.053899 -0.268122
C112  C     C_3   0.554580 0.789154 0.946418 -0.267692
C113  C     C_R   0.968897 0.341989 0.644909 0.533380
C114  C     C_3   0.747283 0.057322 0.436605 0.065711
C115  C     C_R   0.031231 0.342446 0.355126 0.534978
C116  C     C_R   0.468897 0.841989 0.644909 0.533380
C117  C     C_R   0.531231 0.842446 0.355126 0.534978
C118  C     C_3   0.006877 0.352838 0.070264 0.049329
C119  C     C_3   0.988556 0.353752 0.930859 0.045344
C120  C     C_3   0.506877 0.852838 0.070264 0.049328
C121  C     C_3   0.488556 0.853752 0.930859 0.045344
C122  C     C_R   0.760681 0.535823 0.848517 0.511703
C123  C     C_R   0.228714 0.497749 0.143285 0.527829
C124  C     C_R   0.260681 0.035823 0.848517 0.511703
Cr1   Cr    Cr6+3 0.885690 0.492860 0.745310 1.002068
Cr2   Cr    Cr6+3 0.111880 0.178590 0.246990 0.998007
Cr3   Cr    Cr6+3 0.388120 0.678590 0.753010 0.999641
Cr4   Cr    Cr6+3 0.611880 0.678590 0.246990 0.998007
Cr5   Cr    Cr6+3 0.114310 0.492860 0.254690 0.998507
Cr6   Cr    Cr6+3 0.385690 0.992860 0.745310 1.002068
Cr7   Cr    Cr6+3 0.614310 0.992860 0.254690 0.998507
Cr8   Cr    Cr6+3 0.729880 0.332270 0.748190 1.003010
Cr9   Cr    Cr6+3 0.270120 0.332270 0.251810 0.996856
Cr10  Cr    Cr6+3 0.229880 0.832270 0.748190 1.003009
Cr11  Cr    Cr6+3 0.770120 0.832270 0.251810 0.996856
Cr12  Cr    Cr6+3 0.888120 0.178590 0.753010 0.999641
H1    H     H_    0.637985 0.097040 0.448542 0.133075
H2    H     H_    0.190301 0.908191 0.528299 0.123639
H3    H     H_    0.546339 0.018921 0.940952 0.134272
H4    H     H_    0.612534 0.794671 0.048965 0.107072
H5    H     H_    0.384211 0.817608 0.950685 0.105504
H6    H     H_    0.112534 0.294669 0.048965 0.107073
H7    H     H_    0.884211 0.317607 0.950685 0.105504
H8    H     H_    0.599204 0.835260 0.923699 0.105597
H9    H     H_    0.395234 0.841003 0.077830 0.106606
H10   H     H_    0.099205 0.335260 0.923698 0.105597
H11   H     H_    0.895234 0.341003 0.077830 0.106606
H12   H     H_    0.937007 0.202555 0.076991 0.116356
H13   H     H_    0.309549 0.410311 0.469254 0.125256
H14   H     H_    0.051505 0.200048 0.921318 0.122665
H15   H     H_    0.437007 0.702556 0.076991 0.116356
H16   H     H_    0.551505 0.700048 0.921318 0.122665
H17   H     H_    0.934860 0.191415 0.955321 0.137451
H18   H     H_    0.046599 0.186592 0.040248 0.136763
H19   H     H_    0.434860 0.691415 0.955321 0.137451
H20   H     H_    0.546599 0.686592 0.040249 0.136764
H21   H     H_    0.647813 0.101858 0.570821 0.106809
H22   H     H_    0.352021 0.101489 0.429085 0.106832
H23   H     H_    0.147813 0.601858 0.570821 0.106809
H24   H     H_    0.690301 0.408191 0.528299 0.123639
H25   H     H_    0.852021 0.601489 0.429085 0.106832
H26   H     H_    0.722801 0.868865 0.461072 0.109681
H27   H     H_    0.277316 0.868345 0.535052 0.108469
H28   H     H_    0.222801 0.368865 0.461072 0.109681
H29   H     H_    0.777316 0.368345 0.535052 0.108469
H30   H     H_    0.704294 0.924174 0.582100 0.104216
H31   H     H_    0.294901 0.924285 0.415040 0.104009
H32   H     H_    0.204294 0.424174 0.582100 0.104216
H33   H     H_    0.794901 0.424285 0.415040 0.104009
H34   H     H_    0.855652 0.090883 0.423006 0.123109
H35   H     H_    0.795021 0.910249 0.588046 0.119503
H36   H     H_    0.144434 0.088784 0.577375 0.122754
H37   H     H_    0.355652 0.590883 0.423006 0.123109
H38   H     H_    0.644434 0.588784 0.577375 0.122754
H39   H     H_    0.804940 0.221584 0.429187 0.104691
H40   H     H_    0.195461 0.219835 0.573457 0.103961
H41   H     H_    0.304940 0.721584 0.429187 0.104691
H42   H     H_    0.695461 0.719835 0.573457 0.103961
H43   H     H_    0.842008 0.219755 0.550250 0.114298
H44   H     H_    0.158156 0.219369 0.452667 0.112597
H45   H     H_    0.342008 0.719755 0.550250 0.114298
H46   H     H_    0.204104 0.910285 0.409365 0.120767
H47   H     H_    0.658156 0.719369 0.452667 0.112597
H48   H     H_    0.653830 0.261100 0.136789 0.131041
H49   H     H_    0.343744 0.257497 0.858015 0.133563
H50   H     H_    0.153831 0.761102 0.136789 0.131040
H51   H     H_    0.843744 0.757496 0.858015 0.133563
H52   H     H_    0.295021 0.410249 0.588046 0.119503
H53   H     H_    0.704104 0.410284 0.409365 0.120767
H54   H     H_    0.046399 0.151229 0.441213 0.130765
H55   H     H_    0.954249 0.149900 0.556291 0.128848
H56   H     H_    0.546399 0.651229 0.441213 0.130765
H57   H     H_    0.362092 0.096108 0.551175 0.131808
H58   H     H_    0.454249 0.649900 0.556291 0.128848
H59   H     H_    0.959204 0.161879 0.432761 0.107967
H60   H     H_    0.041353 0.162264 0.564700 0.107234
H61   H     H_    0.459204 0.661879 0.432761 0.107967
H62   H     H_    0.541353 0.662264 0.564700 0.107234
H63   H     H_    0.617032 0.891819 0.457557 0.112041
H64   H     H_    0.383126 0.890915 0.543045 0.111462
H65   H     H_    0.117032 0.391819 0.457557 0.112041
H66   H     H_    0.883126 0.390914 0.543045 0.111462
H67   H     H_    0.600467 0.835578 0.577806 0.103397
H68   H     H_    0.137985 0.597040 0.448542 0.133075
H69   H     H_    0.399758 0.835158 0.421863 0.104238
H70   H     H_    0.100467 0.335578 0.577806 0.103397
H71   H     H_    0.899758 0.335158 0.421863 0.104238
H72   H     H_    0.938592 0.477712 0.417838 0.121859
H73   H     H_    0.061797 0.477699 0.584252 0.122897
H74   H     H_    0.438592 0.977712 0.417838 0.121859
H75   H     H_    0.561797 0.977699 0.584252 0.122897
H76   H     H_    0.947635 0.499520 0.536395 0.130303
H77   H     H_    0.052770 0.500507 0.465886 0.128405
H78   H     H_    0.447635 0.999520 0.536395 0.130303
H79   H     H_    0.862092 0.596108 0.551175 0.131808
H80   H     H_    0.552770 0.000507 0.465886 0.128405
H81   H     H_    0.825950 0.917733 0.056695 0.157985
H82   H     H_    0.162562 0.956277 0.934669 0.174445
H83   H     H_    0.325949 0.417733 0.056695 0.157985
H84   H     H_    0.662563 0.456277 0.934669 0.174445
H85   H     H_    0.688234 0.221336 0.440332 0.106327
H86   H     H_    0.312351 0.220310 0.561613 0.106812
H87   H     H_    0.188234 0.721336 0.440332 0.106327
H88   H     H_    0.812351 0.720310 0.561613 0.106812
H89   H     H_    0.847933 0.066740 0.069346 0.129763
H90   H     H_    0.863563 0.068011 0.541783 0.127646
H91   H     H_    0.147433 0.109965 0.924618 0.110111
H92   H     H_    0.347933 0.566740 0.069346 0.129764
H93   H     H_    0.647433 0.609965 0.924618 0.110111
H94   H     H_    0.867277 0.048411 0.951500 0.150189
H95   H     H_    0.136269 0.108572 0.043872 0.139115
H96   H     H_    0.367277 0.548411 0.951500 0.150189
H97   H     H_    0.636271 0.608576 0.043871 0.139114
H98   H     H_    0.807349 0.935114 0.936925 0.152998
H99   H     H_    0.162385 0.964388 0.051184 0.163504
H100  H     H_    0.307349 0.435113 0.936925 0.152998
H101  H     H_    0.136120 0.067651 0.458317 0.127415
H102  H     H_    0.662383 0.464390 0.051184 0.163506
H103  H     H_    0.687504 0.895828 0.005212 0.083176
H104  H     H_    0.293211 0.903437 0.947756 0.097634
H105  H     H_    0.187504 0.395828 0.005211 0.083176
H106  H     H_    0.793211 0.403437 0.947756 0.097634
H107  H     H_    0.688079 0.966747 0.896571 0.087953
H108  H     H_    0.276357 0.913565 0.074201 0.103574
H109  H     H_    0.188078 0.466747 0.896571 0.087952
H110  H     H_    0.776356 0.413564 0.074201 0.103575
H111  H     H_    0.767916 0.216221 0.102039 0.065514
H112  H     H_    0.363563 0.568011 0.541783 0.127646
H113  H     H_    0.234871 0.258008 0.924974 0.060671
H114  H     H_    0.267916 0.716221 0.102039 0.065514
H115  H     H_    0.734871 0.758008 0.924975 0.060671
H116  H     H_    0.802243 0.244706 0.994885 0.080502
H117  H     H_    0.246886 0.281876 0.050216 0.092092
H118  H     H_    0.302243 0.744707 0.994885 0.080502
H119  H     H_    0.746887 0.781876 0.050216 0.092093
H120  H     H_    0.715703 0.276655 0.963376 0.163168
H121  H     H_    0.327055 0.219385 0.051792 0.182068
H122  H     H_    0.215703 0.776655 0.963376 0.163167
H123  H     H_    0.636120 0.567651 0.458317 0.127415
H124  H     H_    0.827055 0.719385 0.051792 0.182068
H125  H     H_    0.631954 0.003595 0.033741 0.158351
H126  H     H_    0.356879 0.010440 0.956620 0.156153
H127  H     H_    0.131954 0.503595 0.033741 0.158352
H128  H     H_    0.856879 0.510440 0.956620 0.156153
H129  H     H_    0.687259 0.237743 0.562275 0.139257
H130  H     H_    0.313426 0.237275 0.439655 0.135963
H131  H     H_    0.187259 0.737743 0.562275 0.139257
H132  H     H_    0.813426 0.737275 0.439655 0.135963
H133  H     H_    0.647870 0.100876 0.925096 0.173893
H134  H     H_    0.809549 0.910311 0.469254 0.125256
H135  H     H_    0.343145 0.020152 0.080168 0.112921
H136  H     H_    0.147870 0.600877 0.925096 0.173893
H137  H     H_    0.843145 0.520150 0.080168 0.112920
H138  H     H_    0.035998 0.547410 0.061960 0.192135
H139  H     H_    0.959323 0.545093 0.942091 0.194252
H140  H     H_    0.535998 0.047410 0.061960 0.192134
H141  H     H_    0.459323 0.045093 0.942091 0.194252
H142  H     H_    0.950586 0.519744 0.061084 0.126608
H143  H     H_    0.046339 0.518921 0.940952 0.134272
H144  H     H_    0.450586 0.019744 0.061084 0.126608
O1    O     O_R   0.957210 0.449410 0.665480 -0.533298
O2    O     O_R   0.167480 0.095300 0.164000 -0.528692
O3    O     O_R   0.332520 0.595300 0.836000 -0.531682
O4    O     O_R   0.667480 0.595300 0.164000 -0.528692
O5    O     O_R   0.946380 0.253940 0.826940 -0.510896
O6    O     O_R   0.053620 0.253940 0.173060 -0.507924
O7    O     O_R   0.446380 0.753940 0.826940 -0.510896
O8    O     O_R   0.553620 0.753940 0.173060 -0.507924
O9    O     O_3   0.834560 0.334570 0.748840 -0.274766
O10   O     O_3   0.165440 0.334570 0.251160 -0.282347
O11   O     O_3   0.334560 0.834570 0.748840 -0.274766
O12   O     O_R   0.042790 0.449410 0.334520 -0.532656
O13   O     O_3   0.665440 0.834570 0.251160 -0.282347
O14   O     O_R   0.820730 0.541240 0.668250 -0.517824
O15   O     O_R   0.179270 0.541240 0.331750 -0.514062
O16   O     O_R   0.320730 0.041240 0.668250 -0.517824
O17   O     O_R   0.679270 0.041240 0.331750 -0.514062
O18   O     O_R   0.714240 0.455060 0.663710 -0.531687
O19   O     O_R   0.285760 0.455060 0.336290 -0.528686
O20   O     O_R   0.214240 0.955060 0.663710 -0.531687
O21   O     O_R   0.785760 0.955060 0.336290 -0.528686
O22   O     O_R   0.736780 0.204870 0.675910 -0.514693
O23   O     O_R   0.457210 0.949410 0.665480 -0.533298
O24   O     O_R   0.263220 0.204870 0.324090 -0.514639
O25   O     O_R   0.236780 0.704870 0.675910 -0.514693
O26   O     O_R   0.763220 0.704870 0.324090 -0.514639
O27   O     O_R   0.833070 0.087590 0.673490 -0.529613
O28   O     O_R   0.166930 0.087590 0.326510 -0.531171
O29   O     O_R   0.333070 0.587590 0.673490 -0.529613
O30   O     O_R   0.666930 0.587590 0.326510 -0.531171
O31   O     O_R   0.946890 0.246800 0.676300 -0.511939
O32   O     O_R   0.053110 0.246800 0.323700 -0.512209
O33   O     O_R   0.446890 0.746800 0.676300 -0.511939
O34   O     O_R   0.542790 0.949410 0.334520 -0.532656
O35   O     O_R   0.553110 0.746800 0.323700 -0.512209
O36   O     O_R   0.956650 0.457120 0.827980 -0.523141
O37   O     O_R   0.043350 0.457120 0.172020 -0.530177
O38   O     O_R   0.456650 0.957120 0.827980 -0.523142
O39   O     O_R   0.543350 0.957120 0.172020 -0.530178
O40   O     O_R   0.820220 0.548390 0.818890 -0.513449
O41   O     O_R   0.179780 0.548390 0.181110 -0.511892
O42   O     O_R   0.320220 0.048390 0.818890 -0.513449
O43   O     O_R   0.679780 0.048390 0.181110 -0.511892
O44   O     O_R   0.713680 0.462770 0.826210 -0.527483
O45   O     O_R   0.736260 0.212010 0.826560 -0.506919
O46   O     O_R   0.286320 0.462770 0.173790 -0.527389
O47   O     O_R   0.213680 0.962770 0.826210 -0.527483
O48   O     O_R   0.786320 0.962770 0.173790 -0.527389
O49   O     O_2   0.614255 0.231292 0.040018 -0.549038
O50   O     O_2   0.394959 0.243514 0.949556 -0.542928
O51   O     O_2   0.114254 0.731291 0.040019 -0.549038
O52   O     O_2   0.894960 0.743514 0.949556 -0.542928
O53   O     O_R   0.263740 0.212010 0.173440 -0.520073
O54   O     O_R   0.236260 0.712010 0.826560 -0.506919
O55   O     O_R   0.763740 0.712010 0.173440 -0.520073
O56   O     O_R   0.832520 0.095300 0.836000 -0.531682

loop_
_geom_bond_atom_site_label_1
_geom_bond_atom_site_label_2
_ccdc_geom_bond_type
C105  C110  S    
C87   C91   S    
Cr6   O23   S    
C107  C112  S    
C74   C83   S    
C90   C95   S    
C4    C87   S    
C1    O14   A    
C61   H81   S    
Cr12  O9    S    
C95   H110  S    
C64   H93   S    
C46   H62   S    
Cr12  O5    S    
C62   H91   S    
Cr6   O16   S    
C36   H32   S    
Cr7   O13   S    
C63   H83   S    
C89   C94   S    
Cr12  O56   S    
C65   O27   A    
C76   C94   S    
C40   H44   S    
C5    C88   S    
C66   O28   A    
C78   C96   S    
C2    C22   S    
C88   C97   S    
C47   C53   S    
C80   C98   S    
C98   H122  S    
C23   H13   S    
C8    O36   A    
C17   C30   S    
C75   H104  S    
C19   C32   S    
C109  C118  S    
Cr3   O29   S    
C44   H60   S    
C81   H40   S    
Cr3   O7    S    
C1    O18   A    
Cr10  O11   S    
Cr4   O8    S    
C18   H130  S    
C67   O29   A    
C72   H100  S    
C36   H52   S    
C16   H79   S    
C43   C44   S    
C44   C57   S    
C16   C20   S    
C54   H69   S    
C55   H67   S    
C29   O52   D    
Cr10  O20   S    
C96   H120  S    
C49   H66   S    
C20   C33   S    
C3    C83   S    
Cr10  O47   S    
Cr9   O24   S    
C105  C118  S    
C16   H88   S    
C107  C120  S    
C75   C93   S    
C38   H33   S    
Cr8   O44   S    
C123  O41   A    
C46   C60   S    
C79   C97   S    
C110  H14   S    
C93   H108  S    
C27   O50   D    
C33   C38   S    
C108  C111  S    
C76   H105  S    
C19   H23   S    
C29   C82   S    
Cr10  O25   S    
C108  H19   S    
C85   C123  S    
C58   C117  S    
C2    C14   S    
C94   H109  S    
C71   C88   S    
C74   H125  S    
Cr11  O55   S    
C23   C36   S    
C115  O12   A    
C71   H95   S    
Cr8   O9    S    
C2    C81   S    
C18   C31   S    
C48   O20   A    
C76   C85   S    
Cr1   O9    S    
C34   H35   S    
Cr6   O42   S    
C37   O19   A    
C122  O40   A    
C42   C103  S    
C113  O31   A    
Cr8   O18   S    
C33   C42   S    
C32   C36   S    
C68   O26   A    
C73   C90   S    
Cr1   O40   S    
C79   C84   S    
C75   C84   S    
Cr5   O15   S    
C45   H61   S    
C47   H77   S    
C107  H4    S    
C49   C57   S    
C13   C23   S    
C43   H59   S    
C27   H49   S    
C39   H90   S    
C3    O43   A    
Cr6   O11   S    
C32   C41   S    
C71   H99   S    
C17   H21   S    
Cr2   O32   S    
C48   O16   A    
C37   O15   A    
C80   H114  S    
C9    C118  S    
C109  H11   S    
C11   C120  S    
C46   H58   S    
C12   C114  S    
Cr10  O54   S    
C30   C34   S    
C5    O2    A    
C43   H54   S    
C105  H6    S    
C57   C113  S    
C7    C90   S    
C103  H38   S    
C100  H138  S    
Cr5   O41   S    
C86   C122  S    
C28   H50   S    
C25   C38   S    
C93   H135  S    
C94   H136  S    
C53   H70   S    
C32   C67   S    
C51   H78   S    
Cr3   O33   S    
Cr1   O1    S    
Cr5   O10   S    
Cr2   O6    S    
C41   H112  S    
C60   C116  S    
Cr4   O4    S    
C90   C99   S    
C19   H131  S    
C23   H28   S    
C67   O25   A    
Cr11  O48   S    
C62   C84   S    
C21   H26   S    
C72   H96   S    
C110  C119  S    
C39   H43   S    
C50   H63   S    
Cr4   O35   S    
C123  O46   A    
C89   C98   S    
C24   C103  S    
Cr11  O13   S    
C73   H102  S    
C49   H76   S    
C100  C101  S    
C30   C39   S    
C30   C65   S    
C51   H64   S    
C54   H74   S    
C1    C24   S    
C122  O44   A    
C51   C60   S    
C110  H10   S    
C63   C85   S    
C33   C68   S    
C47   C56   S    
C59   O21   A    
C106  C109  S    
Cr7   O39   S    
C106  C119  S    
C52   H71   S    
C82   C99   S    
C6    O3    A    
C108  C121  S    
C68   O30   A    
C20   H132  S    
Cr1   O14   S    
C106  H7    S    
C45   C46   S    
C15   C19   S    
C66   O24   A    
C97   H117  S    
C117  O35   A    
Cr7   O34   S    
C31   C40   S    
Cr2   O10   S    
C78   C83   S    
Cr5   O12   S    
C12   C17   S    
C21   H134  S    
C112  H16   S    
C73   H97   S    
C69   C87   S    
C3    O48   A    
Cr8   O22   S    
C55   C60   S    
C41   H45   S    
Cr1   O36   S    
C40   C81   S    
C64   C86   S    
C108  H5    S    
Cr4   O13   S    
C45   C58   S    
C50   C58   S    
C61   C83   S    
C53   C57   S    
C21   C34   S    
C25   H29   S    
C82   C86   S    
C28   O51   D    
C29   H51   S    
C74   C91   S    
C104  H141  S    
Cr2   O28   S    
C80   C85   S    
C18   H22   S    
C116  O33   A    
C45   H56   S    
C50   H80   S    
C49   C52   S    
C25   H24   S    
C26   C78   S    
C9    O37   A    
C8    O5    A    
Cr12  O31   S    
C14   H57   S    
C11   O39   A    
C13   C92   S    
C65   O22   A    
C31   C35   S    
C100  C118  S    
C96   H116  S    
C102  C120  S    
C124  O42   A    
C100  H142  S    
C101  H143  S    
C102  H144  S    
C63   H92   S    
C22   H2    S    
C95   H137  S    
C104  H3    S    
C2    C48   S    
Cr9   O10   S    
C103  H42   S    
C115  O32   A    
C70   H34   S    
C124  O47   A    
C59   C114  S    
Cr2   O2    S    
C4    O45   A    
C56   C115  S    
C15   H87   S    
C112  C121  S    
C63   C72   S    
C53   H73   S    
Cr7   O17   S    
C34   H30   S    
Cr7   O43   S    
C7    O4    A    
C113  O1    A    
Cr5   O37   S    
C31   C66   S    
C22   H27   S    
C77   H128  S    
C14   C18   S    
Cr12  O27   S    
C10   C121  S    
C15   H68   S    
C97   H121  S    
C70   C114  S    
C35   H46   S    
C22   C35   S    
C9    O6    A    
C62   H82   S    
C11   O8    A    
C27   C79   S    
C111  H9    S    
C44   H55   S    
C5    O53   A    
Cr4   O30   S    
C47   H65   S    
C7    O55   A    
C81   H36   S    
Cr3   O3    S    
C74   H103  S    
C99   H119  S    
C59   O17   A    
Cr6   O38   S    
C62   C71   S    
C17   H129  S    
C70   H39   S    
C13   C37   S    
C107  H20   S    
C38   H53   S    
C105  H18   S    
C75   H126  S    
C16   C24   S    
C79   H113  S    
Cr11  O21   S    
C117  O34   A    
C64   H84   S    
C77   H106  S    
C101  C119  S    
C82   H115  S    
C24   C25   S    
C92   H41   S    
Cr3   O11   S    
C104  C121  S    
C116  O23   A    
Cr9   O53   S    
C77   C95   S    
C61   H89   S    
C111  C120  S    
C69   H98   S    
C42   H123  S    
C35   H31   S    
C64   C73   S    
C87   C96   S    
C78   H111  S    
Cr9   O19   S    
C106  H17   S    
C42   H47   S    
C102  C104  S    
Cr8   O45   S    
C76   H127  S    
C91   H107  S    
C77   C86   S    
C4    O56   A    
C13   C15   S    
C6    O54   A    
C109  H12   S    
C98   H118  S    
C26   O49   D    
C54   C58   S    
C61   C69   S    
C88   C93   S    
C52   H72   S    
C10   O7    A    
C14   H86   S    
C21   C114  S    
C91   H133  S    
C111  H15   S    
Cr9   O46   S    
C92   H37   S    
C84   C124  S    
C6    C89   S    
C50   C55   S    
C51   C54   S    
C112  H8    S    
C69   H94   S    
C8    C119  S    
C72   C89   S    
C40   H101  S    
C10   O38   A    
C99   H124  S    
C20   H25   S    
C39   C70   S    
C28   C80   S    
C12   H85   S    
C55   H75   S    
C43   C56   S    
C41   C92   S    
Cr11  O26   S    
C12   H1    S    
C101  H139  S    
C102  H140  S    
C52   C56   S    
C26   H48   S    
