data_mof_unit_33761.cif
_audit_creation_date              2012-12-10T20:38:24-0500
_audit_creation_method            fapswitch 2.2
_symmetry_space_group_name_H-M    P1
_symmetry_Int_Tables_number       1
_space_group_crystal_system       triclinic
_cell_length_a                    9.888307
_cell_length_b                    10.635734
_cell_length_c                    16.354097
_cell_angle_alpha                 91.043308
_cell_angle_beta                  84.427432
_cell_angle_gamma                 89.555661
_cell_volume                      1711.45997459

loop_
_atom_site_label
_atom_site_type_symbol
_atom_type_description
_atom_site_fract_x
_atom_site_fract_y
_atom_site_fract_z
_atom_type_partial_charge
C1    C     C_R   0.499277 0.739760 0.500561 0.875812
C2    C     C_R   0.528616 0.562459 0.264537 -0.038831
C3    C     C_R   0.397451 0.936086 0.467355 0.120149
C4    C     C_R   0.480228 0.503944 0.654479 0.850221
C5    C     C_R   0.495073 0.871805 0.506287 -0.090716
C6    C     C_R   0.581345 0.935857 0.555404 -0.238985
C7    C     C_R   0.581928 0.065944 0.555419 -0.222688
C8    C     C_R   0.496384 0.128753 0.506141 -0.078551
C9    C     C_R   0.397891 0.064300 0.467538 0.126840
C10   C     C_3   0.366827 0.070170 0.380083 -0.475242
C11   C     C_3   0.367682 0.927762 0.379488 -0.491129
C12   C     C_R   0.340197 0.569852 0.783047 -0.196934
C13   C     C_R   0.921293 0.591480 0.542002 0.199749
C14   C     C_R   0.936584 0.402945 0.464884 -0.005232
C15   C     C_R   0.079848 0.403481 0.465604 -0.170580
C16   C     C_R   0.500062 0.260347 0.500533 0.891879
C17   C     C_R   0.063733 0.591582 0.541738 0.206197
C18   C     C_3   0.071007 0.728982 0.526024 -0.498618
C19   C     C_3   0.917588 0.729193 0.526581 -0.515494
C20   C     C_R   0.519210 0.508124 0.346155 0.856361
C21   C     C_R   0.466632 0.533025 0.742721 -0.039799
C22   C     C_R   0.583279 0.539789 0.784817 -0.213387
C23   C     C_R   0.438561 0.715519 0.174316 0.030588
C24   C     C_R   0.574735 0.586591 0.864900 -0.154012
C25   C     C_R   0.449248 0.628446 0.904189 0.195467
C26   C     C_R   0.331686 0.616730 0.863500 -0.182203
C27   C     C_R   0.879227 0.298223 0.420041 0.185783
C28   C     C_R   0.845789 0.315079 0.339714 -0.104753
C29   C     C_R   0.799979 0.213792 0.294465 -0.192058
C30   C     C_R   0.792109 0.094020 0.328302 -0.125404
C31   C     C_R   0.831653 0.075301 0.406952 -0.116091
C32   C     C_R   0.875652 0.176907 0.452706 -0.164243
C33   C     C_R   0.336574 0.815424 0.162468 0.114761
C34   C     C_R   0.429047 0.650763 0.248052 -0.265312
C35   C     C_R   0.197314 0.795563 0.184581 -0.190506
C36   C     C_R   0.102774 0.892474 0.178218 -0.132120
C37   C     C_R   0.146082 0.009933 0.149803 -0.104110
C38   C     C_R   0.283984 0.030560 0.127409 -0.138523
C39   C     C_R   0.378951 0.933963 0.133709 -0.123810
C40   C     C_R   0.641802 0.541923 0.207820 -0.219221
C41   C     C_R   0.650972 0.603102 0.133083 -0.180353
C42   C     C_R   0.547773 0.686186 0.114697 0.136914
C43   C     C_2   0.436324 0.669167 0.990874 -0.203634
C44   C     C_2   0.541699 0.713956 0.027848 -0.256971
H1    H     H_    0.681853 0.511016 0.755437 0.152650
H2    H     H_    0.107197 0.782826 0.578434 0.201737
H3    H     H_    0.346092 0.673242 0.294431 0.157503
H4    H     H_    0.124241 0.749943 0.464862 0.211456
H5    H     H_    0.865806 0.782818 0.579676 0.193350
H6    H     H_    0.882152 0.751174 0.465911 0.214073
H7    H     H_    0.720542 0.476015 0.219887 0.131058
H8    H     H_    0.635662 0.738609 0.992066 0.146531
H9    H     H_    0.233543 0.644982 0.893789 0.126295
H10   H     H_    0.248594 0.565960 0.751794 0.152726
H11   H     H_    0.343408 0.643482 0.027646 0.157550
H12   H     H_    0.734534 0.579478 0.087362 0.128994
H13   H     H_    0.666332 0.587230 0.896067 0.121189
H14   H     H_    0.858249 0.406236 0.311993 0.117392
H15   H     H_    0.772649 0.227737 0.232759 0.123277
H16   H     H_    0.757333 0.015464 0.293171 0.123296
H17   H     H_    0.828006 0.982147 0.432522 0.139963
H18   H     H_    0.906848 0.161212 0.513405 0.118580
H19   H     H_    0.161829 0.705188 0.206843 0.125287
H20   H     H_    0.995922 0.876633 0.195635 0.125700
H21   H     H_    0.072806 0.085020 0.145300 0.121911
H22   H     H_    0.317490 0.121802 0.105772 0.126474
H23   H     H_    0.650238 0.885803 0.591070 0.154437
H24   H     H_    0.485716 0.952473 0.117791 0.120154
H25   H     H_    0.651853 0.116709 0.590679 0.155793
H26   H     H_    0.264652 0.111512 0.374312 0.204585
H27   H     H_    0.451067 0.110776 0.339065 0.198265
H28   H     H_    0.266355 0.886952 0.372238 0.203130
H29   H     H_    0.453306 0.885817 0.338595 0.200984
H30   H     H_    0.141097 0.328021 0.435560 0.154363
N1    N     N_R   0.857140 0.500860 0.500530 -0.124108
N2    N     N_R   0.142780 0.500820 0.500530 -0.109098
O1    O     O_R   0.385310 0.683210 0.499990 -0.618034
O2    O     O_R   0.614650 0.683240 0.500000 -0.620133
O3    O     O_R   0.371780 0.500000 0.615800 -0.610982
O4    O     O_R   0.601120 0.500040 0.615800 -0.615633
O5    O     O_R   0.385350 0.316760 0.500000 -0.619553
O6    O     O_R   0.614690 0.316790 0.500010 -0.604225
O7    O     O_R   0.398880 0.499960 0.384200 -0.612675
O8    O     O_R   0.628220 0.500000 0.384200 -0.610389
Zn1   Zn    Zn3+2 0.346870 0.499980 0.499990 0.934273
Zn2   Zn    Zn3+2 0.653130 0.500020 0.500010 0.940638

loop_
_geom_bond_atom_site_label_1
_geom_bond_atom_site_label_2
_ccdc_geom_bond_type
C1    O1    A    
C39   H24   S    
C31   H17   S    
C35   C36   A    
C25   C43   S    
C7    C8    A    
C33   C39   A    
C23   C42   A    
C1    C5    S    
C28   C29   A    
O8    Zn2   S    
C4    O4    A    
C30   C31   A    
C18   C19   S    
C41   C42   A    
O4    Zn2   S    
C29   H15   S    
C8    C9    A    
C23   C33   S    
C37   H21   S    
C17   N2    A    
C13   N1    A    
C14   C27   S    
C29   C30   A    
C9    C10   S    
C10   H27   S    
C44   H8    S    
C15   N2    A    
O1    Zn1   S    
C8    C16   S    
C21   C22   A    
C1    O2    A    
C42   C44   S    
C18   H2    S    
C38   C39   A    
C13   C19   S    
C2    C20   S    
C38   H22   S    
C24   C25   A    
C4    O3    A    
C11   H29   S    
C11   H28   S    
C24   H13   S    
C25   C26   A    
O6    Zn2   S    
C12   C21   A    
C12   C26   A    
C43   C44   D    
C41   H12   S    
C37   C38   A    
C3    C9    A    
C19   H5    S    
N1    Zn2   S    
C31   C32   A    
C23   C34   A    
C15   H30   S    
C16   O6    A    
C17   C18   S    
C10   H26   S    
C43   H11   S    
C40   C41   A    
O7    Zn1   S    
C20   O8    A    
C22   C24   A    
C26   H9    S    
O3    Zn1   S    
C30   H16   S    
C6    H23   S    
C27   C32   A    
C3    C5    A    
C18   H4    S    
C7    H25   S    
C6    C7    A    
C28   H14   S    
C40   H7    S    
C13   C17   A    
C14   N1    A    
C32   H18   S    
C4    C21   S    
C19   H6    S    
C2    C34   A    
C5    C6    A    
C16   O5    A    
C33   C35   A    
C12   H10   S    
C3    C11   S    
C10   C11   S    
C2    C40   A    
C22   H1    S    
C36   C37   A    
O2    Zn2   S    
C20   O7    A    
C27   C28   A    
C14   C15   A    
C35   H19   S    
C34   H3    S    
C36   H20   S    
N2    Zn1   S    
O5    Zn1   S    
