data_mof_unit_35354.cif
_audit_creation_date              2012-12-11T17:04:50-0500
_audit_creation_method            fapswitch 2.2
_symmetry_space_group_name_H-M    P1
_symmetry_Int_Tables_number       1
_space_group_crystal_system       triclinic
_cell_length_a                    17.428196
_cell_length_b                    24.359814
_cell_length_c                    14.947352
_cell_angle_alpha                 89.722421
_cell_angle_beta                  125.548449
_cell_angle_gamma                 90.068575
_cell_volume                      5163.07649131

loop_
_atom_site_label
_atom_site_type_symbol
_atom_type_description
_atom_site_fract_x
_atom_site_fract_y
_atom_site_fract_z
_atom_type_partial_charge
C1    C     C_R   0.809985 0.625739 0.906115 -0.098752
C2    C     C_R   0.926411 0.499071 0.628839 0.055827
C3    C     C_R   0.769250 0.046882 0.252685 -0.115481
C4    C     C_R   0.812946 0.374062 0.909242 -0.123667
C5    C     C_R   0.149653 0.349042 0.088698 -0.131813
C6    C     C_R   0.352096 0.848768 0.911603 -0.121424
C7    C     C_R   0.648373 0.848649 0.088901 -0.132558
C8    C     C_R   0.907805 0.634814 0.089408 0.000883
C9    C     C_R   0.091361 0.634539 0.908795 0.002810
C10   C     C_R   0.406276 0.132763 0.090025 0.008068
C11   C     C_R   0.547748 0.154786 0.909177 -0.016408
C12   C     C_R   0.816068 0.644980 0.996776 -0.059379
C13   C     C_R   0.545191 0.998570 0.355139 0.078397
C14   C     C_R   0.181059 0.647794 0.001579 -0.058810
C15   C     C_R   0.314441 0.142709 0.997222 -0.053595
C16   C     C_R   0.612099 0.186455 0.999823 -0.040854
C17   C     C_1   0.849158 0.400333 0.469682 0.030061
C18   C     C_1   0.000561 0.394844 0.446047 0.019581
C19   C     C_1   0.710379 0.945214 0.747812 0.076550
C20   C     C_1   0.704428 0.943381 0.550351 0.069457
C21   C     C_2   0.960695 0.669455 0.188457 0.420948
C22   C     C_2   0.038007 0.665079 0.803849 0.445398
C23   C     C_2   0.457534 0.165089 0.192231 0.422468
C24   C     C_R   0.556207 0.001031 0.735318 0.041360
C25   C     C_2   0.459459 0.176294 0.809368 0.423499
C26   C     C_R   0.696305 0.500906 0.637482 0.039634
C27   C     C_R   0.325090 0.498411 0.306049 0.029504
C28   C     C_R   0.188370 0.999397 0.644460 0.014299
C29   C     C_R   0.824707 0.000797 0.280423 0.024737
C30   C     C_3   0.528687 0.471691 0.549375 -0.143763
C31   C     C_3   0.486687 0.446287 0.435778 -0.163403
C32   C     C_3   0.032941 0.948237 0.493335 -0.161528
C33   C     C_R   0.186071 0.630204 0.092571 -0.093479
C34   C     C_3   0.003044 0.965942 0.377686 -0.155401
C35   C     C_3   0.465808 0.522670 0.497366 -0.148815
C36   C     C_3   0.562000 0.475208 0.428439 -0.146847
C37   C     C_3   0.953370 0.982967 0.480208 -0.131220
C38   C     C_3   0.069056 0.016699 0.427698 -0.140786
C39   C     C_3   0.424714 0.497424 0.384838 0.185823
C40   C     C_3   0.602150 0.500650 0.540655 0.183625
C41   C     C_3   0.924651 0.000713 0.365982 0.177095
C42   C     C_3   0.096448 0.998874 0.541141 0.181129
C43   C     C_3   0.497285 0.526377 0.374776 -0.150077
C44   C     C_R   0.309297 0.124480 0.906526 -0.123117
C45   C     C_3   0.539911 0.551698 0.489132 -0.169594
C46   C     C_3   0.988284 0.051370 0.413698 -0.162110
C47   C     C_3   0.017612 0.033475 0.528620 -0.151590
C48   C     C_R   0.754482 0.314887 0.099522 0.149691
C49   C     C_R   0.123823 0.244531 0.888846 0.142446
C50   C     C_R   0.381539 0.742953 0.112056 0.146760
C51   C     C_R   0.620089 0.743200 0.888986 0.144167
C52   C     C_R   0.741684 0.332598 0.002244 0.034997
C53   C     C_R   0.140121 0.262490 0.987127 0.036951
C54   C     C_R   0.365444 0.761293 0.013793 0.035436
C55   C     C_R   0.645871 0.153463 0.091448 -0.115910
C56   C     C_R   0.637410 0.761510 0.987726 0.034142
C57   C     C_R   0.659815 0.315371 0.902500 -0.192676
C58   C     C_R   0.186235 0.226967 0.078639 -0.192592
C59   C     C_R   0.315585 0.727220 0.921017 -0.192303
C60   C     C_R   0.687262 0.727031 0.080541 -0.189671
C61   C     C_R   0.904807 0.374134 0.092900 -0.140694
C62   C     C_R   0.057045 0.350815 0.905328 -0.138704
C63   C     C_R   0.446222 0.849811 0.094855 -0.144879
C64   C     C_R   0.554488 0.849801 0.906011 -0.150006
C65   C     C_R   0.262717 0.683745 0.920275 -0.217997
C66   C     C_R   0.816408 0.359711 0.001683 0.071552
C67   C     C_R   0.737733 0.682555 0.080119 -0.225832
C68   C     C_R   0.610168 0.270241 0.901043 -0.219338
C69   C     C_R   0.234207 0.181108 0.077883 -0.222159
C70   C     C_R   0.257604 0.677108 0.010145 0.052292
C71   C     C_R   0.740107 0.674690 0.988677 0.050234
C72   C     C_R   0.636787 0.244261 0.999928 0.037825
C73   C     C_R   0.238668 0.173315 0.987883 0.052600
C74   C     C_R   0.327531 0.701474 0.110036 0.155106
C75   C     C_R   0.671143 0.700265 0.889560 0.160101
C76   C     C_R   0.702196 0.271710 0.098304 0.193216
C77   C     C_R   0.120088 0.319143 0.995099 0.070128
C78   C     C_R   0.172948 0.200563 0.889311 0.159900
C79   C     C_3   0.321972 0.728143 0.196321 -0.499162
C80   C     C_3   0.678175 0.726443 0.803700 -0.489356
C81   C     C_3   0.783684 0.251149 0.208000 -0.512803
C82   C     C_3   0.183929 0.226795 0.806416 -0.499549
C83   C     C_3   0.840342 0.298230 0.209140 -0.514733
C84   C     C_3   0.129722 0.275133 0.805786 -0.499681
C85   C     C_3   0.381134 0.773772 0.198474 -0.513237
C86   C     C_3   0.622181 0.773741 0.803023 -0.514320
C87   C     C_R   0.904104 0.547615 0.475939 0.121763
C88   C     C_R   0.384478 0.818043 0.005484 0.072720
C89   C     C_R   0.947693 0.546348 0.422261 0.149356
C90   C     C_R   0.486484 0.021963 0.547742 0.136400
C91   C     C_R   0.481606 0.019418 0.454310 0.155002
C92   C     C_R   0.889205 0.498772 0.512398 -0.044100
C93   C     C_R   0.980070 0.496882 0.407292 -0.042148
C94   C     C_R   0.565193 0.002315 0.646764 -0.051180
C95   C     C_R   0.555489 0.997470 0.456142 -0.052831
C96   C     C_R   0.897589 0.449174 0.471405 -0.005916
C97   C     C_R   0.957488 0.447158 0.437573 -0.008382
C98   C     C_R   0.634747 0.972110 0.647970 -0.031189
C99   C     C_R   0.617225 0.818148 0.995583 0.077728
C100  C     C_R   0.630531 0.970154 0.550975 -0.030921
C101  C     C_3   0.877777 0.585109 0.334622 -0.524759
C102  C     C_3   0.828559 0.585126 0.390259 -0.459244
C103  C     C_3   0.429924 0.072739 0.411161 -0.527011
C104  C     C_3   0.435772 0.075918 0.516234 -0.432477
C105  C     C_R   0.021675 0.544884 0.289202 -0.123448
C106  C     C_R   0.944396 0.545079 0.692083 -0.139619
C107  C     C_R   0.539976 0.045131 0.299913 -0.134032
C108  C     C_R   0.527151 0.046563 0.762265 -0.055245
C109  C     C_R   0.743684 0.455078 0.697359 -0.155605
C110  C     C_R   0.014684 0.498217 0.338176 0.069142
C111  C     C_R   0.268639 0.453083 0.265295 -0.129125
C112  C     C_R   0.238812 0.953939 0.703926 -0.127598
C113  C     C_R   0.768952 0.954633 0.251924 -0.134830
C114  C     C_R   0.026402 0.453893 0.290423 -0.137729
C115  C     C_R   0.948761 0.454166 0.696051 -0.110171
C116  C     C_R   0.536622 0.953401 0.296518 -0.127665
C117  C     C_R   0.522037 0.954956 0.755424 -0.131119
C118  C     C_R   0.743145 0.546593 0.696718 -0.135125
C119  C     C_R   0.271076 0.545059 0.276045 -0.140417
C120  C     C_R   0.238918 0.045743 0.698862 -0.116852
H1    H     H_    0.749915 0.627414 0.821433 0.109468
H2    H     H_    0.563139 0.594952 0.511876 0.109022
H3    H     H_    0.968518 0.093565 0.379003 0.112796
H4    H     H_    0.025413 0.060910 0.592555 0.115816
H5    H     H_    0.641665 0.330460 0.824324 0.124522
H6    H     H_    0.193324 0.237234 0.153471 0.129019
H7    H     H_    0.308770 0.737478 0.846167 0.127139
H8    H     H_    0.695916 0.737545 0.156179 0.128090
H9    H     H_    0.219748 0.659486 0.846657 0.119922
H10   H     H_    0.782358 0.658822 0.154458 0.128607
H11   H     H_    0.561526 0.252207 0.821580 0.121535
H12   H     H_    0.241880 0.637532 0.176491 0.109256
H13   H     H_    0.275139 0.155830 0.150994 0.120920
H14   H     H_    0.359685 0.704263 0.274488 0.187307
H15   H     H_    0.638945 0.703176 0.725281 0.185515
H16   H     H_    0.811653 0.210851 0.204344 0.192656
H17   H     H_    0.144775 0.204439 0.726936 0.190732
H18   H     H_    0.249369 0.741572 0.164989 0.213756
H19   H     H_    0.751557 0.737951 0.835024 0.214691
H20   H     H_    0.770701 0.254596 0.272318 0.210024
H21   H     H_    0.258408 0.236890 0.840310 0.204073
H22   H     H_    0.899365 0.283598 0.206432 0.199562
H23   H     H_    0.249381 0.126453 0.821866 0.114834
H24   H     H_    0.059536 0.280399 0.726089 0.195302
H25   H     H_    0.452419 0.775944 0.277554 0.189818
H26   H     H_    0.550975 0.777627 0.724213 0.189370
H27   H     H_    0.859024 0.328981 0.273320 0.210465
H28   H     H_    0.172946 0.313098 0.839156 0.205655
H29   H     H_    0.342324 0.813455 0.168721 0.208802
H30   H     H_    0.663386 0.812515 0.833763 0.210531
H31   H     H_    0.835261 0.566255 0.251506 0.201606
H32   H     H_    0.830141 0.625771 0.424793 0.193952
H33   H     H_    0.356784 0.067290 0.336422 0.194974
H34   H     H_    0.680931 0.166993 0.175166 0.138524
H35   H     H_    0.480950 0.110279 0.569995 0.194876
H36   H     H_    0.930827 0.368886 0.177017 0.108185
H37   H     H_    0.009449 0.337450 0.821089 0.102920
H38   H     H_    0.495646 0.836165 0.178854 0.101066
H39   H     H_    0.505234 0.835970 0.822386 0.099235
H40   H     H_    0.909977 0.625424 0.339741 0.181543
H41   H     H_    0.757882 0.565382 0.340701 0.195106
H42   H     H_    0.471289 0.105465 0.405319 0.193853
H43   H     H_    0.365937 0.072652 0.502294 0.203093
H44   H     H_    0.026658 0.586263 0.316177 0.144034
H45   H     H_    0.543710 0.449400 0.623011 0.114823
H46   H     H_    0.921109 0.585890 0.659391 0.156151
H47   H     H_    0.558608 0.085800 0.333695 0.149029
H48   H     H_    0.540017 0.088942 0.753592 0.125572
H49   H     H_    0.729002 0.412988 0.669491 0.100932
H50   H     H_    0.288821 0.410303 0.280795 0.096293
H51   H     H_    0.223845 0.911456 0.678758 0.093895
H52   H     H_    0.791626 0.912251 0.268998 0.105726
H53   H     H_    0.041005 0.412019 0.317350 0.111649
H54   H     H_    0.935082 0.411498 0.673545 0.105280
H55   H     H_    0.546556 0.910805 0.321850 0.100675
H56   H     H_    0.462826 0.403172 0.412342 0.112389
H57   H     H_    0.526901 0.912870 0.736584 0.107631
H58   H     H_    0.729040 0.588736 0.668381 0.102683
H59   H     H_    0.295564 0.585384 0.310771 0.100253
H60   H     H_    0.223472 0.087333 0.667258 0.122672
H61   H     H_    0.791390 0.089295 0.269535 0.095375
H62   H     H_    0.755224 0.368961 0.824069 0.091197
H63   H     H_    0.189255 0.333748 0.172237 0.089349
H64   H     H_    0.312004 0.834153 0.827849 0.087366
H65   H     H_    0.688158 0.833678 0.172682 0.087647
H66   H     H_    0.424155 0.541739 0.523745 0.117851
H67   H     H_    0.052293 0.905955 0.527596 0.113978
H68   H     H_    0.604979 0.456264 0.403816 0.121517
H69   H     H_    0.904174 0.969215 0.500242 0.127956
H70   H     H_    0.119578 0.030389 0.409727 0.117301
H71   H     H_    0.924692 0.695669 0.211296 0.021903
H72   H     H_    0.072845 0.684977 0.771842 0.014934
H73   H     H_    0.421261 0.185135 0.222059 0.021926
H74   H     H_    0.437839 0.218423 0.805869 0.022539
H75   H     H_    0.994265 0.938622 0.313127 0.121071
H76   H     H_    0.480501 0.548533 0.300278 0.116206
N1    N     N_R   0.892620 0.603790 0.941770 -0.043139
N2    N     N_R   0.973690 0.529110 0.793240 -0.043687
N3    N     N_R   0.526310 0.029110 0.206760 -0.042735
N4    N     N_R   0.473690 0.029110 0.793240 -0.023147
N5    N     N_R   0.818570 0.472310 0.793020 -0.040194
N6    N     N_R   0.181430 0.472310 0.206980 -0.042965
N7    N     N_R   0.318570 0.972310 0.793020 -0.044169
N8    N     N_R   0.681430 0.972310 0.206980 -0.043078
N9    N     N_R   0.026930 0.472300 0.207330 -0.048466
N10   N     N_R   0.973070 0.472300 0.792670 -0.047821
N11   N     N_R   0.526930 0.972300 0.207330 -0.047019
N12   N     N_R   0.107380 0.603790 0.058230 -0.042562
N13   N     N_R   0.473070 0.972300 0.792670 -0.051293
N14   N     N_R   0.817960 0.529130 0.792460 -0.038784
N15   N     N_R   0.182040 0.529130 0.207540 -0.035819
N16   N     N_R   0.317960 0.029130 0.792460 -0.032470
N17   N     N_R   0.682040 0.029130 0.207540 -0.037954
N18   N     N_R   0.894850 0.397640 0.943830 -0.041978
N19   N     N_R   0.105150 0.397640 0.056170 -0.042014
N20   N     N_R   0.394850 0.897640 0.943830 -0.041644
N21   N     N_R   0.605150 0.897640 0.056170 -0.038905
N22   N     N_R   0.950040 0.603780 0.055950 -0.039213
N23   N     N_R   0.392620 0.103790 0.941770 -0.046922
N24   N     N_R   0.049960 0.603780 0.944050 -0.042335
N25   N     N_R   0.450040 0.103780 0.055950 -0.041856
N26   N     N_R   0.549960 0.103780 0.944050 -0.051704
N27   N     N_1   0.810298 0.361327 0.467876 -0.096324
N28   N     N_1   0.035293 0.352783 0.454860 -0.097904
N29   N     N_1   0.770668 0.923682 0.827580 -0.087672
N30   N     N_1   0.763406 0.922041 0.549723 -0.097766
N31   N     N_R   0.607380 0.103790 0.058230 -0.052253
N32   N     N_R   0.952270 0.397640 0.058010 -0.042613
N33   N     N_R   0.047730 0.397640 0.941990 -0.042663
N34   N     N_R   0.452270 0.897640 0.058010 -0.041007
N35   N     N_R   0.547730 0.897640 0.941990 -0.038982
N36   N     N_R   0.026310 0.529110 0.206760 -0.039706
Ni1   Ni    Ni4+2 0.934160 0.565860 0.869070 0.264344
Ni2   Ni    Ni4+2 0.065840 0.565860 0.130930 0.275302
Ni3   Ni    Ni4+2 0.434160 0.065860 0.869070 0.272322
Ni4   Ni    Ni4+2 0.565840 0.065860 0.130930 0.258818
Ni5   Ni    Ni4+2 0.067260 0.435560 0.132230 0.204094
Ni6   Ni    Ni4+2 0.932740 0.435560 0.867770 0.202222
Ni7   Ni    Ni4+2 0.567260 0.935560 0.132230 0.203471
Ni8   Ni    Ni4+2 0.432740 0.935560 0.867770 0.202716
O1    O     O_2   0.046652 0.671316 0.243075 -0.592704
O2    O     O_2   0.953108 0.671532 0.754797 -0.601799
O3    O     O_2   0.542310 0.172311 0.241871 -0.603911
O4    O     O_2   0.406725 0.146308 0.731919 -0.614047

loop_
_geom_bond_atom_site_label_1
_geom_bond_atom_site_label_2
_ccdc_geom_bond_type
C34   H75   S    
N12   N24   A    
C81   H20   S    
C37   H69   S    
C105  C110  A    
C33   N12   A    
C120  N16   A    
C101  C102  S    
N12   Ni2   S    
C63   C88   A    
C55   H34   S    
C48   C76   A    
C62   C77   A    
C35   C39   S    
C16   C72   S    
N4    Ni3   S    
C22   O2    D    
N6    N15   A    
C13   C107  A    
C14   C33   A    
C86   H30   S    
C47   H4    S    
C20   N30   T    
N5    Ni6   S    
C28   C112  A    
N31   Ni4   S    
C44   N23   A    
C109  N5    A    
C24   C117  A    
C50   C54   A    
C80   H15   S    
C7    C99   A    
C30   C35   S    
C13   C95   S    
C106  H46   S    
C49   C84   S    
N18   Ni6   S    
C51   C75   A    
C15   C44   A    
C38   C42   S    
C115  H54   S    
C10   C15   A    
C50   C74   A    
C57   H5    S    
C30   C31   S    
C23   O3    D    
C9    C22   S    
C21   H71   S    
C112  H51   S    
N2    N10   A    
C94   C98   A    
C59   H7    S    
C65   C70   A    
C5    N19   A    
C92   C96   A    
C6    C88   A    
C49   C78   A    
C11   N26   A    
C51   C56   A    
C2    C115  A    
C113  N8    A    
C55   N31   A    
C3    C29   A    
C48   C83   S    
C10   C23   S    
C80   C86   S    
C10   N25   A    
C32   C34   S    
C83   H22   S    
C61   C66   A    
C103  H33   S    
C114  H53   S    
C51   C86   S    
C60   C67   A    
C27   C39   S    
C38   H70   S    
C79   H18   S    
C70   C74   A    
N20   N34   A    
C41   C46   S    
N13   Ni8   S    
C69   C73   A    
N19   Ni5   S    
C18   C97   S    
C37   C47   S    
N17   Ni4   S    
N18   N32   A    
C75   C80   S    
N21   Ni7   S    
C50   C85   S    
N11   Ni7   S    
C93   C110  S    
C106  N2    A    
C29   C41   S    
C84   H28   S    
C108  H48   S    
C27   C111  A    
N9    Ni5   S    
C87   C92   A    
C37   C41   S    
C14   C70   S    
N34   Ni7   S    
C1    C12   A    
C119  H59   S    
C104  H43   S    
C82   H21   S    
C86   H26   S    
C111  N6    A    
N3    N11   A    
C81   C83   S    
C19   C98   S    
C109  H49   S    
C90   C94   A    
C113  H52   S    
C85   H29   S    
C54   C59   A    
C64   C99   A    
C32   C42   S    
C40   C45   S    
C107  H47   S    
N26   Ni3   S    
C105  H44   S    
C61   N32   A    
C4    N18   A    
N20   Ni8   S    
C84   H24   S    
N23   Ni3   S    
N24   Ni1   S    
C60   H8    S    
C101  H40   S    
C28   C120  A    
N1    Ni1   S    
C95   C100  A    
C39   C43   S    
C73   C78   A    
N8    N17   A    
C101  H31   S    
C35   H66   S    
C56   C60   A    
C6    H64   S    
N35   Ni8   S    
C36   H68   S    
N19   N33   A    
C108  N4    A    
C68   H11   S    
C53   C77   S    
C9    C14   A    
C105  N36   A    
C34   C41   S    
C17   N27   T    
C24   C94   S    
N23   N25   A    
C87   C102  S    
C43   C45   S    
C11   C16   A    
C78   C82   S    
C20   C100  S    
C36   C40   S    
C8    C12   A    
C62   N33   A    
C90   C104  S    
C96   C97   A    
C23   H73   S    
N8    Ni7   S    
C8    C21   S    
C62   H37   S    
C30   C40   S    
C72   C76   A    
N10   Ni6   S    
C17   C96   S    
C32   C37   S    
C2    C92   S    
C3    H61   S    
C26   C109  A    
N22   Ni2   S    
N7    Ni8   S    
C63   N34   A    
C83   H27   S    
C118  H58   S    
C33   H12   S    
C15   C73   S    
C12   C71   S    
C71   C75   A    
C58   H6    S    
C82   C84   S    
C74   C79   S    
C87   C89   A    
N25   Ni4   S    
C45   H2    S    
N6    Ni5   S    
N7    N16   A    
C67   H10   S    
C57   C68   A    
C5    C77   A    
C31   H56   S    
C35   C45   S    
C61   H36   S    
C93   C97   A    
N5    N14   A    
C79   C85   S    
N16   Ni3   S    
C18   N28   T    
C9    N24   A    
C81   H16   S    
C21   O1    D    
C25   O4    D    
C79   H14   S    
C29   C113  A    
C46   C47   S    
C103  H42   S    
C69   H13   S    
C32   H67   S    
C89   C101  S    
N36   Ni2   S    
C34   C38   S    
C119  N15   A    
C7    H65   S    
C1    N1    A    
C26   C118  A    
C30   H45   S    
C91   C103  S    
C36   C43   S    
N2    Ni1   S    
C76   C81   S    
C64   N35   A    
C65   H9    S    
C53   C58   A    
N15   Ni2   S    
C58   C69   A    
C27   C119  A    
C68   C72   A    
C3    N17   A    
C80   H19   S    
C98   C100  A    
N4    N13   A    
C63   H38   S    
C114  N9    A    
C112  N7    A    
C82   H17   S    
C118  N14   A    
C111  H50   S    
C110  C114  A    
C54   C88   S    
C117  N13   A    
C120  H60   S    
C16   C55   A    
N32   Ni5   S    
C19   N29   T    
N3    Ni4   S    
N21   N35   A    
C107  N3    A    
C26   C40   S    
C90   C91   A    
N26   N31   A    
C44   H23   S    
C49   C53   A    
C102  H41   S    
C85   H25   S    
C64   H39   S    
C28   C42   S    
C2    C106  A    
C67   C71   A    
C42   C47   S    
C116  H55   S    
C104  H35   S    
C89   C93   A    
C13   C116  A    
C46   H3    S    
C1    H1    S    
C38   C46   S    
C116  N11   A    
C8    N22   A    
C52   C57   A    
C25   H74   S    
C91   C95   A    
C7    N21   A    
C48   C52   A    
C52   C66   S    
C6    N20   A    
C4    C66   A    
C115  N10   A    
C103  C104  S    
C31   C39   S    
C11   C25   S    
C31   C36   S    
C43   H76   S    
N9    N36   A    
N14   Ni1   S    
C117  H57   S    
C56   C99   S    
C4    H62   S    
N33   Ni6   S    
C22   H72   S    
C5    H63   S    
C59   C65   A    
C24   C108  A    
N1    N22   A    
C102  H32   S    
