data_mof_unit_22874.cif
_audit_creation_date              2012-12-10T17:47:14-0500
_audit_creation_method            fapswitch 2.2
_symmetry_space_group_name_H-M    P1
_symmetry_Int_Tables_number       1
_space_group_crystal_system       triclinic
_cell_length_a                    11.676707
_cell_length_b                    14.72955
_cell_length_c                    14.878916
_cell_angle_alpha                 64.430834
_cell_angle_beta                  104.367295
_cell_angle_gamma                 101.763442
_cell_volume                      2222.48964812

loop_
_atom_site_label
_atom_site_type_symbol
_atom_type_description
_atom_site_fract_x
_atom_site_fract_y
_atom_site_fract_z
_atom_type_partial_charge
C1    C     C_R   0.478384 0.119894 0.312653 0.789134
C2    C     C_R   0.518849 0.880560 0.687420 0.787315
C3    C     C_R   0.376643 0.331535 0.011198 0.159997
C4    C     C_R   0.576758 0.678352 0.998149 0.160436
C5    C     C_R   0.491882 0.470612 0.056191 0.061234
C6    C     C_R   0.452036 0.540823 0.955946 0.063618
C7    C     C_R   0.370010 0.504058 0.888263 -0.228567
C8    C     C_R   0.566092 0.508346 0.126468 -0.242073
C9    C     C_R   0.333891 0.401500 0.915418 -0.222774
C10   C     C_R   0.606851 0.610247 0.097787 -0.231460
C11   C     C_R   0.735267 0.298225 0.632388 -0.119746
C12   C     C_R   0.304950 0.729724 0.319597 -0.124061
C13   C     C_R   0.683720 0.209161 0.620206 -0.036567
C14   C     C_R   0.334764 0.803824 0.358928 -0.038143
C15   C     C_R   0.512627 0.287007 0.512596 0.401174
C16   C     C_R   0.488274 0.713529 0.484157 0.404735
C17   C     C_R   0.563880 0.383155 0.514437 -0.089326
C18   C     C_R   0.471575 0.641087 0.440626 -0.080757
C19   C     C_R   0.675918 0.387498 0.579256 0.019766
C20   C     C_R   0.374517 0.647096 0.359271 0.021712
C21   C     C_R   0.505557 0.474151 0.456277 0.039284
C22   C     C_R   0.545267 0.560154 0.479281 0.037649
C23   C     C_R   0.284454 0.000635 0.499880 0.817419
C24   C     C_R   0.715562 0.999354 0.500168 0.818281
C25   C     C_R   0.660860 0.565463 0.534884 -0.238035
C26   C     C_R   0.415450 0.485678 0.370492 -0.237964
C27   C     C_R   0.724921 0.481459 0.586069 0.241506
C28   C     C_R   0.351699 0.570318 0.321305 0.246193
C29   C     C_1   0.162959 0.001348 0.500179 -0.185294
C30   C     C_1   0.837117 0.998716 0.499935 -0.184309
C31   C     C_1   0.060198 0.000745 0.500163 -0.004803
C32   C     C_1   0.939926 0.999420 0.500001 -0.001520
C33   C     C_R   0.453054 0.189086 0.205766 -0.051799
C34   C     C_R   0.532079 0.814371 0.795548 -0.044681
C35   C     C_R   0.339654 0.227948 0.036570 -0.191039
C36   C     C_R   0.627289 0.779484 0.969164 -0.191178
C37   C     C_R   0.376952 0.157048 0.133692 -0.191443
C38   C     C_R   0.606559 0.846785 0.868069 -0.188985
C39   C     C_R   0.495461 0.291427 0.178826 -0.254000
C40   C     C_R   0.473046 0.716596 0.825773 -0.259525
C41   C     C_R   0.455614 0.365108 0.082828 0.091201
C42   C     C_R   0.497806 0.645047 0.926260 0.086698
Cu1   Cu    Cu3+1 0.469550 0.918260 0.475690 0.932646
Cu2   Cu    Cu3+1 0.530450 0.081740 0.524310 0.929654
H1    H     H_    0.271726 0.376786 0.860746 0.155531
H2    H     H_    0.664790 0.635513 0.153799 0.153964
H3    H     H_    0.705233 0.636307 0.537816 0.172231
H4    H     H_    0.398508 0.432989 0.334832 0.167924
H5    H     H_    0.410653 0.698378 0.768134 0.145828
H6    H     H_    0.558601 0.311155 0.235487 0.151328
H7    H     H_    0.651421 0.923125 0.846262 0.153407
H8    H     H_    0.343019 0.078013 0.153353 0.152425
H9    H     H_    0.279274 0.202079 0.982004 0.143141
H10   H     H_    0.686889 0.805400 0.024020 0.140791
H11   H     H_    0.330368 0.552427 0.813442 0.142007
H12   H     H_    0.593950 0.461752 0.205179 0.149513
H13   H     H_    0.285753 0.869258 0.325529 0.145876
H14   H     H_    0.731352 0.142796 0.656605 0.146989
N1    N     N_R   0.576230 0.204580 0.560790 -0.201985
N2    N     N_R   0.423770 0.795420 0.439210 -0.203404
O1    O     O_R   0.459870 0.022090 0.338120 -0.582705
O2    O     O_R   0.540130 0.977910 0.661880 -0.582131
O3    O     O_R   0.511290 0.160150 0.379180 -0.598518
O4    O     O_R   0.488710 0.839850 0.620820 -0.579904
O5    O     O_R   0.311490 0.930960 0.479480 -0.574348
O6    O     O_R   0.688510 0.069040 0.520520 -0.576012
O7    O     O_R   0.362910 0.069020 0.520540 -0.575675
O8    O     O_R   0.637090 0.930980 0.479460 -0.589699
N3    N     N_2   0.837994 0.493288 0.645890 -0.422632
H15   H     H_    0.891730 0.556563 0.607903 0.248775
C43   C     C_3   0.831862 0.487562 0.744213 -0.655741
H16   H     H_    0.923167 0.490190 0.788809 0.232078
H17   H     H_    0.780495 0.415393 0.786473 0.237437
H18   H     H_    0.789042 0.552378 0.735681 0.222051
N4    N     N_2   0.263445 0.575571 0.234402 -0.424245
H19   H     H_    0.213765 0.507098 0.241464 0.253966
C44   C     C_3   0.307509 0.624795 0.139987 -0.654906
H20   H     H_    0.231584 0.635427 0.075682 0.235736
H21   H     H_    0.367364 0.577170 0.136801 0.229422
H22   H     H_    0.356167 0.700321 0.131893 0.236170
N5    N     N_2   0.562356 0.694601 0.580468 -0.446818
H23   H     H_    0.613433 0.754941 0.592859 0.288717
C45   C     C_3   0.512728 0.616325 0.665336 -0.677785
H24   H     H_    0.570794 0.614144 0.737548 0.229077
H25   H     H_    0.506576 0.541006 0.663437 0.235973
H26   H     H_    0.421993 0.630777 0.662171 0.226056
N6    N     N_2   0.391573 0.274369 0.467739 -0.449919
H27   H     H_    0.371607 0.239889 0.417860 0.281035
C46   C     C_3   0.306406 0.253223 0.532126 -0.649270
H28   H     H_    0.214781 0.246941 0.489187 0.222232
H29   H     H_    0.315645 0.315694 0.557241 0.224830
H30   H     H_    0.320375 0.181177 0.599804 0.244225
C47   C     C_1   0.851208 0.293958 0.696548 0.292067
N7    N     N_1   0.944079 0.289814 0.747987 -0.293067
C48   C     C_1   0.201729 0.742356 0.239757 0.289750
N8    N     N_1   0.118866 0.752988 0.175926 -0.283392

loop_
_geom_bond_atom_site_label_1
_geom_bond_atom_site_label_2
_ccdc_geom_bond_type
C21   C26   A    
C4    C36   A    
C9    H1    S    
C47   N7    T    
C35   H9    S    
Cu2   O6    S    
C48   N8    T    
C7    H11   S    
Cu1   Cu2   S    
C8    H12   S    
N5    H23   S    
C1    C33   S    
C39   C41   A    
C44   H20   S    
C11   C19   A    
C33   C39   A    
C34   C40   A    
C23   C29   S    
C35   C37   A    
C5    C6    A    
Cu2   N1    S    
C40   H5    S    
C7    C9    A    
C16   N2    A    
C23   O7    A    
N3    C43   S    
C31   C32   S    
Cu1   O8    S    
C22   C25   A    
C10   H2    S    
C12   C48   S    
C46   H29   S    
C19   C27   A    
C25   H3    S    
C27   N3    S    
C24   O6    A    
C2    C34   S    
C40   C42   A    
C34   C38   A    
C21   C22   A    
C1    O3    A    
N5    C45   S    
C2    O4    A    
Cu1   O4    S    
C24   C30   S    
C44   H21   S    
Cu2   O3    S    
C43   H17   S    
C37   H8    S    
C13   H14   S    
C20   C28   A    
Cu2   O2    S    
C17   C21   A    
N4    H19   S    
C3    C9    A    
C5    C8    A    
C45   H24   S    
C3    C35   A    
Cu1   O5    S    
C12   C20   A    
C45   H26   S    
C46   H30   S    
N4    C44   S    
Cu1   N2    S    
C13   N1    A    
C16   C18   A    
C45   H25   S    
C12   C14   A    
N6    C46   S    
C4    C10   A    
Cu1   O1    S    
C15   N6    S    
C44   H22   S    
C15   C17   A    
C14   H13   S    
C5    C41   A    
C3    C41   A    
C18   C22   A    
C15   N1    A    
C1    O1    A    
C43   H18   S    
C6    C7    A    
C38   H7    S    
C26   H4    S    
C25   C27   A    
C14   N2    A    
C26   C28   A    
C23   O5    A    
C36   C38   A    
C43   H16   S    
C29   C31   T    
C30   C32   T    
C11   C13   A    
C11   C47   S    
C4    C42   A    
C16   N5    S    
C17   C19   A    
C18   C20   A    
N3    H15   S    
C33   C37   A    
C36   H10   S    
C24   O8    A    
C39   H6    S    
N6    H27   S    
C8    C10   A    
C6    C42   A    
Cu2   O7    S    
C46   H28   S    
C28   N4    S    
C2    O2    A    
