data_mof_unit_15419.cif
_audit_creation_date              2012-12-11T20:50:45-0500
_audit_creation_method            fapswitch 2.2
_symmetry_space_group_name_H-M    P1
_symmetry_Int_Tables_number       1
_space_group_crystal_system       triclinic
_cell_length_a                    30.187541
_cell_length_b                    34.411543
_cell_length_c                    8.590437
_cell_angle_alpha                 90.000197
_cell_angle_beta                  91.491694
_cell_angle_gamma                 89.985249
_cell_volume                      8920.72032737

loop_
_atom_site_label
_atom_site_type_symbol
_atom_type_description
_atom_site_fract_x
_atom_site_fract_y
_atom_site_fract_z
_atom_type_partial_charge
Ba1   Ba    Ba6+2 0.999930 0.472870 0.844940 1.782492
Ba2   Ba    Ba6+2 0.999930 0.527130 0.344940 1.777936
Ba3   Ba    Ba6+2 0.499930 0.972870 0.844940 1.782495
Ba4   Ba    Ba6+2 0.499930 0.027130 0.344940 1.778036
C1    C     C_3   0.987737 0.270265 0.578603 0.462811
C2    C     C_3   0.987488 0.729820 0.077283 0.462177
C3    C     C_3   0.487539 0.770176 0.578471 0.462988
C4    C     C_3   0.487358 0.229886 0.077489 0.462352
C5    C     C_R   0.237080 0.704080 0.040396 -0.024917
C6    C     C_R   0.237110 0.295758 0.537917 -0.024864
C7    C     C_R   0.737005 0.203877 0.043563 -0.024820
C8    C     C_R   0.737118 0.796056 0.541537 -0.024782
C9    C     C_R   0.205007 0.675418 0.002911 0.607042
C10   C     C_R   0.204993 0.324402 0.500595 0.606867
C11   C     C_R   0.704925 0.175235 0.005945 0.606967
C12   C     C_R   0.704990 0.824684 0.504105 0.606851
C13   C     C_R   0.146974 0.718475 0.077991 0.629483
C14   C     C_R   0.147140 0.281691 0.579788 0.630933
C15   C     C_R   0.646814 0.218693 0.076829 0.628346
C16   C     C_R   0.647013 0.781431 0.577808 0.629287
C17   C     C_R   0.178186 0.748554 0.117929 -0.091604
C18   C     C_R   0.178390 0.251579 0.619165 -0.091579
C19   C     C_R   0.678040 0.248718 0.117264 -0.091794
C20   C     C_R   0.678284 0.751389 0.617765 -0.091790
C21   C     C_R   0.223795 0.740819 0.098035 -0.071213
C22   C     C_R   0.223939 0.259181 0.597413 -0.071495
C23   C     C_R   0.723683 0.240810 0.099140 -0.071267
C24   C     C_R   0.723888 0.759224 0.598361 -0.071577
C25   C     C_R   0.282319 0.696704 0.019578 -0.044352
C26   C     C_R   0.282278 0.302986 0.515076 -0.044232
C27   C     C_R   0.782296 0.196282 0.024958 -0.044492
C28   C     C_R   0.782361 0.803563 0.521492 -0.044339
C29   C     C_R   0.814093 0.224424 0.059835 -0.031151
C30   C     C_R   0.814206 0.775442 0.556253 -0.031675
C31   C     C_R   0.314106 0.724858 0.054432 -0.031151
C32   C     C_R   0.314111 0.274855 0.549823 -0.031737
C33   C     C_R   0.801857 0.261125 0.116087 -0.019540
C34   C     C_R   0.802068 0.738854 0.613836 -0.020669
C35   C     C_R   0.301919 0.761341 0.112953 -0.019633
C36   C     C_R   0.302048 0.238548 0.610251 -0.020711
C37   C     C_R   0.756452 0.269549 0.136909 -0.071753
C38   C     C_R   0.756707 0.730510 0.636030 -0.072094
C39   C     C_R   0.256562 0.769554 0.135893 -0.071486
C40   C     C_R   0.256761 0.230472 0.635162 -0.071767
C41   C     C_R   0.165625 0.786137 0.173692 0.181086
C42   C     C_R   0.165923 0.214098 0.676218 0.180300
C43   C     C_R   0.665468 0.286414 0.171771 0.181177
C44   C     C_R   0.665793 0.713747 0.673032 0.180406
C45   C     C_3   0.028042 0.296542 0.061624 0.478404
C46   C     C_3   0.028402 0.703486 0.559927 0.479730
C47   C     C_3   0.528387 0.796512 0.060493 0.479367
C48   C     C_3   0.528617 0.203488 0.559487 0.480503
C49   C     C_R   0.698141 0.315340 0.204698 0.191164
C50   C     C_R   0.698519 0.684865 0.706233 0.191140
C51   C     C_R   0.198309 0.814994 0.207655 0.190878
C52   C     C_R   0.198668 0.185304 0.710675 0.190885
C53   C     C_R   0.744149 0.306480 0.194477 -0.108490
C54   C     C_R   0.744500 0.693687 0.694898 -0.106111
C55   C     C_R   0.244307 0.806267 0.195704 -0.108192
C56   C     C_R   0.244632 0.193928 0.696883 -0.105764
C57   C     C_R   0.778640 0.333120 0.239929 0.662382
C58   C     C_R   0.779064 0.667103 0.740329 0.658275
C59   C     C_R   0.278840 0.832856 0.241293 0.661978
C60   C     C_R   0.279256 0.167389 0.742274 0.657990
C61   C     C_R   0.834350 0.289527 0.151141 0.630499
C62   C     C_R   0.834610 0.710485 0.648896 0.632999
C63   C     C_R   0.334408 0.789736 0.148193 0.631083
C64   C     C_R   0.334592 0.210193 0.645491 0.633590
C65   C     C_2   0.098732 0.660838 0.844124 -0.050699
C66   C     C_2   0.098596 0.339056 0.344659 -0.050905
C67   C     C_2   0.598730 0.160828 0.844269 -0.050767
C68   C     C_2   0.598673 0.839113 0.344564 -0.050698
C69   C     C_3   0.059695 0.637648 0.812824 -0.114467
C70   C     C_3   0.059635 0.362349 0.313169 -0.115108
C71   C     C_3   0.559699 0.137636 0.812796 -0.114390
C72   C     C_3   0.559669 0.862355 0.313086 -0.114531
C73   C     C_1   0.087384 0.591943 0.024148 0.093358
C74   C     C_1   0.087443 0.408064 0.524188 0.093321
C75   C     C_1   0.587332 0.091944 0.024233 0.093488
C76   C     C_1   0.587393 0.908062 0.524259 0.093480
C77   C     C_2   0.120644 0.617944 0.066410 -0.072865
C78   C     C_2   0.120748 0.382077 0.566252 -0.072687
C79   C     C_2   0.620526 0.117972 0.066797 -0.072721
C80   C     C_2   0.620637 0.882051 0.566620 -0.072691
C81   C     C_2   0.127505 0.653878 0.973070 0.239233
C82   C     C_2   0.127495 0.346081 0.473177 0.240038
C83   C     C_2   0.627407 0.153911 0.973537 0.238218
C84   C     C_2   0.627453 0.846080 0.473486 0.238655
C85   C     C_R   0.880780 0.348786 0.385411 -0.054677
C86   C     C_R   0.880775 0.651155 0.885462 -0.072612
C87   C     C_R   0.380864 0.848721 0.385108 -0.055369
C88   C     C_R   0.380859 0.151223 0.885151 -0.073135
C89   C     C_3   0.069099 0.280123 0.985252 -0.315227
C90   C     C_3   0.069360 0.719470 0.481644 -0.316338
C91   C     C_3   0.569364 0.780383 0.982672 -0.316203
C92   C     C_3   0.569593 0.219450 0.481149 -0.317426
C93   C     C_R   0.916367 0.376377 0.427451 -0.050654
C94   C     C_R   0.916152 0.623409 0.928188 -0.060597
C95   C     C_R   0.416394 0.876358 0.427356 -0.050827
C96   C     C_R   0.416187 0.123436 0.928063 -0.060720
C97   C     C_R   0.901101 0.412438 0.188323 -0.020494
C98   C     C_R   0.901127 0.587484 0.688537 -0.011209
C99   C     C_R   0.401128 0.912433 0.188262 -0.020355
C100  C     C_R   0.401149 0.087486 0.688484 -0.011228
C101  C     C_R   0.865568 0.385961 0.153844 0.121906
C102  C     C_R   0.866064 0.614339 0.652527 0.127583
C103  C     C_R   0.365628 0.885937 0.153684 0.122078
C104  C     C_R   0.366109 0.114352 0.652399 0.127641
C105  C     C_R   0.857058 0.353422 0.251796 0.218834
C106  C     C_R   0.857412 0.646751 0.750964 0.217468
C107  C     C_R   0.357171 0.853360 0.251437 0.219202
C108  C     C_R   0.357506 0.146802 0.750640 0.217959
C109  C     C_2   0.054538 0.604532 0.916541 -0.204919
C110  C     C_2   0.054568 0.395503 0.416730 -0.205319
C111  C     C_2   0.554518 0.104518 0.916481 -0.204923
C112  C     C_2   0.554555 0.895501 0.416658 -0.205504
C113  C     C_3   0.152958 0.482025 0.112665 0.447761
C114  C     C_3   0.152958 0.517950 0.612669 0.447680
C115  C     C_3   0.652979 0.982040 0.112651 0.447765
C116  C     C_3   0.652992 0.017923 0.612649 0.447738
C117  C     C_3   0.163037 0.465438 0.955815 -0.205397
C118  C     C_3   0.163028 0.534532 0.455811 -0.205373
C119  C     C_3   0.663046 0.965426 0.955827 -0.205460
C120  C     C_3   0.663028 0.034537 0.455808 -0.205432
C121  C     C_3   0.870776 0.521735 0.981559 0.320268
C122  C     C_3   0.870036 0.480168 0.468144 0.338492
C123  C     C_3   0.370767 0.021716 0.981433 0.320493
C124  C     C_3   0.370030 0.980189 0.468045 0.338938
C125  C     C_3   0.826093 0.539615 0.932596 0.680156
C126  C     C_3   0.825471 0.460774 0.427698 0.673001
C127  C     C_3   0.326088 0.039629 0.932651 0.680338
C128  C     C_3   0.325493 0.960741 0.427802 0.673208
C129  C     C_3   0.989465 0.314453 0.562320 0.232302
C130  C     C_3   0.989290 0.685633 0.060993 0.231961
C131  C     C_3   0.489340 0.814358 0.561954 0.231475
C132  C     C_3   0.489185 0.185708 0.060847 0.231839
C133  C     C_R   0.926682 0.407076 0.316147 -0.319843
C134  C     C_R   0.926287 0.592499 0.817650 -0.325868
C135  C     C_R   0.426702 0.907072 0.316106 -0.319588
C136  C     C_R   0.426307 0.092505 0.817598 -0.325710
H1    H     H_    0.024494 0.324044 0.574317 0.053531
H2    H     H_    0.024360 0.676106 0.072075 0.052385
H3    H     H_    0.524400 0.823888 0.573353 0.052456
H4    H     H_    0.524273 0.176206 0.071412 0.051662
H5    H     H_    0.198519 0.468057 0.928616 0.152914
H6    H     H_    0.198510 0.531905 0.428596 0.152941
H7    H     H_    0.698528 0.968020 0.928608 0.152975
H8    H     H_    0.698506 0.031937 0.428511 0.152979
H9    H     H_    0.155067 0.434002 0.946348 0.122116
H10   H     H_    0.155051 0.565970 0.446347 0.122119
H11   H     H_    0.655060 0.933993 0.946425 0.122017
H12   H     H_    0.655032 0.065972 0.446434 0.122157
H13   H     H_    0.143541 0.482623 0.873782 0.142655
H14   H     H_    0.143535 0.517351 0.373785 0.142648
H15   H     H_    0.643562 0.982603 0.873744 0.142669
H16   H     H_    0.643538 0.017362 0.373760 0.142649
H17   H     H_    0.888502 0.514204 0.874695 -0.036402
H18   H     H_    0.883338 0.491260 0.358421 -0.025661
H19   H     H_    0.388441 0.014151 0.874502 -0.036007
H20   H     H_    0.383247 0.991314 0.358282 -0.025243
H21   H     H_    0.890676 0.543247 0.049697 -0.039338
H22   H     H_    0.893504 0.458538 0.519025 -0.057211
H23   H     H_    0.390718 0.043220 0.049386 -0.039772
H24   H     H_    0.393552 0.958586 0.518724 -0.057868
H25   H     H_    0.831112 0.563726 0.850390 -0.073118
H26   H     H_    0.827943 0.444411 0.317608 -0.048517
H27   H     H_    0.331106 0.063737 0.850446 -0.073430
H28   H     H_    0.327967 0.944322 0.317854 -0.049172
H29   H     H_    0.976657 0.321891 0.443489 -0.036208
H30   H     H_    0.976236 0.678151 0.942524 -0.031648
H31   H     H_    0.476412 0.821776 0.443267 -0.035328
H32   H     H_    0.476025 0.178277 0.942470 -0.031473
H33   H     H_    0.001826 0.261521 0.693389 0.092574
H34   H     H_    0.001784 0.738587 0.191731 0.092811
H35   H     H_    0.501914 0.761433 0.692836 0.092345
H36   H     H_    0.501907 0.238615 0.191617 0.092815
H37   H     H_    0.076467 0.250651 0.031736 0.146192
H38   H     H_    0.076768 0.749149 0.525616 0.145750
H39   H     H_    0.576662 0.750692 0.026872 0.146059
H40   H     H_    0.576954 0.249182 0.524769 0.145904
H41   H     H_    0.848575 0.217200 0.042894 0.160106
H42   H     H_    0.848649 0.782594 0.538205 0.160022
H43   H     H_    0.348545 0.717808 0.035755 0.160039
H44   H     H_    0.348492 0.281789 0.529585 0.159959
H45   H     H_    0.873360 0.325150 0.463432 0.113940
H46   H     H_    0.873228 0.674730 0.963636 0.114445
H47   H     H_    0.373454 0.825064 0.463025 0.113850
H48   H     H_    0.373330 0.174826 0.963205 0.114362
H49   H     H_    0.293418 0.668986 0.975222 0.151530
H50   H     H_    0.293282 0.330572 0.469238 0.151486
H51   H     H_    0.793428 0.168399 0.982325 0.151573
H52   H     H_    0.793419 0.831362 0.477835 0.151547
H53   H     H_    0.141243 0.612817 0.169850 0.098678
H54   H     H_    0.141475 0.387265 0.669325 0.098267
H55   H     H_    0.641051 0.112868 0.170432 0.099162
H56   H     H_    0.641258 0.887197 0.669982 0.098852
H57   H     H_    0.103722 0.687118 0.777597 0.074373
H58   H     H_    0.103440 0.312675 0.278642 0.074288
H59   H     H_    0.603779 0.187079 0.777619 0.074752
H60   H     H_    0.603642 0.812808 0.278179 0.074631
H61   H     H_    0.952349 0.427762 0.346903 0.067646
H62   H     H_    0.951612 0.571560 0.849465 0.067811
H63   H     H_    0.452348 0.927773 0.346927 0.067631
H64   H     H_    0.451611 0.071554 0.849479 0.067771
H65   H     H_    0.025753 0.586350 0.896768 0.071407
H66   H     H_    0.025871 0.413776 0.396800 0.070899
H67   H     H_    0.525738 0.086334 0.896635 0.071397
H68   H     H_    0.525849 0.913760 0.396687 0.070866
H69   H     H_    0.032399 0.297504 0.189561 0.028264
H70   H     H_    0.033119 0.702765 0.687743 0.028464
H71   H     H_    0.533015 0.797295 0.188358 0.028405
H72   H     H_    0.533328 0.202792 0.687340 0.028129
H73   H     H_    0.063392 0.278433 0.857582 0.168728
H74   H     H_    0.063508 0.720500 0.354000 0.167640
H75   H     H_    0.563636 0.779322 0.854920 0.167029
H76   H     H_    0.563825 0.220375 0.353372 0.166586
H77   H     H_    0.098361 0.298847 0.008869 0.095104
H78   H     H_    0.098670 0.700875 0.506498 0.094660
H79   H     H_    0.598692 0.798926 0.007721 0.094235
H80   H     H_    0.598902 0.200895 0.506509 0.094023
N1    N     N_R   0.160576 0.682914 0.020412 -0.438344
N2    N     N_R   0.160629 0.317072 0.520290 -0.438370
N3    N     N_R   0.660452 0.182949 0.021124 -0.438341
N4    N     N_R   0.660560 0.817065 0.520838 -0.438387
N5    N     N_R   0.822602 0.325115 0.211385 -0.438520
N6    N     N_R   0.822955 0.675037 0.710516 -0.437809
N7    N     N_R   0.322725 0.825064 0.210856 -0.438546
N8    N     N_R   0.323042 0.175065 0.710062 -0.437796
O1    O     O_2   0.914200 0.445720 0.903420 -0.416680
O2    O     O_2   0.914200 0.554280 0.403420 -0.433520
O3    O     O_2   0.414200 0.945720 0.903420 -0.416762
O4    O     O_2   0.414200 0.054280 0.403420 -0.433588
O5    O     O_3   0.145658 0.476964 0.604505 -0.617264
O6    O     O_3   0.145659 0.523016 0.104491 -0.617070
O7    O     O_3   0.645666 0.976940 0.604392 -0.616924
O8    O     O_3   0.645664 0.023029 0.104396 -0.616780
O9    O     O_3   0.016337 0.332824 0.997164 -0.558955
O10   O     O_3   0.016251 0.667148 0.497105 -0.558356
O11   O     O_3   0.516360 0.832835 0.997170 -0.558961
O12   O     O_3   0.516438 0.167144 0.496714 -0.558257
O13   O     O_3   0.049930 0.518940 0.045960 -0.464580
O14   O     O_3   0.049930 0.481060 0.545960 -0.464618
O15   O     O_3   0.549930 0.018940 0.045960 -0.464590
O16   O     O_3   0.549930 0.981060 0.545960 -0.464641
O17   O     O_2   0.216628 0.643863 0.952884 -0.541499
O18   O     O_2   0.216507 0.355801 0.448839 -0.541561
O19   O     O_2   0.716582 0.143503 0.957783 -0.541676
O20   O     O_2   0.716563 0.856319 0.454781 -0.541649
O21   O     O_2   0.107516 0.723635 0.094336 -0.552259
O22   O     O_2   0.107759 0.276744 0.598543 -0.552794
O23   O     O_2   0.607306 0.224091 0.090826 -0.551238
O24   O     O_2   0.607550 0.776161 0.593503 -0.551578
O25   O     O_2   0.769985 0.363084 0.308219 -0.486759
O26   O     O_2   0.770555 0.637262 0.809734 -0.495784
O27   O     O_2   0.270299 0.862595 0.311245 -0.486901
O28   O     O_2   0.270905 0.137801 0.813570 -0.496060
O29   O     O_2   0.873328 0.282490 0.128929 -0.531160
O30   O     O_2   0.873541 0.717425 0.625503 -0.530039
O31   O     O_2   0.373319 0.782926 0.123974 -0.530968
O32   O     O_2   0.373431 0.216861 0.619592 -0.529977
O33   O     O_3   0.950020 0.480960 0.143730 -0.499198
O34   O     O_3   0.950020 0.519040 0.643730 -0.492767
O35   O     O_3   0.450020 0.980960 0.143730 -0.499211
O36   O     O_3   0.450020 0.019040 0.643730 -0.492761
O37   O     O_3   0.985090 0.412220 0.642040 -0.480746
O38   O     O_3   0.985090 0.587780 0.142040 -0.479878
O39   O     O_3   0.485090 0.912220 0.642040 -0.480702
O40   O     O_3   0.485090 0.087780 0.142040 -0.479889
O41   O     O_2   0.908721 0.385514 0.743542 -0.394817
O42   O     O_2   0.908976 0.614658 0.244459 -0.408134
O43   O     O_2   0.408742 0.885473 0.743519 -0.394473
O44   O     O_2   0.408967 0.114669 0.244356 -0.407749
O45   O     O_3   0.863417 0.488938 0.073652 -0.598121
O46   O     O_3   0.864105 0.510242 0.575423 -0.582054
O47   O     O_3   0.363417 0.988941 0.073633 -0.598215
O48   O     O_3   0.364103 0.010244 0.575413 -0.582219
O49   O     O_3   0.965292 0.331552 0.682737 -0.562259
O50   O     O_3   0.965451 0.668520 0.182165 -0.559261
O51   O     O_3   0.465360 0.831543 0.682666 -0.562034
O52   O     O_3   0.465485 0.168517 0.182194 -0.558924
O53   O     O_2   0.085560 0.445380 0.786390 -0.471060
O54   O     O_2   0.085560 0.554620 0.286390 -0.471046
O55   O     O_2   0.585560 0.945380 0.786390 -0.471172
O56   O     O_2   0.585560 0.054620 0.286390 -0.471149
O57   O     O_3   0.014550 0.412170 0.047860 -0.419752
O58   O     O_3   0.014550 0.587830 0.547860 -0.419298
O59   O     O_3   0.514550 0.912170 0.047860 -0.419594
O60   O     O_3   0.514550 0.087830 0.547860 -0.419326
O61   O     O_2   0.088063 0.374661 0.996831 -0.478062
O62   O     O_2   0.088018 0.625302 0.496344 -0.478968
O63   O     O_2   0.588072 0.874693 0.996740 -0.478906
O64   O     O_2   0.588110 0.125184 0.496511 -0.479296
P1    P     P_3+3 0.909970 0.458430 0.077330 1.047130
P2    P     P_3+3 0.909970 0.541570 0.577330 1.052993
P3    P     P_3+3 0.409970 0.958430 0.077330 1.046969
P4    P     P_3+3 0.409970 0.041570 0.577330 1.052768
P5    P     P_3+3 0.089830 0.458070 0.612460 1.020471
P6    P     P_3+3 0.089830 0.541930 0.112460 1.020601
P7    P     P_3+3 0.589830 0.958070 0.612460 1.020625
P8    P     P_3+3 0.589830 0.041930 0.112460 1.020720
P9    P     P_3+3 0.045596 0.370231 0.093413 0.990910
P10   P     P_3+3 0.045600 0.629758 0.593156 0.991408
P11   P     P_3+3 0.545622 0.870242 0.093356 0.990599
P12   P     P_3+3 0.545664 0.129731 0.593091 0.991323
P13   P     P_3+3 0.943910 0.623544 0.121590 1.039005
P14   P     P_3+3 0.943854 0.376510 0.621386 1.050299
P15   P     P_3+3 0.443919 0.123555 0.121536 1.039403
P16   P     P_3+3 0.443875 0.876490 0.621332 1.050672
Cl1   Cl    Cl    0.798433 0.558956 0.095014 -0.453740
Cl2   Cl    Cl    0.810477 0.427171 0.573661 -0.490909
Cl3   Cl    Cl    0.298494 0.058978 0.095177 -0.453083
Cl4   Cl    Cl    0.310550 0.927207 0.574014 -0.490094
Cl5   Cl    Cl    0.790948 0.504696 0.838832 -0.376565
Cl6   Cl    Cl    0.782036 0.495424 0.400579 -0.349147
Cl7   Cl    Cl    0.290890 0.004740 0.839008 -0.376859
Cl8   Cl    Cl    0.282046 0.995345 0.400479 -0.349655
Cl9   Cl    Cl    0.019418 0.247327 0.433248 -0.585401
Cl10  Cl    Cl    0.018832 0.752805 0.931213 -0.583676
Cl11  Cl    Cl    0.518769 0.747142 0.432166 -0.583157
Cl12  Cl    Cl    0.518338 0.252966 0.930681 -0.582215
I1    I     I_    0.676003 0.374042 0.250522 -0.021620
I2    I     I_    0.676497 0.626251 0.754353 -0.019453
I3    I     I_    0.176167 0.873438 0.258357 -0.022477
I4    I     I_    0.176634 0.127092 0.765573 -0.020934
I5    I     I_    0.097289 0.801692 0.210993 -0.173360
I6    I     I_    0.097601 0.198508 0.713550 -0.173993
I7    I     I_    0.597185 0.301912 0.210331 -0.173419
I8    I     I_    0.597534 0.698197 0.711474 -0.173617
I9    I     I_    0.820806 0.396043 0.963603 -0.103298
I10   I     I_    0.822004 0.605012 0.459490 -0.124537
I11   I     I_    0.320738 0.896075 0.963886 -0.103080
I12   I     I_    0.321919 0.104966 0.459802 -0.123967
I13   I     I_    0.921208 0.249131 0.557673 -0.230698
I14   I     I_    0.920881 0.750860 0.057878 -0.232083
I15   I     I_    0.420925 0.749153 0.559700 -0.231711
I16   I     I_    0.420693 0.250865 0.060003 -0.233098
I17   I     I_    0.973986 0.257441 0.023523 -0.178503
I18   I     I_    0.974506 0.742817 0.522236 -0.176313
I19   I     I_    0.474421 0.757279 0.022985 -0.177274
I20   I     I_    0.474731 0.242834 0.521880 -0.175734
I21   I     I_    0.210878 0.465579 0.250472 -0.290315
I22   I     I_    0.210883 0.534368 0.750447 -0.290571
I23   I     I_    0.710923 0.965632 0.250400 -0.290289
I24   I     I_    0.710965 0.034283 0.750285 -0.290424
I25   I     I_    0.101539 0.451403 0.200588 -0.385704
I26   I     I_    0.101546 0.548586 0.700636 -0.386214
I27   I     I_    0.601585 0.951412 0.200715 -0.385997
I28   I     I_    0.601620 0.048563 0.700881 -0.386396

loop_
_geom_bond_atom_site_label_1
_geom_bond_atom_site_label_2
_ccdc_geom_bond_type
C108  N8    S    
C51   C55   A    
O60   P12   S    
C9    O17   D    
C47   I19   S    
C38   C54   A    
C1    Cl9   S    
C121  O45   S    
C115  I27   S    
C3    Cl11  S    
C93   P14   S    
O5    P5    S    
C94   C134  S    
Ba4   O4    S    
O42   P13   D    
C31   H43   S    
C70   C110  A    
C129  O49   S    
C46   I18   S    
C90   H38   S    
O64   P12   D    
C5    C9    A    
O39   P16   S    
C7    C11   A    
C74   P5    S    
C8    C12   A    
O15   P8    S    
C66   C70   A    
C91   H79   S    
C50   I2    S    
Ba4   O15   S    
C43   C49   A    
C73   C109  A    
O49   P14   S    
C7    C23   A    
C12   O20   D    
C90   H74   S    
C98   P2    S    
C64   O32   D    
C124  H20   S    
C97   C133  D    
C59   N7    Am   
C86   H46   S    
C92   H80   S    
C127  Cl3   S    
C13   C17   A    
C100  C136  D    
C83   N3    S    
C114  I26   S    
C15   C19   A    
C116  I24   S    
C74   C78   A    
C46   O10   S    
C16   N4    Am   
C61   N5    Am   
C92   H40   S    
Ba3   P7    S    
C6    C10   A    
C25   H49   S    
C12   N4    Am   
C100  P4    S    
C49   I1    S    
C45   I17   S    
C57   O25   D    
C55   C59   A    
C80   C84   S    
C123  O47   S    
C64   N8    Am   
C53   C57   A    
O13   P6    S    
C115  C119  S    
C25   C31   A    
C101  I9    S    
C92   H76   S    
C26   C32   A    
C56   C60   A    
C128  Cl8   S    
C114  I22   S    
Ba1   O53   S    
C134  H62   S    
C117  H9    S    
C118  H6    S    
C79   H55   S    
C123  C127  S    
C13   N1    Am   
C77   H53   S    
C121  C125  S    
C85   C93   S    
C48   H72   S    
C99   C103  A    
Ba4   P8    S    
C45   C89   S    
C47   C91   S    
C113  I21   S    
O33   P1    S    
C21   C39   A    
C22   C40   A    
C1    C129  S    
C17   C21   A    
C136  H64   S    
O48   P4    S    
O9    P9    S    
C16   O24   D    
O4    P4    D    
Ba2   O38   S    
C124  H24   S    
C70   P9    S    
C89   H77   S    
C114  C118  S    
C47   H71   S    
C33   C61   A    
C84   N4    S    
C39   C55   A    
C2    Cl10  S    
C78   C82   S    
C131  H3    S    
C122  O46   S    
C48   O12   S    
C127  H27   S    
C66   H58   S    
C94   P13   S    
O6    P6    S    
C95   C135  S    
C93   C133  S    
C17   C41   A    
C19   C43   A    
C20   C44   A    
C76   C112  A    
C106  N6    S    
Ba3   O3    S    
C4    I16   S    
C125  Cl1   S    
C46   C90   S    
O7    P7    S    
O57   P9    S    
C109  H65   S    
O55   P7    D    
C63   N7    Am   
C30   H42   S    
C104  I12   S    
O45   P1    S    
Ba2   O14   S    
C112  H68   S    
O47   P3    S    
O50   P13   S    
O11   P11   S    
O12   P12   S    
C18   C22   A    
Ba3   Ba4   S    
O40   P15   S    
C65   C81   A    
C126  Cl2   S    
C48   I20   S    
C87   H47   S    
C14   C18   A    
C103  C107  A    
O37   P14   S    
C20   C24   A    
C9    N1    Am   
C62   O30   D    
C4    H36   S    
C99   P3    S    
C125  Cl5   S    
Ba1   P1    S    
Ba3   P3    S    
C114  O5    S    
C15   O23   D    
C133  H61   S    
C80   H56   S    
C13   O21   D    
Ba4   O56   S    
Ba3   O16   S    
C26   H50   S    
C33   C37   A    
Ba1   O14   S    
Ba2   O2    S    
C41   I5    S    
Ba1   O34   S    
C36   C40   A    
C46   H70   S    
Ba3   O36   S    
C130  H30   S    
C42   C52   A    
O35   P3    S    
C87   C95   S    
C81   N1    S    
Ba4   O16   S    
C63   O31   D    
C54   C58   A    
O14   P5    S    
C79   C83   S    
C126  Cl6   S    
C4    C132  S    
O61   P9    D    
C76   C80   A    
O63   P11   D    
C97   P1    S    
Ba1   O57   S    
C5    C21   A    
Ba2   O54   S    
C119  H15   S    
Ba3   O59   S    
C120  H8    S    
O54   P6    D    
C117  H13   S    
C8    C24   A    
C131  O51   S    
C118  H10   S    
Ba1   P5    S    
C132  O52   S    
C75   C111  A    
C116  O7    S    
C102  C106  A    
C121  H17   S    
C122  C126  S    
C27   H51   S    
C69   C109  A    
C28   H52   S    
C129  H29   S    
C101  C105  A    
C76   P7    S    
C96   P15   S    
C132  H32   S    
C51   I3    S    
O34   P2    S    
C65   C69   A    
C131  H31   S    
O52   P15   S    
C74   C110  A    
C85   H45   S    
O10   P10   S    
C119  H11   S    
Ba3   O39   S    
C89   H73   S    
C130  O50   S    
C128  H28   S    
C15   N3    Am   
O53   P5    D    
C49   C53   A    
C88   C108  D    
C58   N6    Am   
O56   P8    D    
C29   C33   A    
C104  C108  A    
C31   C35   A    
C113  I25   S    
C130  H2    S    
O3    P3    D    
C126  H26   S    
C73   C77   A    
C62   N6    Am   
C88   H48   S    
C95   P16   S    
C67   C83   A    
C45   O9    S    
C18   C42   A    
C11   O19   D    
C29   H41   S    
C100  C104  A    
C123  H23   S    
O58   P10   S    
C121  H21   S    
C67   H59   S    
C102  I10   S    
C2    H34   S    
C129  H1    S    
C125  H25   S    
O8    P8    S    
O46   P2    S    
C37   C53   A    
C132  H4    S    
C135  H63   S    
C75   C79   A    
O51   P16   S    
C40   C56   A    
C11   N3    Am   
C14   N2    Am   
C78   H54   S    
C71   C111  A    
O41   P14   D    
C52   C56   A    
C115  O8    S    
O2    P2    D    
C36   C64   A    
C45   H69   S    
C47   O11   S    
O36   P4    S    
C89   H37   S    
C71   P12   S    
O38   P13   S    
C72   P11   S    
C28   C30   A    
C73   P6    S    
C111  H67   S    
C91   H75   S    
Ba2   P2    S    
C61   O29   D    
O44   P15   D    
C68   C72   A    
C1    H33   S    
C44   C50   A    
C43   I7    S    
Ba4   O60   S    
C4    Cl12  S    
C44   I8    S    
C34   C38   A    
Ba2   O33   S    
C1    I13   S    
C85   C105  D    
C90   H78   S    
C3    I15   S    
Ba1   Ba2   S    
C98   C134  D    
C87   C107  D    
C6    C26   A    
C124  O48   S    
C113  C117  S    
C96   C136  S    
C59   O27   D    
C34   C62   A    
C3    H35   S    
C27   C29   A    
C103  I11   S    
C32   H44   S    
C19   C23   A    
C5    C25   A    
Ba2   O58   S    
C6    C22   A    
Ba3   O55   S    
C120  H12   S    
C7    C27   A    
O59   P11   S    
C8    C28   A    
C65   H57   S    
C118  H14   S    
Ba2   P6    S    
C124  C128  S    
C68   C84   A    
C122  H18   S    
C97   C101  A    
C42   I6    S    
C16   C20   A    
C32   C36   A    
C105  N5    S    
C35   C39   A    
C57   N5    Am   
C110  H66   S    
C127  Cl7   S    
C3    C131  S    
C99   C135  D    
C68   H60   S    
C23   C37   A    
Ba3   O15   S    
O43   P16   D    
C128  Cl4   S    
O1    P1    D    
C41   C51   A    
Ba1   O13   S    
O62   P10   D    
C91   H39   S    
C119  H7    S    
C120  H16   S    
C117  H5    S    
C2    I14   S    
C86   C106  D    
C66   C82   A    
C123  H19   S    
C60   N8    Am   
C88   C96   S    
C50   C54   A    
C58   O26   D    
C30   C34   A    
C35   C63   A    
C10   N2    Am   
Ba4   O40   S    
Ba4   P4    S    
C75   P8    S    
C115  I23   S    
C116  I28   S    
C107  N7    S    
C2    C130  S    
C122  H22   S    
C67   C71   A    
C113  O6    S    
C14   O22   D    
Ba4   O35   S    
C24   C38   A    
C72   C112  A    
C48   C92   S    
Ba2   O13   S    
C77   C81   S    
Ba1   O1    S    
Ba1   O37   S    
C98   C102  A    
C69   P10   S    
C82   N2    S    
C60   O28   D    
C52   I4    S    
C86   C94   S    
C116  C120  S    
O16   P7    S    
C10   O18   D    
