data_mof_unit_46904.cif
_audit_creation_date              2013-03-05T15:49:18-0500
_audit_creation_method            fapswitch 2.2
_symmetry_space_group_name_H-M    P1
_symmetry_Int_Tables_number       1
_space_group_crystal_system       triclinic
_cell_length_a                    20.680112
_cell_length_b                    22.743611
_cell_length_c                    6.931386
_cell_angle_alpha                 89.654981
_cell_angle_beta                  87.157856
_cell_angle_gamma                 89.983541
_cell_volume                      3256.04184026

loop_
_atom_site_label
_atom_site_type_symbol
_atom_site_description
_atom_site_fract_x
_atom_site_fract_y
_atom_site_fract_z
_atom_type_partial_charge
O1    O     O_R   0.387100 0.552640 0.378490 -0.596807
O2    O     O_R   0.612900 0.052640 0.621510 -0.580536
O3    O     O_R   0.249610 0.559600 0.072250 -0.555821
O4    O     O_R   0.750390 0.059600 0.927750 -0.549312
O5    O     O_R   0.249120 0.447360 0.902040 -0.609268
O6    O     O_R   0.750880 0.947360 0.097960 -0.607250
C1    C     C_R   0.227868 0.574287 0.243775 0.959540
C2    C     C_R   0.772115 0.074330 0.755830 0.959810
O7    O     O_R   0.386610 0.559560 0.048860 -0.585599
O8    O     O_R   0.613390 0.059560 0.951140 -0.601588
O9    O     O_R   0.387100 0.447320 0.878470 -0.578532
O10   O     O_R   0.612900 0.947320 0.121530 -0.606214
C3    C     C_R   0.407786 0.574925 0.213591 0.942704
C4    C     C_R   0.592211 0.074819 0.784702 0.944244
O11   O     O_R   0.249120 0.552680 0.402050 -0.601846
O12   O     O_R   0.750880 0.052680 0.597950 -0.604670
O13   O     O_3   0.318110 0.463180 0.223790 -0.282338
O14   O     O_3   0.681890 0.963180 0.776210 -0.286050
V1    V     V_3+5 0.318110 0.506830 0.948930 1.186954
V2    V     V_3+5 0.681890 0.006830 0.051070 1.174854
O15   O     O_R   0.386610 0.440400 0.548840 -0.605848
O16   O     O_R   0.613390 0.940400 0.451160 -0.579149
C5    C     C_R   0.408028 0.425388 0.715277 1.008728
C6    C     C_R   0.592147 0.925163 0.286079 1.008111
O17   O     O_R   0.249610 0.440440 0.572240 -0.605799
O18   O     O_R   0.750390 0.940440 0.427760 -0.607869
C7    C     C_R   0.226913 0.426885 0.744328 0.965387
C8    C     C_R   0.773185 0.926962 0.256238 0.970763
V3    V     V_3+5 0.318110 0.493170 0.448930 1.156359
V4    V     V_3+5 0.681890 0.993170 0.551070 1.168347
O19   O     O_3   0.318110 0.536820 0.723940 -0.272320
O20   O     O_3   0.681890 0.036820 0.276060 -0.266403
C9    C     C_R   0.171305 0.386366 0.760322 -0.171347
C10   C     C_R   0.828970 0.886662 0.241019 -0.175680
C11   C     C_R   0.136326 0.373906 0.596733 -0.344847
C12   C     C_R   0.864133 0.873951 0.404523 -0.347542
C13   C     C_R   0.080615 0.338887 0.612115 0.657054
C14   C     C_R   0.920064 0.839200 0.389043 0.657332
C15   C     C_R   0.061718 0.313106 0.791684 0.034624
C16   C     C_R   0.938979 0.814012 0.209560 0.033704
C17   C     C_R   0.096877 0.325303 0.954288 -0.229805
C18   C     C_R   0.903680 0.826526 0.047116 -0.229506
C19   C     C_R   0.151050 0.361751 0.939364 -0.165677
C20   C     C_R   0.849306 0.862652 0.062072 -0.154360
C21   C     C_R   0.895226 0.189358 0.886479 -0.327118
C22   C     C_R   0.105879 0.690899 0.114727 -0.309972
C23   C     C_R   0.840872 0.152565 0.900715 0.555028
C24   C     C_R   0.159838 0.653859 0.100663 0.540137
C25   C     C_R   0.861765 0.124494 0.565321 -0.216457
C26   C     C_R   0.137488 0.622881 0.433442 -0.196594
C27   C     C_R   0.914248 0.162970 0.550863 -0.154747
C28   C     C_R   0.085041 0.661378 0.447928 -0.153695
C29   C     C_R   0.931889 0.195399 0.711244 0.148619
C30   C     C_R   0.068347 0.695452 0.288787 0.137643
C31   C     C_2   0.003539 0.275934 0.817164 -0.200196
C32   C     C_2   0.997174 0.776959 0.183940 -0.198731
C33   C     C_2   0.989773 0.233698 0.690716 -0.123614
C34   C     C_2   0.010778 0.734089 0.309903 -0.119916
C35   C     C_R   0.825239 0.117928 0.740513 -0.299814
C36   C     C_R   0.174759 0.617766 0.259233 -0.310358
H1    H     H_    0.150939 0.392561 0.457149 0.158270
H2    H     H_    0.849477 0.892191 0.543941 0.158379
H3    H     H_    0.850518 0.099086 0.439645 0.193088
H4    H     H_    0.148124 0.596355 0.558258 0.187449
H5    H     H_    0.022454 0.226833 0.565274 0.162004
H6    H     H_    0.978036 0.726819 0.435248 0.161811
H7    H     H_    0.082531 0.306087 0.093007 0.196915
H8    H     H_    0.918031 0.807752 0.908507 0.197305
H9    H     H_    0.908737 0.211683 0.015411 0.125557
H10   H     H_    0.094019 0.715145 0.986864 0.133877
H11   H     H_    0.177110 0.370478 0.067889 0.153993
H12   H     H_    0.823179 0.871637 0.933508 0.149558
H13   H     H_    0.973187 0.283190 0.946605 0.130193
H14   H     H_    0.027391 0.784620 0.054241 0.130455
H15   H     H_    0.941714 0.166853 0.414120 0.125104
H16   H     H_    0.056981 0.664116 0.583826 0.126410
C37   C     C_R   0.575694 0.363337 0.765062 -0.356913
C38   C     C_R   0.424899 0.859894 0.359657 -0.358886
H17   H     H_    0.665470 0.281084 0.785340 0.119326
H18   H     H_    0.336867 0.775643 0.391106 0.127628
H19   H     H_    0.624089 0.380040 0.783436 0.140981
H20   H     H_    0.377160 0.874658 0.409842 0.142753
C39   C     C_R   0.462263 0.382939 0.721129 -0.300620
C40   C     C_R   0.538037 0.882424 0.288481 -0.299449
C41   C     C_R   0.475249 0.093252 0.781735 -0.234419
C42   C     C_R   0.521889 0.597157 0.131128 -0.243709
C43   C     C_R   0.421320 0.129600 0.786644 -0.263041
C44   C     C_R   0.571979 0.635940 0.083018 -0.247141
C45   C     C_R   0.427595 0.190831 0.787727 0.533853
C46   C     C_R   0.564221 0.696535 0.107392 0.531281
C47   C     C_R   0.490223 0.217457 0.767317 -0.085778
C48   C     C_R   0.506879 0.719284 0.203108 -0.092333
C49   C     C_R   0.545525 0.179167 0.774435 0.057032
C50   C     C_R   0.454193 0.678943 0.242660 0.062638
C51   C     C_R   0.500502 0.280179 0.749231 0.127879
C52   C     C_R   0.498351 0.780548 0.251738 0.127429
C53   C     C_R   0.564290 0.302462 0.763787 0.142055
C54   C     C_R   0.435830 0.800345 0.316258 0.143213
C55   C     C_R   0.616708 0.264098 0.777353 -0.200850
C56   C     C_R   0.384561 0.760551 0.341866 -0.214790
C57   C     C_R   0.607780 0.203623 0.777632 -0.186320
C58   C     C_R   0.393840 0.700833 0.310202 -0.198969
C59   C     C_R   0.450703 0.321958 0.715319 -0.307007
C60   C     C_R   0.549552 0.822697 0.246558 -0.317745
C61   C     C_R   0.525108 0.403493 0.746939 0.555563
C62   C     C_R   0.475170 0.901008 0.342886 0.559285
C63   C     C_R   0.537402 0.116933 0.781280 -0.166020
C64   C     C_R   0.462224 0.617667 0.205845 -0.174152
H21   H     H_    0.402635 0.309060 0.681266 0.201608
H22   H     H_    0.599449 0.810270 0.222093 0.198295
H23   H     H_    0.468298 0.046015 0.783677 0.159855
H24   H     H_    0.528748 0.550813 0.100701 0.177783
H25   H     H_    0.373567 0.109938 0.795965 0.150217
H26   H     H_    0.616550 0.619081 0.015987 0.152541
H27   H     H_    0.650289 0.176020 0.784699 0.098431
H28   H     H_    0.352805 0.671855 0.336986 0.109047
O21   O     O_3   0.536503 0.462964 0.767505 -0.647102
C65   C     C_3   0.558670 0.486310 0.587103 0.245002
H29   H     H_    0.521900 0.480211 0.476648 0.099530
H30   H     H_    0.605035 0.465253 0.536153 0.092295
C66   C     C_3   0.570658 0.551874 0.608476 -0.880232
H31   H     H_    0.606739 0.559321 0.719081 0.247680
H32   H     H_    0.589873 0.570622 0.469073 0.220228
H33   H     H_    0.524779 0.574625 0.652667 0.263861
O22   O     O_3   0.463990 0.958474 0.399087 -0.641911
C67   C     C_3   0.441258 0.990295 0.240755 0.236333
H34   H     H_    0.393564 0.972950 0.199142 0.092370
H35   H     H_    0.476514 0.988327 0.113911 0.094502
C68   C     C_3   0.432628 0.054413 0.297743 -0.859158
H36   H     H_    0.479937 0.073528 0.333859 0.265957
H37   H     H_    0.413136 0.079812 0.176459 0.204688
H38   H     H_    0.398097 0.057863 0.425055 0.254025
O23   O     O_3   0.371380 0.223084 0.814686 -0.656671
C69   C     C_3   0.360195 0.233540 0.014282 0.240061
H39   H     H_    0.402755 0.254940 0.077389 0.103542
H40   H     H_    0.349152 0.191583 0.092856 0.104366
C70   C     C_3   0.302404 0.274551 0.043740 -0.864080
H41   H     H_    0.258724 0.254416 0.984470 0.258300
H42   H     H_    0.292793 0.282781 0.200310 0.216104
H43   H     H_    0.312499 0.317206 0.969297 0.241760
O24   O     O_3   0.612044 0.732368 0.025169 -0.654521
C71   C     C_3   0.594751 0.748318 0.837115 0.229528
H44   H     H_    0.545661 0.768679 0.838518 0.103980
H45   H     H_    0.595756 0.709130 0.741322 0.109799
C72   C     C_3   0.643075 0.793216 0.753213 -0.826753
H46   H     H_    0.692629 0.774261 0.746656 0.248182
H47   H     H_    0.630138 0.805844 0.605011 0.207120
H48   H     H_    0.642383 0.833182 0.844649 0.255848
O25   O     O_3   0.805444 0.147579 0.075081 -0.623149
C73   C     C_3   0.771652 0.200595 0.113652 0.232889
H49   H     H_    0.748662 0.218140 0.982837 0.065862
H50   H     H_    0.805045 0.234242 0.168515 0.095419
C74   C     C_3   0.718086 0.189426 0.268073 -0.813006
H51   H     H_    0.738778 0.171716 0.401314 0.245757
H52   H     H_    0.692394 0.231176 0.303370 0.194297
H53   H     H_    0.682717 0.157418 0.214545 0.261133
O26   O     O_3   0.196275 0.651726 0.928123 -0.623330
C75   C     C_3   0.241485 0.698286 0.925269 0.276377
H54   H     H_    0.273159 0.695144 0.050522 0.067844
H55   H     H_    0.216381 0.741648 0.927778 0.079144
C76   C     C_3   0.284354 0.695151 0.741034 -0.856915
H56   H     H_    0.254368 0.698065 0.612693 0.240919
H57   H     H_    0.319379 0.732177 0.736903 0.200835
H58   H     H_    0.311771 0.653218 0.736577 0.271900
O27   O     O_3   0.045588 0.328808 0.450820 -0.650480
C77   C     C_3   0.008084 0.379034 0.414027 -0.310762
H59   H     H_    0.039204 0.417203 0.370286 0.148370
H60   H     H_    0.975506 0.390409 0.541128 0.147464
H61   H     H_    0.977088 0.369304 0.292040 0.175416
O28   O     O_3   0.955304 0.828785 0.550076 -0.649945
C78   C     C_3   0.992561 0.879066 0.586184 -0.310030
H62   H     H_    0.961259 0.916970 0.629936 0.147989
H63   H     H_    0.024951 0.890960 0.458735 0.147760
H64   H     H_    0.023741 0.869115 0.707944 0.175945

loop_
_geom_bond_atom_site_label_1
_geom_bond_atom_site_label_2
_geom_bond_distance
_ccdc_geom_bond_type
V4    O20   2.143917 S    
C78   H62   1.112441 S    
O27   C77   1.409627 S    
C25   H3    1.083088 S    
O6    C8    1.294421 A    
C26   H4    1.083207 S    
O4    C2    1.294714 A    
V1    O19   1.698363 S    
C76   H58   1.109186 S    
C69   C70   1.522326 S    
C72   H46   1.110599 S    
O25   C73   1.413713 S    
C17   H7    1.081788 S    
C7    C9    1.473343 S    
C78   H63   1.113903 S    
C62   O22   1.382181 S    
O9    V1    2.010895 S    
C67   H34   1.114203 S    
C5    C39   1.481593 S    
O10   V2    2.007483 S    
O16   C6    1.295020 A    
H17   C55   1.084072 S    
C11   C13   1.400132 A    
C27   H15   1.083701 S    
O3    C1    1.295733 A    
C2    C35   1.479603 S    
C30   C34   1.481433 S    
C9    C11   1.405213 A    
C42   C44   1.387447 A    
O28   C78   1.409655 S    
O12   V4    2.006339 S    
C48   C52   1.444237 A    
O13   V3    1.706843 S    
O7    V1    2.008236 S    
O7    C3    1.293108 A    
C65   H29   1.114763 S    
C66   H33   1.111103 S    
C75   C76   1.520052 S    
C72   H47   1.110396 S    
O5    C7    1.295684 A    
C46   C48   1.428223 A    
C34   H6    1.086571 S    
O26   C75   1.412218 S    
C15   C31   1.473505 S    
C23   O25   1.385968 S    
C51   C59   1.428117 A    
C16   C32   1.473123 S    
C73   C74   1.522039 S    
C52   C54   1.420989 A    
C38   C54   1.404941 A    
C26   C28   1.393839 A    
O3    V1    2.017199 S    
O14   V4    1.699315 S    
C74   H52   1.110581 S    
C10   C12   1.405145 A    
C68   H38   1.110452 S    
C24   C36   1.414121 A    
C16   C18   1.399718 A    
O22   C67   1.410886 S    
C8    C10   1.473293 S    
C2    O12   1.298898 A    
H18   C56   1.083944 S    
C77   H60   1.113896 S    
C17   C19   1.393192 A    
C71   C72   1.521658 S    
C61   O21   1.382437 S    
C77   H59   1.112430 S    
C18   C20   1.392538 A    
C3    C64   1.486353 S    
C12   H2    1.083294 S    
C48   C50   1.439454 A    
C76   H57   1.110234 S    
C28   C30   1.401365 A    
O11   V3    2.003145 S    
C21   C23   1.400724 A    
O15   C5    1.299801 A    
O17   V3    2.010983 S    
C78   H64   1.109435 S    
C22   C24   1.397869 A    
C23   C35   1.415773 A    
C45   O23   1.379895 S    
C41   C43   1.387240 A    
C21   H9    1.079278 S    
C9    C19   1.403280 A    
C10   C20   1.403511 A    
C15   C17   1.400366 A    
C53   C55   1.397786 A    
C49   C57   1.403837 A    
C29   C33   1.481268 S    
C13   O27   1.382273 S    
C1    O11   1.295919 A    
C67   C68   1.521256 S    
C25   C27   1.393739 A    
O15   V3    2.003253 S    
C39   C61   1.401438 A    
C27   C29   1.401107 A    
C65   C66   1.521010 S    
C31   H13   1.082630 S    
C42   H24   1.084051 S    
C47   C49   1.439872 A    
C70   H42   1.110556 S    
C38   H20   1.084232 S    
C24   O26   1.382652 S    
C40   C62   1.401479 A    
C37   H19   1.084249 S    
C50   C64   1.426496 A    
C22   C30   1.406170 A    
C56   C58   1.388869 A    
C11   H1    1.083307 S    
C74   H53   1.110429 S    
C37   C53   1.404689 A    
C66   H31   1.109756 S    
C39   C59   1.408591 A    
C4    C63   1.484753 S    
C55   C57   1.387788 A    
C44   C46   1.397688 A    
O18   V4    2.016629 S    
C54   C56   1.398105 A    
C31   C33   1.344261 D    
O8    C4    1.299375 A    
O23   C69   1.412887 S    
C57   H27   1.083004 S    
C14   O28   1.382202 S    
C73   H50   1.112200 S    
C45   C47   1.430178 A    
C12   C14   1.400792 A    
C1    C36   1.478025 S    
C72   H48   1.110933 S    
C67   H35   1.115110 S    
C60   H22   1.075388 S    
C41   C63   1.393619 A    
C68   H36   1.111165 S    
V2    O20   1.705890 S    
C19   H11   1.083164 S    
O16   V4    2.008729 S    
C73   H49   1.116113 S    
C42   C64   1.395526 A    
C33   H5    1.086482 S    
C41   H23   1.083852 S    
C69   H40   1.113970 S    
C51   C53   1.421736 A    
C69   H39   1.115283 S    
O5    V1    2.005738 S    
O17   C7    1.295486 A    
O6    V2    2.002543 S    
C70   H41   1.110725 S    
O10   C6    1.297553 A    
O18   C8    1.295514 A    
C37   C61   1.398345 A    
C25   C35   1.405125 A    
C59   H21   1.074324 S    
C28   H16   1.083692 S    
O2    V4    2.010252 S    
C43   H25   1.083022 S    
C26   C36   1.405365 A    
C22   H10   1.079499 S    
C52   C60   1.427502 A    
C6    C40   1.481860 S    
C13   C15   1.410251 A    
C76   H56   1.110969 S    
O21   C65   1.411022 S    
C49   C63   1.425639 A    
C14   C16   1.410346 A    
C75   H55   1.114206 S    
O1    V3    2.006843 S    
C75   H54   1.115125 S    
O8    V2    2.002763 S    
C40   C60   1.408586 A    
C70   H43   1.111039 S    
O9    C5    1.293736 A    
O13   V1    2.142995 S    
C32   C34   1.343901 D    
C38   C62   1.398553 A    
C20   H12   1.083179 S    
O14   V2    2.153598 S    
C18   H8    1.081678 S    
C44   H26   1.082564 S    
O2    C4    1.294508 A    
C65   H30   1.114295 S    
C66   H32   1.109243 S    
C46   O24   1.380608 S    
C58   H28   1.082680 S    
C21   C29   1.405613 A    
O4    V2    2.011551 S    
O1    C3    1.300365 A    
C50   C58   1.403325 A    
C77   H61   1.109434 S    
V3    O19   2.154520 S    
C43   C45   1.398787 A    
C47   C51   1.446129 A    
C71   H44   1.115330 S    
C74   H51   1.110366 S    
O24   C71   1.413857 S    
C32   H14   1.082362 S    
C71   H45   1.114173 S    
C68   H37   1.109299 S    
