data_mof_unit_6613.cif
_audit_creation_date              2012-10-26T19:25:16-0400
_audit_creation_method            fapswitch 2.2
_symmetry_space_group_name_H-M    P1
_symmetry_Int_Tables_number       1
_space_group_crystal_system       triclinic
_cell_length_a                    12.291592
_cell_length_b                    13.269923
_cell_length_c                    19.316574
_cell_angle_alpha                 77.618296
_cell_angle_beta                  101.196506
_cell_angle_gamma                 116.589055
_cell_volume                      2734.49784109

loop_
_atom_site_label
_atom_site_type_symbol
_atom_type_description
_atom_site_fract_x
_atom_site_fract_y
_atom_site_fract_z
_atom_type_partial_charge
C1    C     C_R   0.854590 0.286873 0.507585 0.528632
C2    C     C_R   0.009078 0.510279 0.145834 0.048757
C3    C     C_R   0.266704 0.025426 0.420004 -0.016051
C4    C     C_R   0.002156 0.504205 0.632051 0.542382
C5    C     C_R   0.227629 0.833717 0.478074 -0.023496
C6    C     C_R   0.810593 0.092472 0.568814 -0.135117
C7    C     C_R   0.727330 0.984150 0.593224 -0.152693
C8    C     C_R   0.604184 0.946811 0.567120 -0.122223
C9    C     C_R   0.561829 0.015683 0.512408 0.029463
C10   C     C_R   0.647701 0.124814 0.486323 0.007687
C11   C     C_R   0.436474 0.980700 0.484554 0.001318
C12   C     C_R   0.006533 0.514095 0.707279 -0.006902
C13   C     C_R   0.395673 0.058315 0.436144 0.045986
C14   C     C_R   0.485641 0.160556 0.403496 0.009320
C15   C     C_R   0.609227 0.190273 0.428331 -0.110248
C16   C     C_R   0.145185 0.712979 0.490021 0.547242
C17   C     C_R   0.351142 0.868292 0.501925 -0.145673
C18   C     C_R   0.185150 0.912913 0.440222 -0.148964
C19   C     C_R   0.771306 0.165254 0.517776 -0.001080
C20   C     C_R   0.344967 0.327031 0.612289 -0.159861
C21   C     C_R   0.760695 0.646270 0.404651 0.042563
C22   C     C_R   0.664398 0.678248 0.384010 -0.169243
C23   C     C_R   0.017039 0.515203 0.070670 0.325151
C24   C     C_R   0.560190 0.622777 0.419739 -0.144438
C25   C     C_R   0.551303 0.534283 0.477019 -0.015329
C26   C     C_R   0.652578 0.504711 0.496349 0.182329
C27   C     C_R   0.446662 0.474589 0.516039 -0.021387
C28   C     C_R   0.001171 0.501282 0.367471 0.539034
C29   C     C_R   0.445562 0.386846 0.573064 0.027160
C30   C     C_R   0.545071 0.359580 0.591021 -0.183663
C31   C     C_R   0.646471 0.417653 0.553846 -0.092690
C32   C     C_R   0.342329 0.497942 0.501386 0.025852
C33   C     C_R   0.245586 0.354367 0.595255 0.029229
C34   C     C_R   0.017049 0.520033 0.929987 0.333569
C35   C     C_R   0.055773 0.451097 0.760195 -0.155793
C36   C     C_R   0.058171 0.454208 0.831806 -0.141173
C37   C     C_R   0.011348 0.520336 0.852837 0.014451
C38   C     C_R   0.960710 0.584997 0.800179 -0.023744
C39   C     C_R   0.960524 0.583701 0.727033 -0.036251
C40   C     C_3   0.459438 0.231884 0.335345 -0.275912
C41   C     C_3   0.479160 0.348535 0.348691 -0.419292
C42   C     C_R   0.208855 0.104703 0.391597 0.027312
C43   C     C_R   0.213237 0.179329 0.434771 -0.107266
C44   C     C_R   0.140152 0.238950 0.413813 -0.120574
C45   C     C_R   0.100145 0.493860 0.196450 -0.136650
C46   C     C_R   0.062245 0.224302 0.350038 -0.103754
C47   C     C_R   0.058475 0.151317 0.306347 -0.114422
C48   C     C_R   0.130332 0.090610 0.327350 -0.115183
C49   C     C_R   0.903941 0.650682 0.820800 0.050835
C50   C     C_R   0.959204 0.770310 0.808856 -0.068287
C51   C     C_R   0.904951 0.831607 0.828048 -0.105985
C52   C     C_R   0.795765 0.773999 0.859520 -0.100336
C53   C     C_R   0.740383 0.654970 0.871626 -0.107488
C54   C     C_R   0.793932 0.593320 0.852145 -0.081841
C55   C     C_R   0.914918 0.657223 0.671857 0.050905
C56   C     C_R   0.098624 0.492470 0.268458 -0.153144
C57   C     C_R   0.996911 0.751271 0.630356 -0.065607
C58   C     C_R   0.953810 0.818696 0.577179 -0.096716
C59   C     C_R   0.828949 0.792918 0.565224 -0.102374
C60   C     C_R   0.747129 0.700688 0.607105 -0.107672
C61   C     C_R   0.789666 0.632595 0.660062 -0.072955
C62   C     C_3   0.809190 0.536253 0.115969 -0.272189
C63   C     C_3   0.826069 0.659755 0.101121 -0.423746
C64   C     C_R   0.004063 0.504644 0.291218 -0.012001
C65   C     C_R   0.912157 0.520363 0.240582 -0.123074
C66   C     C_R   0.913396 0.523429 0.167781 0.017802
Cu1   Cu    Cu3+1 0.098280 0.475420 0.516260 0.901573
Cu2   Cu    Cu3+1 0.901720 0.524580 0.483740 0.914373
H1    H     H_    0.091443 0.397716 0.746154 0.125530
H2    H     H_    0.097598 0.404605 0.871152 0.135392
H3    H     H_    0.334789 0.562691 0.458941 0.121688
H4    H     H_    0.841390 0.689759 0.376727 0.124114
H5    H     H_    0.488434 0.651023 0.401477 0.101132
H6    H     H_    0.670550 0.746230 0.340214 0.102398
H7    H     H_    0.718669 0.391898 0.572905 0.186341
H8    H     H_    0.173812 0.483980 0.179975 0.122829
H9    H     H_    0.171328 0.481319 0.306311 0.131785
H10   H     H_    0.838308 0.529333 0.257572 0.124146
H11   H     H_    0.087532 0.886876 0.425751 0.127715
H12   H     H_    0.379474 0.803782 0.531196 0.126765
H13   H     H_    0.426967 0.340116 0.391956 0.172192
H14   H     H_    0.577820 0.400553 0.363795 0.163243
H15   H     H_    0.448428 0.393900 0.299307 0.136059
H16   H     H_    0.522530 0.245174 0.296648 0.128026
H17   H     H_    0.367554 0.188335 0.307309 0.157054
H18   H     H_    0.269793 0.188154 0.485624 0.119180
H19   H     H_    0.141236 0.294141 0.447805 0.165550
H20   H     H_    0.003233 0.267977 0.335045 0.123779
H21   H     H_    0.997568 0.139566 0.257128 0.115145
H22   H     H_    0.123016 0.030694 0.294492 0.101820
H23   H     H_    0.904567 0.121772 0.593318 0.122244
H24   H     H_    0.044077 0.815775 0.784794 0.102206
H25   H     H_    0.947669 0.923775 0.818645 0.100948
H26   H     H_    0.754078 0.821591 0.874526 0.106748
H27   H     H_    0.655900 0.610475 0.896046 0.103306
H28   H     H_    0.750108 0.501106 0.861547 0.102385
H29   H     H_    0.093778 0.771555 0.638837 0.092933
H30   H     H_    0.017137 0.890709 0.545083 0.107449
H31   H     H_    0.795614 0.844553 0.523588 0.122412
H32   H     H_    0.650520 0.681226 0.597996 0.113113
H33   H     H_    0.725126 0.560177 0.691353 0.106743
H34   H     H_    0.544674 0.864933 0.592737 0.101326
H35   H     H_    0.826331 0.688684 0.151049 0.140034
H36   H     H_    0.913569 0.715931 0.078247 0.184877
H37   H     H_    0.749571 0.667007 0.062243 0.137001
H38   H     H_    0.800636 0.506930 0.064692 0.165786
H39   H     H_    0.721055 0.481521 0.138637 0.129259
H40   H     H_    0.757546 0.930395 0.635033 0.125117
H41   H     H_    0.676291 0.264309 0.399623 0.141701
H42   H     H_    0.167293 0.308548 0.625132 0.118677
H43   H     H_    0.545172 0.293049 0.634848 0.110394
H44   H     H_    0.343327 0.259709 0.655852 0.090811
N1    N     N_R   0.027960 0.612676 0.954881 -0.218453
N2    N     N_R   0.027246 0.610169 0.023928 -0.234047
N3    N     N_R   0.010494 0.423755 0.046565 -0.237113
N4    N     N_R   0.010339 0.426118 0.977339 -0.242203
N5    N     N_R   0.246290 0.438200 0.540910 -0.244477
N6    N     N_R   0.754310 0.561190 0.459520 -0.232803
O1    O     O_R   0.972510 0.318130 0.520450 -0.512130
O2    O     O_R   0.806530 0.359650 0.492990 -0.526440
O3    O     O_R   0.083010 0.479220 0.613590 -0.499107
O4    O     O_R   0.917030 0.520740 0.586130 -0.503656
O5    O     O_R   0.193470 0.640350 0.507010 -0.504940
O6    O     O_R   0.027490 0.681870 0.479550 -0.501974
O7    O     O_R   0.082970 0.479260 0.413870 -0.515995
O8    O     O_R   0.916990 0.520780 0.386410 -0.514455

loop_
_geom_bond_atom_site_label_1
_geom_bond_atom_site_label_2
_ccdc_geom_bond_type
C3    C42   S    
C33   N5    A    
C53   H27   S    
C34   C37   S    
C59   H31   S    
C15   H41   S    
C35   C36   A    
C58   H30   S    
C32   N5    A    
Cu2   O6    S    
C7    C8    A    
C38   C49   S    
C53   C54   A    
C52   C53   A    
C34   N1    A    
C6    C19   A    
C37   C38   A    
C45   H8    S    
C36   C37   A    
C16   O5    A    
C10   C15   A    
Cu1   O7    S    
C30   C31   A    
C24   H5    S    
C27   C29   A    
C34   N4    A    
C49   C54   A    
C41   H15   S    
C3    C18   A    
C1    O1    A    
C40   H16   S    
C5    C16   S    
Cu2   N6    S    
C20   H44   S    
C39   C55   S    
C45   C56   A    
C44   C46   A    
C18   H11   S    
C56   C64   A    
C52   H26   S    
C4    C12   S    
C29   C30   A    
C9    C10   A    
C54   H28   S    
C3    C13   A    
C6    H23   S    
C57   H29   S    
C59   C60   A    
C48   H22   S    
C21   C22   A    
C47   H21   S    
Cu1   O3    S    
C36   H2    S    
C32   H3    S    
C46   H20   S    
C20   C29   A    
C2    C45   A    
C1    C19   S    
C62   C66   S    
C21   H4    S    
C51   C52   A    
C24   C25   A    
C63   H35   S    
Cu2   O4    S    
C8    C9    A    
C62   H39   S    
C60   H32   S    
C25   C26   A    
C23   N3    A    
C17   H12   S    
C56   H9    S    
Cu1   Cu2   S    
C60   C61   A    
C1    O2    A    
C40   H17   S    
C61   H33   S    
C43   C44   A    
C21   N6    A    
Cu1   N5    S    
C31   H7    S    
C47   C48   A    
C10   C19   A    
C41   H13   S    
C62   C63   S    
C50   C51   A    
C4    O4    A    
C42   C48   A    
C12   C35   A    
C9    C11   A    
C51   H25   S    
C20   C33   A    
C28   C64   S    
C50   H24   S    
C40   C41   S    
C49   C50   A    
C55   C57   A    
C25   C27   A    
C22   C24   A    
C63   H37   S    
C42   C43   A    
C22   H6    S    
C44   H19   S    
Cu2   O8    S    
C28   O7    A    
N1    N2    A    
C46   C47   A    
C11   C17   A    
C65   H10   S    
C27   C32   A    
C14   C15   A    
C43   H18   S    
C26   N6    A    
C63   H36   S    
C2    C66   A    
Cu1   O5    S    
C6    C7    A    
C62   H38   S    
C28   O8    A    
C30   H43   S    
C64   C65   A    
C12   C39   A    
C58   C59   A    
Cu2   O2    S    
C23   N2    A    
C11   C13   A    
C57   C58   A    
C38   C39   A    
Cu1   O1    S    
C5    C18   A    
C41   H14   S    
C55   C61   A    
C4    O3    A    
C16   O6    A    
C14   C40   S    
C26   C31   A    
C5    C17   A    
C35   H1    S    
C65   C66   A    
C2    C23   S    
C7    H40   S    
C33   H42   S    
C13   C14   A    
C8    H34   S    
N3    N4    A    
