data_mof_unit_48766.cif
_audit_creation_date              2012-12-11T18:13:20-0500
_audit_creation_method            fapswitch 2.2
_symmetry_space_group_name_H-M    P1
_symmetry_Int_Tables_number       1
_space_group_crystal_system       triclinic
_cell_length_a                    8.22976
_cell_length_b                    12.734027
_cell_length_c                    18.707344
_cell_angle_alpha                 99.63508
_cell_angle_beta                  91.374328
_cell_angle_gamma                 98.145926
_cell_volume                      1911.04854199

loop_
_atom_site_label
_atom_site_type_symbol
_atom_type_description
_atom_site_fract_x
_atom_site_fract_y
_atom_site_fract_z
_atom_type_partial_charge
Ba1   Ba    Ba6+2 0.852780 0.548340 0.465070 1.658159
Ba2   Ba    Ba6+2 0.337060 0.451750 0.534940 1.659496
C1    C     C_3   0.564832 0.903274 0.261055 -0.350362
C2    C     C_3   0.531977 0.784072 0.261532 0.319608
C3    C     C_3   0.443659 0.272694 0.313997 0.313894
C4    C     C_3   0.371061 0.226257 0.237542 -0.389566
C5    C     C_3   0.064566 0.239260 0.734434 0.355685
C6    C     C_3   0.085290 0.215687 0.810922 -0.364303
C7    C     C_3   0.561589 0.181556 0.700810 0.352818
C8    C     C_3   0.612135 0.099801 0.744378 -0.411304
C9    C     C_R   0.994800 0.448248 0.047357 0.005232
C10   C     C_R   0.891575 0.399978 0.095311 0.034981
C11   C     C_R   0.728078 0.357398 0.072844 -0.085808
C12   C     C_3   0.093560 0.754855 0.267801 0.399073
C13   C     C_R   0.667914 0.362054 0.003138 -0.089897
C14   C     C_R   0.770308 0.408906 0.954493 0.030632
C15   C     C_R   0.934104 0.452820 0.976600 0.013198
C16   C     C_R   0.711388 0.411054 0.883990 -0.107540
C17   C     C_R   0.814403 0.454603 0.833666 -0.042728
C18   C     C_R   0.977437 0.503097 0.856496 -0.005728
C19   C     C_R   0.036657 0.501477 0.928235 -0.008800
C20   C     C_R   0.760382 0.448925 0.760716 -0.004745
C21   C     C_R   0.868360 0.489019 0.711633 -0.297699
C22   C     C_R   0.025571 0.544181 0.733816 0.044978
C23   C     C_3   0.080324 0.778071 0.190922 -0.359526
C24   C     C_R   0.081520 0.552472 0.807831 -0.046524
C25   C     C_R   0.158342 0.491472 0.070092 -0.009184
C26   C     C_R   0.217163 0.489832 0.141989 0.001285
C27   C     C_R   0.110307 0.446033 0.191834 -0.047982
C28   C     C_R   0.951287 0.396956 0.165615 -0.051992
C29   C     C_R   0.239029 0.605691 0.834686 -0.041575
C30   C     C_R   0.301148 0.597954 0.904083 0.035412
C31   C     C_R   0.199717 0.545945 0.951172 0.005778
C32   C     C_R   0.261356 0.539287 0.021539 0.013808
C33   C     C_R   0.464908 0.639769 0.926725 -0.084450
C34   C     C_3   0.235989 0.786432 0.620254 0.281157
C35   C     C_R   0.527255 0.630191 0.995250 -0.092166
C36   C     C_R   0.425944 0.581097 0.043352 0.033090
C37   C     C_R   0.381749 0.533722 0.164109 -0.046292
C38   C     C_R   0.486118 0.575256 0.113229 -0.112870
C39   C     C_R   0.434427 0.539855 0.237522 -0.016516
C40   C     C_R   0.325306 0.503912 0.287342 -0.290685
C41   C     C_R   0.165268 0.454911 0.266196 0.050702
C42   C     C_R   0.766349 0.181035 0.525564 -0.239298
C43   C     C_R   0.429983 0.808648 0.471417 -0.281709
C44   C     C_R   0.401193 0.984498 0.446157 -0.095248
C45   C     C_3   0.249736 0.908359 0.636563 -0.349415
C46   C     C_R   0.337981 0.876573 0.443140 -0.014010
C47   C     C_R   0.578994 0.849126 0.509930 0.079348
C48   C     C_R   0.643216 0.960813 0.517010 -0.035921
C49   C     C_R   0.553549 0.028446 0.482866 -0.052625
C50   C     C_R   0.617509 0.138628 0.487420 0.032352
C51   C     C_R   0.857560 0.115926 0.557632 0.020701
C52   C     C_R   0.794487 0.006993 0.555436 -0.078397
C53   C     C_3   0.879892 0.200174 0.329095 0.462365
C54   C     C_3   0.786090 0.162927 0.256150 -0.357504
C55   C     C_3   0.729377 0.707728 0.682886 0.314558
C56   C     C_3   0.751990 0.746063 0.764499 -0.405990
H1    H     H_    0.473895 0.772808 0.313382 -0.017406
H2    H     H_    0.335128 0.940484 0.684322 0.114766
H3    H     H_    0.296999 0.943828 0.589702 0.074178
H4    H     H_    0.127153 0.932034 0.648422 0.141873
H5    H     H_    0.810114 0.246077 0.369846 0.007037
H6    H     H_    0.736059 0.230408 0.238503 0.066902
H7    H     H_    0.680018 0.102194 0.260973 0.119468
H8    H     H_    0.866404 0.128256 0.214370 0.116474
H9    H     H_    0.845007 0.682636 0.662156 0.013550
H10   H     H_    0.628524 0.638470 0.672199 0.063849
H11   H     H_    0.625014 0.944321 0.313743 0.142192
H12   H     H_    0.857352 0.812256 0.776825 0.128432
H13   H     H_    0.776133 0.679178 0.792334 0.056662
H14   H     H_    0.638933 0.775884 0.785639 0.116841
H15   H     H_    0.446026 0.748108 0.214535 -0.002321
H16   H     H_    0.447100 0.934689 0.254524 0.088984
H17   H     H_    0.348911 0.311211 0.345355 0.063047
H18   H     H_    0.551479 0.334696 0.310881 0.016625
H19   H     H_    0.256960 0.169238 0.240167 0.165003
H20   H     H_    0.342165 0.291581 0.209223 0.052453
H21   H     H_    0.643728 0.919228 0.215560 0.124502
H22   H     H_    0.189979 0.833866 0.180365 0.101138
H23   H     H_    0.146917 0.314924 0.730661 0.094584
H24   H     H_    0.935067 0.250477 0.724980 -0.072618
H25   H     H_    0.047433 0.281361 0.850819 0.071853
H26   H     H_    0.008029 0.138676 0.816002 0.110665
H27   H     H_    0.215810 0.209522 0.823380 0.148719
H28   H     H_    0.672426 0.215031 0.674612 -0.066856
H29   H     H_    0.469217 0.139897 0.657294 0.074157
H30   H     H_    0.709281 0.139864 0.786162 0.114101
H31   H     H_    0.660222 0.034356 0.707866 0.089511
H32   H     H_    0.984905 0.698495 0.276358 0.127688
H33   H     H_    0.505241 0.064753 0.772175 0.128868
H34   H     H_    0.646246 0.321067 0.109406 0.059059
H35   H     H_    0.541161 0.328695 0.987205 0.071764
H36   H     H_    0.826307 0.481286 0.655497 0.067055
H37   H     H_    0.584931 0.377082 0.868955 0.110253
H38   H     H_    0.868702 0.360500 0.200268 0.091942
H39   H     H_    0.317887 0.650246 0.801360 0.096808
H40   H     H_    0.545666 0.678718 0.891038 0.062642
H41   H     H_    0.654482 0.662451 0.010971 0.071390
H42   H     H_    0.613605 0.606949 0.128063 0.102728
H43   H     H_    0.203748 0.715812 0.274019 -0.106315
H44   H     H_    0.367338 0.511963 0.343521 0.064849
H45   H     H_    0.327710 0.033114 0.420843 0.139256
H46   H     H_    0.866506 0.959680 0.582603 0.095265
H47   H     H_    0.815971 0.264845 0.527197 0.066176
H48   H     H_    0.379811 0.724449 0.467317 0.060560
H49   H     H_    0.072433 0.701837 0.151402 0.071718
H50   H     H_    0.968319 0.815258 0.183369 0.148514
H51   H     H_    0.357664 0.763756 0.607147 0.004556
H52   H     H_    0.147236 0.756294 0.573209 0.069918
O1    O     O_2   0.873090 0.425890 0.325140 -0.497576
O2    O     O_3   0.691110 0.793064 0.650582 -0.645170
O3    O     O_3   0.099204 0.850759 0.317697 -0.574175
O4    O     O_2   0.316610 0.574140 0.674900 -0.471445
O5    O     O_3   0.067290 0.565720 0.585630 -0.495686
O6    O     O_3   0.530210 0.372990 0.631200 -0.470179
O7    O     O_3   0.184141 0.746145 0.682247 -0.638972
O8    O     O_3   0.611340 0.366290 0.463630 -0.485746
O9    O     O_3   0.108550 0.314140 0.595200 -0.479511
O10   O     O_2   0.196717 0.121820 0.551790 -0.466282
O11   O     O_3   0.106081 0.152968 0.684535 -0.607207
O12   O     O_3   0.122420 0.434370 0.414380 -0.464210
O13   O     O_3   0.578370 0.633800 0.536380 -0.493476
O14   O     O_2   0.341510 0.231850 0.465510 -0.426384
O15   O     O_3   0.492481 0.189052 0.345644 -0.651483
O16   O     O_2   0.420124 0.453906 0.756924 -0.497420
O17   O     O_3   0.490208 0.259336 0.747315 -0.598270
O18   O     O_3   0.659500 0.627100 0.368810 -0.456585
O19   O     O_2   0.777539 0.550940 0.242785 -0.516127
O20   O     O_3   0.032668 0.255370 0.318903 -0.637472
O21   O     O_3   0.679141 0.739718 0.254533 -0.587658
O22   O     O_2   0.848200 0.768190 0.534530 -0.472688
O23   O     O_3   0.081160 0.685950 0.404810 -0.503169
O24   O     O_2   0.002292 0.878628 0.451115 -0.438704
P1    P     P_3+3 0.041040 0.394770 0.336330 0.978829
P2    P     P_3+3 0.672880 0.754030 0.556100 0.969462
P3    P     P_3+3 0.129970 0.823454 0.405330 0.994740
P4    P     P_3+3 0.148670 0.605320 0.663680 0.970290
P5    P     P_3+3 0.065761 0.175455 0.596465 0.979807
P6    P     P_3+3 0.637514 0.609771 0.274777 0.944323
P7    P     P_3+3 0.520653 0.230295 0.439572 0.946271
P8    P     P_3+3 0.551172 0.386630 0.724939 0.945708
I1    I     I_    0.936892 0.064233 0.368768 -0.431412
H53   H     H_    0.458703 0.182162 0.205007 0.104569

loop_
_geom_bond_atom_site_label_1
_geom_bond_atom_site_label_2
_ccdc_geom_bond_type
C53   C54   S    
O23   P3    S    
C6    H25   S    
C39   C40   A    
C17   C18   A    
Ba1   O18   S    
Ba1   O22   S    
C1    H21   S    
C45   H4    S    
Ba2   O8    S    
C5    C6    S    
C37   C39   A    
C42   H47   S    
C8    H30   S    
C7    O17   S    
C46   P3    S    
C6    H27   S    
C52   H46   S    
C26   C27   A    
C1    H11   S    
C55   H9    S    
Ba1   Ba2   S    
C3    C4    S    
C56   H13   S    
C4    H20   S    
C55   O2    S    
C19   C31   A    
C54   H7    S    
C23   H22   S    
C2    H1    S    
C34   C45   S    
C16   C17   A    
C1    H16   S    
Ba1   O12   S    
C12   H32   S    
C39   P6    S    
C28   H38   S    
O21   P6    S    
C45   H2    S    
Ba2   O6    S    
C42   C51   A    
O1    P1    D    
O20   P1    S    
C8    H31   S    
O15   P7    S    
C14   C15   A    
C53   H5    S    
C21   C22   A    
C54   H6    S    
C43   C47   A    
C33   H40   S    
C7    C8    S    
C10   C28   A    
O8    P7    S    
O4    P4    D    
C24   C29   A    
C6    H26   S    
C27   C41   A    
C16   H37   S    
O24   P3    D    
Ba1   O23   S    
C40   H44   S    
C48   C49   A    
C2    O21   S    
Ba2   O12   S    
C25   C32   A    
C44   C46   A    
C53   I1    S    
O2    P2    S    
C49   C50   A    
Ba2   P4    S    
C30   C33   A    
C45   H3    S    
C17   C20   A    
C37   C38   A    
C56   H12   S    
C12   H43   S    
C26   C37   A    
C22   P4    S    
Ba2   O13   S    
C44   C49   A    
O16   P8    D    
C15   C19   A    
O17   P8    S    
C3    H17   S    
Ba1   O13   S    
C13   H35   S    
C35   C36   A    
C7    H28   S    
Ba2   O5    S    
C5    O11   S    
C29   C30   A    
O5    P4    S    
C9    C25   A    
O22   P2    D    
C53   O20   S    
C20   P8    S    
C31   C32   A    
O10   P5    D    
C48   C52   A    
C10   C11   A    
C41   P1    S    
C34   O7    S    
C2    H15   S    
O6    P8    S    
C5    H23   S    
C47   P2    S    
C8    H33   S    
C11   C13   A    
C11   H34   S    
C34   H52   S    
O3    P3    S    
O14   P7    D    
C40   C41   A    
C55   H10   S    
C4    H53   S    
C1    C2    S    
Ba1   P2    S    
C35   H41   S    
C43   H48   S    
C23   H49   S    
C43   C46   A    
C9    C15   A    
C33   C35   A    
C32   C36   A    
C22   C24   A    
C4    H19   S    
O7    P4    S    
C42   C50   A    
C38   H42   S    
C9    C10   A    
C51   C52   A    
Ba2   O14   S    
C12   O3    S    
C44   H45   S    
C50   P7    S    
C21   H36   S    
O13   P2    S    
O9    P5    S    
C30   C31   A    
O11   P5    S    
C3    H18   S    
O18   P6    S    
Ba1   O1    S    
C36   C38   A    
Ba2   O4    S    
C56   H14   S    
C55   C56   S    
O19   P6    D    
C18   C24   A    
C54   H8    S    
Ba2   O9    S    
Ba1   O8    S    
C29   H39   S    
C12   C23   S    
O12   P1    S    
C51   P5    S    
C27   C28   A    
C5    H24   S    
C18   C19   A    
C14   C16   A    
C47   C48   A    
C3    O15   S    
C34   H51   S    
C20   C21   A    
Ba1   O5    S    
Ba1   P1    S    
C7    H29   S    
C13   C14   A    
C23   H50   S    
C25   C26   A    
