data_mof_unit_64553.cif
_audit_creation_date              2012-12-10T17:55:40-0500
_audit_creation_method            fapswitch 2.2
_symmetry_space_group_name_H-M    P1
_symmetry_Int_Tables_number       1
_space_group_crystal_system       triclinic
_cell_length_a                    18.313589
_cell_length_b                    18.348584
_cell_length_c                    26.044937
_cell_angle_alpha                 89.994565
_cell_angle_beta                  89.995552
_cell_angle_gamma                 90.000811
_cell_volume                      8751.83912157

loop_
_atom_site_label
_atom_site_type_symbol
_atom_type_description
_atom_site_fract_x
_atom_site_fract_y
_atom_site_fract_z
_atom_type_partial_charge
C1    C     C_R   0.140221 0.859963 0.250063 0.520529
C2    C     C_R   0.267016 0.819635 0.235333 -0.128560
C3    C     C_2   0.800956 0.599856 0.264893 0.239018
C4    C     C_R   0.733015 0.819601 0.764757 -0.128915
C5    C     C_R   0.733030 0.819595 0.235223 -0.128343
C6    C     C_R   0.766959 0.319580 0.264821 -0.128072
C7    C     C_R   0.766935 0.319557 0.735073 -0.127057
C8    C     C_R   0.233026 0.319590 0.264782 -0.128326
C9    C     C_R   0.260750 0.292003 0.707211 -0.130420
C10   C     C_R   0.819319 0.265066 0.265394 -0.155976
C11   C     C_R   0.819293 0.265043 0.734498 -0.152875
C12   C     C_R   0.180666 0.265076 0.265351 -0.156157
C13   C     C_R   0.140202 0.859944 0.749955 0.504437
C14   C     C_R   0.206783 0.239099 0.708260 -0.153523
C15   C     C_R   0.319215 0.764958 0.765656 -0.155111
C16   C     C_R   0.319379 0.765123 0.234761 -0.156503
C17   C     C_R   0.680654 0.765087 0.765326 -0.156811
C18   C     C_R   0.680670 0.765080 0.234646 -0.156268
C19   C     C_R   0.800296 0.193062 0.253111 0.053459
C20   C     C_R   0.800298 0.193064 0.746893 0.052547
C21   C     C_R   0.199701 0.193063 0.253108 0.053475
C22   C     C_R   0.193230 0.199503 0.753358 0.052344
C23   C     C_R   0.300259 0.693018 0.753143 0.052969
C24   C     C_R   0.859781 0.859963 0.250064 0.520967
C25   C     C_R   0.300307 0.693072 0.246889 0.053337
C26   C     C_R   0.699697 0.693068 0.753105 0.053380
C27   C     C_R   0.699702 0.693064 0.246884 0.053419
C28   C     C_R   0.933883 0.999522 0.026794 -0.129660
C29   C     C_R   0.933882 0.999537 0.973205 -0.130690
C30   C     C_R   0.066144 0.000720 0.026785 -0.129029
C31   C     C_R   0.066143 0.000758 0.973193 -0.118534
C32   C     C_R   0.433867 0.499942 0.526799 -0.133282
C33   C     C_R   0.433865 0.499944 0.473209 -0.132250
C34   C     C_R   0.566133 0.500018 0.526791 -0.131464
C35   C     C_R   0.859779 0.859965 0.749938 0.520830
C36   C     C_R   0.566130 0.500018 0.473201 -0.131449
C37   C     C_R   0.000009 0.000117 0.945874 0.039966
C38   C     C_R   0.000013 0.000078 0.054117 0.036811
C39   C     C_R   0.499997 0.499984 0.445879 0.036846
C40   C     C_R   0.500001 0.499982 0.554121 0.036539
C41   C     C_R   0.858628 0.138954 0.251110 0.542864
C42   C     C_R   0.858628 0.138957 0.748891 0.548167
C43   C     C_R   0.141372 0.138954 0.251108 0.542775
C44   C     C_R   0.139078 0.141238 0.751182 0.540184
C45   C     C_R   0.358616 0.638939 0.751121 0.540837
C46   C     C_R   0.640224 0.359966 0.750066 0.521505
C47   C     C_R   0.358630 0.638958 0.248891 0.542526
C48   C     C_R   0.641370 0.638956 0.751107 0.542166
C49   C     C_R   0.641371 0.638956 0.248888 0.542400
C50   C     C_R   0.000004 0.000009 0.110790 0.498785
C51   C     C_R   0.000001 0.000036 0.889206 0.514931
C52   C     C_R   0.500001 0.499987 0.610792 0.496035
C53   C     C_R   0.499998 0.499988 0.389208 0.497285
C54   C     C_R   0.000462 0.999942 0.388576 0.521529
C55   C     C_R   0.999538 0.999947 0.611424 0.515339
C56   C     C_R   0.499534 0.499941 0.888576 0.522242
C57   C     C_R   0.640219 0.359964 0.249937 0.520836
C58   C     C_R   0.500459 0.499947 0.111424 0.522391
C59   C     C_2   0.001689 0.059772 0.528121 -0.154638
C60   C     C_2   0.998364 0.059769 0.471871 -0.152604
C61   C     C_2   0.498310 0.559769 0.028121 -0.150749
C62   C     C_2   0.501634 0.559765 0.971870 -0.150441
C63   C     C_2   0.995975 0.998682 0.556021 -0.088788
C64   C     C_2   0.004025 0.998672 0.443980 -0.088313
C65   C     C_2   0.504015 0.498679 0.056020 -0.086887
C66   C     C_2   0.495963 0.498670 0.943979 -0.087004
C67   C     C_R   0.726641 0.175362 0.241555 0.005650
C68   C     C_R   0.359883 0.359859 0.749958 0.520248
C69   C     C_R   0.726673 0.175391 0.758569 0.005156
C70   C     C_R   0.273367 0.175356 0.241596 0.005629
C71   C     C_R   0.233342 0.215186 0.798674 0.002670
C72   C     C_R   0.226650 0.675367 0.741384 0.001272
C73   C     C_R   0.226606 0.675322 0.258286 0.005462
C74   C     C_R   0.773367 0.675353 0.741614 0.005060
C75   C     C_R   0.773365 0.675352 0.258397 0.005545
C76   C     C_R   0.175496 0.731467 0.738597 -0.153923
C77   C     C_R   0.175426 0.731407 0.261074 -0.156547
C78   C     C_R   0.824541 0.731442 0.738833 -0.156064
C79   C     C_R   0.359780 0.359964 0.249939 0.521037
C80   C     C_R   0.824535 0.731442 0.261186 -0.156352
C81   C     C_R   0.675474 0.231455 0.238771 -0.156399
C82   C     C_R   0.675515 0.231487 0.761356 -0.156194
C83   C     C_R   0.324538 0.231447 0.238815 -0.156440
C84   C     C_R   0.289742 0.266063 0.796206 -0.150199
C85   C     C_R   0.195227 0.803020 0.750808 0.035273
C86   C     C_R   0.195263 0.803061 0.249231 0.033079
C87   C     C_R   0.804736 0.803064 0.750771 0.033197
C88   C     C_R   0.804739 0.803061 0.249233 0.033177
C89   C     C_R   0.695261 0.303061 0.250770 0.033238
C90   C     C_R   0.266854 0.819461 0.765096 -0.137122
C91   C     C_R   0.695270 0.303067 0.749239 0.032788
C92   C     C_R   0.304739 0.303061 0.250774 0.033202
C93   C     C_R   0.303043 0.304747 0.750905 0.039816
C94   C     C_2   0.699055 0.099873 0.235006 0.238510
C95   C     C_2   0.699102 0.099916 0.765247 0.237472
C96   C     C_2   0.300957 0.099863 0.235092 0.238249
C97   C     C_2   0.216554 0.183875 0.849873 0.243897
C98   C     C_2   0.199079 0.599906 0.734639 0.244076
C99   C     C_2   0.198993 0.599799 0.264649 0.238835
C100  C     C_2   0.800961 0.599853 0.735137 0.240178
H1    H     H_    0.007959 0.112266 0.546904 0.157186
H2    H     H_    0.119016 0.718697 0.270128 0.115751
H3    H     H_    0.880928 0.718753 0.729706 0.116635
H4    H     H_    0.880913 0.718756 0.270331 0.115831
H5    H     H_    0.619104 0.218775 0.229592 0.115677
H6    H     H_    0.619170 0.218822 0.770629 0.117967
H7    H     H_    0.380918 0.218764 0.229670 0.115613
H8    H     H_    0.321227 0.278132 0.830447 0.121460
H9    H     H_    0.282648 0.874715 0.774700 0.135647
H10   H     H_    0.282887 0.874986 0.226045 0.162991
H11   H     H_    0.717167 0.874925 0.774119 0.162555
H12   H     H_    0.992138 0.112268 0.453080 0.159119
H13   H     H_    0.717189 0.874916 0.225847 0.162991
H14   H     H_    0.782795 0.374892 0.274232 0.163029
H15   H     H_    0.782750 0.374848 0.725570 0.164040
H16   H     H_    0.217182 0.374909 0.274160 0.162895
H17   H     H_    0.270547 0.321789 0.671955 0.135841
H18   H     H_    0.875164 0.279502 0.274653 0.136812
H19   H     H_    0.875115 0.279460 0.725147 0.142635
H20   H     H_    0.124811 0.279516 0.274576 0.136781
H21   H     H_    0.176351 0.228271 0.673406 0.135399
H22   H     H_    0.375013 0.779362 0.775090 0.134396
H23   H     H_    0.492054 0.612265 0.046904 0.159615
H24   H     H_    0.375263 0.779591 0.225627 0.136449
H25   H     H_    0.624793 0.779533 0.774533 0.135567
H26   H     H_    0.624818 0.779524 0.225421 0.136574
H27   H     H_    0.882037 0.999035 0.046792 0.140569
H28   H     H_    0.882035 0.999054 0.953214 0.140086
H29   H     H_    0.117990 0.001208 0.046777 0.140675
H30   H     H_    0.117987 0.001293 0.953190 0.148769
H31   H     H_    0.382019 0.499910 0.546798 0.138079
H32   H     H_    0.382016 0.499915 0.453217 0.139206
H33   H     H_    0.617981 0.500048 0.546783 0.139879
H34   H     H_    0.507871 0.612263 0.953079 0.159597
H35   H     H_    0.617979 0.500049 0.453203 0.139857
H36   H     H_    0.651432 0.090027 0.211156 0.090859
H37   H     H_    0.651626 0.090103 0.789255 0.091900
H38   H     H_    0.348630 0.090008 0.211305 0.091137
H39   H     H_    0.259804 0.178208 0.878107 0.092135
H40   H     H_    0.151633 0.590123 0.710580 0.093035
H41   H     H_    0.151163 0.589875 0.288294 0.090363
H42   H     H_    0.848642 0.589981 0.711362 0.091948
H43   H     H_    0.848628 0.589992 0.288674 0.090580
H44   H     H_    0.986914 0.945765 0.538892 0.108666
H45   H     H_    0.013047 0.945749 0.461116 0.107055
H46   H     H_    0.513063 0.445761 0.038890 0.108086
H47   H     H_    0.486929 0.445748 0.961115 0.107205
H48   H     H_    0.119168 0.718821 0.729252 0.117228
O1    O     O_3   1.000000 0.000000 0.250030 -0.449458
O2    O     O_R   0.585480 0.353820 0.219950 -0.549362
O3    O     O_R   0.414520 0.353820 0.780050 -0.552877
O4    O     O_R   0.414520 0.353820 0.219950 -0.548837
O5    O     O_R   0.914530 0.146170 0.280090 -0.555992
O6    O     O_R   0.914530 0.146170 0.719910 -0.550127
O7    O     O_R   0.085470 0.146170 0.280090 -0.556215
O8    O     O_R   0.085470 0.146170 0.719910 -0.555041
O9    O     O_R   0.414530 0.646170 0.780090 -0.555637
O10   O     O_R   0.414530 0.646170 0.219910 -0.555736
O11   O     O_R   0.585470 0.646170 0.780090 -0.555971
O12   O     O_3   1.000000 1.000000 0.749970 -0.449259
O13   O     O_R   0.585470 0.646170 0.219910 -0.555630
O14   O     O_R   0.146180 0.085440 0.219990 -0.501162
O15   O     O_R   0.146180 0.085440 0.780010 -0.504349
O16   O     O_R   0.853820 0.085440 0.219990 -0.501415
O17   O     O_R   0.853820 0.085440 0.780010 -0.499218
O18   O     O_R   0.646180 0.585440 0.719990 -0.502221
O19   O     O_R   0.646180 0.585440 0.280010 -0.502141
O20   O     O_R   0.353820 0.585440 0.719990 -0.501961
O21   O     O_R   0.353820 0.585440 0.280010 -0.502215
O22   O     O_R   0.853820 0.914550 0.219980 -0.523508
O23   O     O_3   0.500000 0.500000 0.750030 -0.449021
O24   O     O_R   0.853820 0.914550 0.780020 -0.524714
O25   O     O_R   0.146180 0.914550 0.219980 -0.523393
O26   O     O_R   0.146180 0.914550 0.780020 -0.549778
O27   O     O_R   0.353820 0.414550 0.719980 -0.520209
O28   O     O_R   0.353820 0.414550 0.280020 -0.523937
O29   O     O_R   0.646180 0.414550 0.719980 -0.523891
O30   O     O_R   0.646180 0.414550 0.280020 -0.523658
O31   O     O_R   0.060720 0.999990 0.135450 -0.550393
O32   O     O_R   0.060720 0.999990 0.864550 -0.523252
O33   O     O_R   0.939280 0.999990 0.135450 -0.550715
O34   O     O_3   0.500000 0.500000 0.249970 -0.449294
O35   O     O_R   0.939280 0.999990 0.864550 -0.551598
O36   O     O_R   0.560720 0.499990 0.635450 -0.551061
O37   O     O_R   0.560720 0.499990 0.364550 -0.551127
O38   O     O_R   0.439280 0.499990 0.635450 -0.553811
O39   O     O_R   0.439280 0.499990 0.364550 -0.551445
O40   O     O_R   1.000000 0.939270 0.364600 -0.537075
O41   O     O_R   1.000000 0.939270 0.635400 -0.538890
O42   O     O_R   0.500000 0.439270 0.864600 -0.538277
O43   O     O_R   0.500000 0.439270 0.135400 -0.536455
O44   O     O_R   1.000000 0.060730 0.364620 -0.536242
O45   O     O_R   0.085480 0.853820 0.280050 -0.549816
O46   O     O_R   1.000000 0.060730 0.635380 -0.541768
O47   O     O_R   0.500000 0.560730 0.864620 -0.535216
O48   O     O_R   0.500000 0.560730 0.135380 -0.535630
O49   O     O_2   0.725817 0.048836 0.258477 -0.492909
O50   O     O_2   0.725702 0.048855 0.741714 -0.494779
O51   O     O_2   0.274138 0.048830 0.258532 -0.493752
O52   O     O_2   0.154135 0.168565 0.862314 -0.480641
O53   O     O_2   0.225631 0.548820 0.758184 -0.475965
O54   O     O_2   0.225981 0.548820 0.241245 -0.491638
O55   O     O_2   0.774136 0.548836 0.758586 -0.490132
O56   O     O_R   0.085480 0.853820 0.719950 -0.549572
O57   O     O_2   0.774137 0.548832 0.241453 -0.491820
O58   O     O_R   0.914520 0.853820 0.280050 -0.549167
O59   O     O_R   0.914520 0.853820 0.719950 -0.548089
O60   O     O_R   0.585480 0.353820 0.780050 -0.547319
Zn1   Zn    Zn3+2 1.000000 0.086760 0.292960 0.952279
Zn2   Zn    Zn3+2 0.586770 0.499990 0.292890 0.969765
Zn3   Zn    Zn3+2 0.413230 0.499990 0.707110 0.969220
Zn4   Zn    Zn3+2 0.413230 0.499990 0.292890 0.969461
Zn5   Zn    Zn3+2 0.000000 0.913240 0.292940 0.951536
Zn6   Zn    Zn3+2 1.000000 0.913240 0.707060 0.940240
Zn7   Zn    Zn3+2 0.500000 0.413240 0.792940 0.951469
Zn8   Zn    Zn3+2 0.500000 0.413240 0.207060 0.952947
Zn9   Zn    Zn3+2 1.000000 0.086760 0.707040 0.952613
Zn10  Zn    Zn3+2 0.500000 0.586760 0.792960 0.953039
Zn11  Zn    Zn3+2 0.500000 0.586760 0.207040 0.953373
Zn12  Zn    Zn3+2 0.086770 0.999990 0.207110 0.971426
Zn13  Zn    Zn3+2 0.086770 0.999990 0.792890 0.969546
Zn14  Zn    Zn3+2 0.913230 0.999990 0.207110 0.971359
Zn15  Zn    Zn3+2 0.913230 0.999990 0.792890 0.982254
Zn16  Zn    Zn3+2 0.586770 0.499990 0.707110 0.969431

loop_
_geom_bond_atom_site_label_1
_geom_bond_atom_site_label_2
_ccdc_geom_bond_type
C78   C87   A    
C96   O51   D    
C59   C60   S    
C23   C45   S    
C15   H22   S    
C64   H45   S    
C9    H17   S    
C98   O53   D    
C70   C96   S    
C97   O52   D    
C72   C76   A    
C11   H19   S    
O23   Zn16  S    
C4    C87   A    
C72   C98   S    
C7    C11   A    
C83   C92   A    
O4    Zn8   S    
C1    O25   A    
C33   C39   A    
C57   C89   S    
C80   H4    S    
C10   H18   S    
C17   C26   A    
C55   O41   A    
C28   C29   A    
C42   O6    A    
C25   C73   A    
O1    Zn1   S    
C49   O19   A    
C31   H30   S    
C51   O35   A    
C95   O50   D    
C96   H38   S    
C57   O30   A    
C37   C51   S    
C100  O55   D    
C43   O7    A    
O56   Zn6   S    
O34   Zn2   S    
O30   Zn2   S    
C73   C99   S    
C7    H15   S    
O25   Zn12  S    
C53   O37   A    
C6    H14   S    
C69   C82   A    
C84   H8    S    
O22   Zn14  S    
C5    C88   A    
C35   C87   S    
C22   C44   S    
C82   H6    S    
O10   Zn11  S    
C55   C63   S    
C67   C94   S    
C94   H36   S    
C63   H44   S    
C19   C67   A    
O8    Zn9   S    
C8    C92   A    
C44   O15   A    
O27   Zn3   S    
C2    C16   A    
C75   C80   A    
C25   C47   S    
C49   O13   A    
C28   H27   S    
C26   C48   S    
C24   O58   A    
O23   Zn7   S    
C39   C53   S    
C15   C23   A    
O12   Zn13  S    
O33   Zn14  S    
C7    C91   A    
O34   Zn11  S    
C14   H21   S    
O3    Zn7   S    
O38   Zn3   S    
O34   Zn8   S    
C35   O24   A    
O20   Zn3   S    
C77   H2    S    
O47   Zn10  S    
O26   Zn13  S    
C52   O38   A    
C27   C75   A    
C79   O28   A    
O42   Zn7   S    
C47   O21   A    
C68   O27   A    
C46   O29   A    
O46   Zn9   S    
C41   O5    A    
O15   Zn13  S    
C31   C37   A    
C13   O26   A    
C48   O11   A    
C56   O42   A    
C11   C20   A    
C95   H37   S    
C30   C38   A    
C62   C66   D    
C3    O57   D    
O7    Zn1   S    
C3    H43   S    
C71   C97   S    
O18   Zn16  S    
C74   C100  S    
C46   C91   S    
C12   H20   S    
C34   H33   S    
C40   C52   S    
O21   Zn4   S    
C12   C21   A    
O59   Zn6   S    
C82   C91   A    
O28   Zn4   S    
C98   H40   S    
O1    Zn12  S    
C59   H1    S    
C29   H28   S    
C1    O45   A    
C9    C14   A    
C60   H12   S    
C61   C65   D    
O43   Zn8   S    
C56   O47   A    
O23   Zn3   S    
C58   C65   S    
O12   Zn9   S    
C28   C38   A    
C10   C19   A    
C8    C12   A    
O11   Zn10  S    
O12   Zn6   S    
C57   O2    A    
O12   Zn15  S    
O31   Zn12  S    
O34   Zn4   S    
C66   H47   S    
C45   O9    A    
O32   Zn13  S    
O6    Zn9   S    
C70   C83   A    
C24   C88   S    
C79   C92   S    
C54   O44   A    
C4    C17   A    
C33   H32   S    
C35   O59   A    
C4    H11   S    
C77   C86   A    
C67   C81   A    
O60   Zn7   S    
O2    Zn8   S    
O13   Zn11  S    
C99   O54   D    
C14   C22   A    
C34   C40   A    
C20   C69   A    
C85   C90   A    
C50   O33   A    
O1    Zn14  S    
C13   C85   S    
C51   O32   A    
C30   H29   S    
C36   H35   S    
C9    C93   A    
C22   C71   A    
O48   Zn11  S    
C3    C75   S    
O58   Zn5   S    
C71   C84   A    
C46   O60   A    
C16   C25   A    
O36   Zn16  S    
C81   H5    S    
C2    H10   S    
C5    H13   S    
C78   H3    S    
C54   O40   A    
C23   C72   A    
C99   H41   S    
C36   C39   A    
C18   C27   A    
C52   O36   A    
O19   Zn2   S    
C69   C95   S    
C6    C10   A    
C20   C42   S    
O40   Zn5   S    
C42   O17   A    
O45   Zn5   S    
C38   C50   S    
C6    C89   A    
C59   C63   D    
C68   C93   S    
C13   O56   A    
C61   H23   S    
C21   C70   A    
C60   C64   D    
C94   O49   D    
C32   C33   A    
C62   H34   S    
C19   C41   S    
C50   O31   A    
C53   O39   A    
C81   C89   A    
C80   C88   A    
C68   O3    A    
C100  H42   S    
C18   H26   S    
C15   C90   A    
O5    Zn1   S    
C17   H25   S    
C30   C31   A    
C54   C64   S    
C5    C18   A    
O17   Zn15  S    
C56   C66   S    
C58   O48   A    
O9    Zn10  S    
C26   C74   A    
C83   H7    S    
C2    C86   A    
C34   C36   A    
C84   C93   A    
C32   C40   A    
O29   Zn16  S    
C24   O22   A    
C61   C62   S    
C45   O20   A    
O1    Zn5   S    
O44   Zn1   S    
O23   Zn10  S    
O41   Zn6   S    
C8    H16   S    
C43   O14   A    
O16   Zn14  S    
C1    C86   S    
C55   O46   A    
C48   O18   A    
O39   Zn4   S    
C76   H48   S    
O35   Zn15  S    
C74   C78   A    
C41   O16   A    
C29   C37   A    
C58   O43   A    
O24   Zn15  S    
O14   Zn12  S    
C73   C77   A    
O37   Zn2   S    
C44   O8    A    
C90   H9    S    
C65   H46   S    
C16   H24   S    
C76   C85   A    
C97   H39   S    
C32   H31   S    
C21   C43   S    
C27   C49   S    
C79   O4    A    
C47   O10   A    
