data_mof_unit_55493.cif
_audit_creation_date              2012-12-10T17:17:52-0500
_audit_creation_method            fapswitch 2.2
_symmetry_space_group_name_H-M    P1
_symmetry_Int_Tables_number       1
_space_group_crystal_system       triclinic
_cell_length_a                    13.892857
_cell_length_b                    16.891188
_cell_length_c                    9.781586
_cell_angle_alpha                 90.633558
_cell_angle_beta                  86.189042
_cell_angle_gamma                 89.83769
_cell_volume                      2290.1837266

loop_
_atom_site_label
_atom_site_type_symbol
_atom_type_description
_atom_site_fract_x
_atom_site_fract_y
_atom_site_fract_z
_atom_type_partial_charge
C1    C     C_R   0.379691 0.881908 0.501952 0.747375
C2    C     C_R   0.378340 0.117363 0.504388 0.762547
C3    C     C_R   0.878982 0.381909 0.503163 0.764679
C4    C     C_R   0.881605 0.619214 0.502242 0.741596
C5    C     C_R   0.263682 0.199276 0.388564 -0.170983
C6    C     C_R   0.235106 0.818911 0.409447 -0.134059
C7    C     C_R   0.746899 0.687763 0.399682 -0.116501
C8    C     C_R   0.763663 0.296566 0.386695 -0.105628
C9    C     C_R   0.674005 0.745286 0.401345 -0.067880
C10   C     C_R   0.691096 0.239881 0.383973 -0.082331
C11   C     C_R   0.190144 0.254197 0.384445 -0.057550
C12   C     C_R   0.164868 0.758989 0.407463 -0.088226
C13   C     C_R   0.663473 0.799765 0.508157 -0.127459
C14   C     C_R   0.654390 0.204586 0.504081 -0.140340
C15   C     C_R   0.154360 0.294266 0.501490 -0.130850
C16   C     C_R   0.156764 0.703884 0.512937 -0.141787
C17   C     C_R   0.677288 0.995975 0.128941 0.341056
C18   C     C_R   0.173847 0.495946 0.126887 0.354560
C19   C     C_R   0.751814 0.038017 0.067958 0.209730
C20   C     C_R   0.250801 0.539951 0.076280 0.196982
C21   C     C_R   0.777028 0.016067 0.932646 0.278930
C22   C     C_R   0.274699 0.528330 0.935883 0.185712
C23   C     C_R   0.697273 0.002272 0.844354 0.205731
C24   C     C_R   0.195703 0.512925 0.845132 0.262811
C25   C     C_R   0.592772 0.000770 0.913574 -0.037083
C26   C     C_R   0.091910 0.506161 0.913829 -0.031396
C27   C     C_R   0.588406 0.997744 0.065344 0.044892
C28   C     C_R   0.087066 0.504849 0.065033 0.064644
C29   C     C_R   0.418443 0.000078 0.083015 -0.032531
C30   C     C_R   0.918928 0.493911 0.082844 0.009026
C31   C     C_R   0.603233 0.127056 0.500335 0.900406
C32   C     C_R   0.605695 0.873745 0.500346 0.899971
C33   C     C_R   0.103760 0.627083 0.501766 0.895293
C34   C     C_R   0.104240 0.373002 0.498770 0.896665
C35   C     C_R   0.416726 0.998604 0.937721 0.466507
C36   C     C_R   0.917583 0.493402 0.937350 0.480006
C37   C     C_R   0.275581 0.188766 0.771706 -0.083679
C38   C     C_R   0.356353 0.761709 0.722257 -0.127664
C39   C     C_R   0.849031 0.733511 0.734113 -0.122192
C40   C     C_R   0.790887 0.304321 0.767852 -0.109918
C41   C     C_R   0.208987 0.202207 0.883576 -0.090938
C42   C     C_R   0.320818 0.739347 0.852288 -0.015102
C43   C     C_R   0.801709 0.744598 0.862491 0.004540
C44   C     C_R   0.731780 0.289145 0.885761 -0.064675
C45   C     C_R   0.702105 0.758556 0.871651 0.499334
C46   C     C_R   0.639823 0.258254 0.874899 0.468619
C47   C     C_R   0.118695 0.234804 0.862793 0.443703
C48   C     C_R   0.222873 0.721592 0.874829 0.377612
C49   C     C_R   0.659171 0.787375 0.758255 -0.254437
C50   C     C_R   0.613417 0.231167 0.748161 -0.224303
C51   C     C_R   0.101863 0.265851 0.736833 -0.175498
C52   C     C_R   0.168719 0.705397 0.763673 -0.215784
C53   C     C_R   0.708368 0.780650 0.628503 0.105525
C54   C     C_R   0.675569 0.240203 0.629629 0.055299
C55   C     C_R   0.170676 0.258417 0.626443 0.059570
C56   C     C_R   0.207431 0.720814 0.630262 0.087048
C57   C     C_R   0.252027 0.208250 0.637345 0.075815
C58   C     C_R   0.293124 0.765493 0.616457 0.069957
C59   C     C_R   0.794403 0.735932 0.618671 0.080303
C60   C     C_R   0.758608 0.288634 0.635812 0.095305
C61   C     C_R   0.301126 0.178712 0.513078 -0.098223
C62   C     C_R   0.305777 0.818318 0.506109 -0.118685
C63   C     C_R   0.811640 0.685278 0.504402 -0.125582
C64   C     C_R   0.802918 0.319156 0.510424 -0.116692
Cu1   Cu    Cu3+1 0.499990 0.000000 0.640660 1.066327
Cu2   Cu    Cu3+1 0.999990 0.500000 0.640660 1.068018
Cu3   Cu    Cu3+1 0.500010 0.000000 0.359340 1.066362
Cu4   Cu    Cu3+1 0.000010 0.500000 0.359340 1.096704
N1    N     N_R   0.501200 0.000000 0.147910 -0.211745
N2    N     N_R   0.001200 0.500000 0.147910 -0.202275
N3    N     N_R   0.501270 0.000000 0.852040 -0.233320
N4    N     N_R   0.001270 0.500000 0.852040 -0.239462
O1    O     O_R   0.409820 0.909830 0.618810 -0.542778
O2    O     O_R   0.409820 0.090170 0.618810 -0.567251
O3    O     O_R   0.909820 0.409830 0.618810 -0.567982
O4    O     O_R   0.909820 0.590170 0.618810 -0.548346
O5    O     O_R   0.409840 0.909830 0.381240 -0.577693
O6    O     O_R   0.409840 0.090170 0.381240 -0.618925
O7    O     O_R   0.909840 0.409830 0.381240 -0.579859
O8    O     O_R   0.909840 0.590170 0.381240 -0.591757
O9    O     O_R   0.590170 0.090170 0.618760 -0.547075
O10   O     O_R   0.590170 0.909830 0.618760 -0.567216
O11   O     O_R   0.090170 0.590170 0.618760 -0.580133
O12   O     O_R   0.090170 0.409830 0.618760 -0.535838
O13   O     O_R   0.590190 0.090180 0.381190 -0.534412
O14   O     O_R   0.590190 0.909820 0.381190 -0.469066
O15   O     O_R   0.090190 0.590180 0.381190 -0.497985
O16   O     O_R   0.090190 0.409820 0.381190 -0.489934
H1    H     H_    0.290777 0.172984 0.291979 0.182755
H2    H     H_    0.235355 0.865648 0.334769 0.218019
H3    H     H_    0.750907 0.643024 0.319639 0.208964
H4    H     H_    0.790724 0.321200 0.289923 0.210724
S1    S     S_3+6 0.903192 0.982615 0.893588 0.178769
O17   O     O_2   0.960987 0.978575 0.016884 -0.151992
O18   O     O_2   0.906441 0.899081 0.840066 -0.229084
O19   O     O_3   0.963895 0.039794 0.777892 -0.442905
H5    H     H_    0.029077 0.015843 0.765134 0.362491
S2    S     S_3+6 0.404775 0.515398 0.890080 0.150042
O20   O     O_2   0.462271 0.495554 0.009276 -0.167140
O21   O     O_2   0.429600 0.450024 0.788887 -0.207398
O22   O     O_3   0.444977 0.601342 0.823212 -0.475491
H6    H     H_    0.491990 0.586781 0.746294 0.390608
S3    S     S_3+6 0.756029 0.004512 0.667034 0.090446
O23   O     O_2   0.707202 0.001501 0.537302 -0.215605
O24   O     O_2   0.812052 0.080554 0.660668 -0.282290
O25   O     O_3   0.832557 0.928826 0.635736 -0.469062
H7    H     H_    0.881259 0.947868 0.565107 0.396118
S4    S     S_3+6 0.252438 0.494002 0.668815 0.100577
O26   O     O_2   0.207558 0.500091 0.535626 -0.242552
O27   O     O_2   0.335377 0.549444 0.643153 -0.270803
O28   O     O_3   0.292070 0.399810 0.670006 -0.473149
H8    H     H_    0.332256 0.392544 0.583155 0.388612
S5    S     S_3+6 0.298047 0.984932 0.881898 0.011134
O29   O     O_2   0.273261 0.899658 0.902043 -0.250218
O30   O     O_2   0.228598 0.032486 0.974302 -0.341557
O31   O     O_3   0.278221 0.007467 0.720047 -0.528194
H9    H     H_    0.211669 0.989398 0.706926 0.356480
S6    S     S_3+6 0.800098 0.505711 0.883104 0.001749
O32   O     O_2   0.730600 0.456623 0.970193 -0.308328
O33   O     O_2   0.780215 0.590044 0.917510 -0.323880
O34   O     O_3   0.777603 0.491777 0.718656 -0.508352
H10   H     H_    0.711821 0.513251 0.710489 0.376494
H11   H     H_    0.343072 0.162391 0.794289 0.205088
H12   H     H_    0.429565 0.782449 0.709039 0.141692
H13   H     H_    0.923220 0.713750 0.728153 0.151215
H14   H     H_    0.860940 0.327553 0.784685 0.201572
H15   H     H_    0.226649 0.183958 0.984488 0.176406
H16   H     H_    0.366278 0.747223 0.936612 0.215254
H17   H     H_    0.839013 0.728281 0.951699 0.187212
H18   H     H_    0.756170 0.305173 0.985072 0.218635
S7    S     S_3+6 0.629240 0.709552 0.996006 0.072997
O35   O     O_2   0.687296 0.696768 0.116939 -0.323043
O36   O     O_2   0.537937 0.754752 0.034380 -0.251545
O37   O     O_3   0.600471 0.620561 0.935633 -0.434781
H19   H     H_    0.600535 0.585369 0.015862 0.443384
S8    S     S_3+6 0.556487 0.254461 0.017877 0.001734
O38   O     O_2   0.571030 0.323606 0.112250 -0.234160
O39   O     O_2   0.455723 0.256131 0.971117 -0.318135
O40   O     O_3   0.572169 0.169935 0.101339 -0.589756
H20   H     H_    0.516501 0.167587 0.169831 0.379750
S9    S     S_3+6 0.020305 0.228010 0.983252 0.088621
O41   O     O_2   0.971240 0.307141 0.001762 -0.284587
O42   O     O_2   0.949537 0.171547 0.927259 -0.202382
O43   O     O_3   0.055450 0.196148 0.134234 -0.470186
H21   H     H_    0.089037 0.145208 0.113521 0.366386
S10   S     S_3+6 0.162986 0.746335 0.031820 0.009454
O44   O     O_2   0.081180 0.801989 0.008770 -0.191710
O45   O     O_2   0.123007 0.674641 0.103970 -0.364975
O46   O     O_3   0.242612 0.792663 0.125264 -0.518639
H22   H     H_    0.286066 0.750542 0.154407 0.381434
H23   H     H_    0.582982 0.800614 0.768139 0.161741
H24   H     H_    0.542136 0.206339 0.741461 0.178392
H25   H     H_    0.031318 0.290542 0.722328 0.148928
H26   H     H_    0.093102 0.691491 0.783068 0.167630
H27   H     H_    0.620388 0.743812 0.327226 0.237361
H28   H     H_    0.666333 0.220996 0.287220 0.248960
H29   H     H_    0.162224 0.263726 0.288907 0.258167
H30   H     H_    0.116253 0.756208 0.326043 0.236903
H31   H     H_    0.351490 0.998639 0.146148 0.176682
H32   H     H_    0.851938 0.491742 0.145855 0.165698
S11   S     S_3+6 0.724997 0.902834 0.171524 0.037075
O47   O     O_2   0.767271 0.908996 0.308722 -0.247883
O48   O     O_2   0.643896 0.845761 0.171147 -0.261195
O49   O     O_3   0.812362 0.866245 0.064512 -0.519915
H33   H     H_    0.850653 0.831089 0.120700 0.395390
S12   S     S_3+6 0.208445 0.396148 0.131152 0.012431
O50   O     O_2   0.266928 0.383314 0.252684 -0.276928
O51   O     O_2   0.117493 0.349357 0.139935 -0.252725
O52   O     O_3   0.273365 0.366031 0.988958 -0.516765
H34   H     H_    0.341041 0.367259 0.014130 0.432049
S13   S     S_3+6 0.818643 0.101147 0.172935 0.112460
O53   O     O_2   0.924592 0.086412 0.167341 -0.169245
O54   O     O_2   0.802242 0.184796 0.130402 -0.285414
O55   O     O_3   0.780717 0.089716 0.336797 -0.490815
H35   H     H_    0.830699 0.115154 0.389942 0.389894
S14   S     S_3+6 0.333699 0.576027 0.194728 0.102392
O56   O     O_2   0.387496 0.508668 0.254264 -0.166955
O57   O     O_2   0.404180 0.632629 0.126107 -0.241183
O58   O     O_3   0.276840 0.623782 0.325184 -0.523139
H36   H     H_    0.328433 0.638628 0.385781 0.378961

loop_
_geom_bond_atom_site_label_1
_geom_bond_atom_site_label_2
_ccdc_geom_bond_type
C58   C62   A    
Cu2   Cu4   S    
S13   O53   D    
Cu4   O8    S    
O22   H6    S    
C31   O13   A    
C26   N4    A    
O52   H34   S    
C41   H15   S    
C13   C32   S    
O28   H8    S    
Cu3   O5    S    
C14   C31   S    
S7    O37   S    
C3    O7    A    
C1    C62   S    
S11   O47   D    
C53   C59   A    
Cu1   O1    S    
C29   H31   S    
C54   C60   A    
C3    C64   S    
O31   H9    S    
C30   H32   S    
S13   O54   D    
C4    C63   S    
C50   C54   A    
C39   H13   S    
O49   H33   S    
C19   C21   A    
C24   C26   A    
C38   C42   A    
S9    O42   D    
S10   O45   D    
C6    C12   A    
O25   H7    S    
C52   H26   S    
C1    O5    A    
S4    O26   D    
C18   C20   A    
C9    C13   A    
O55   H35   S    
S11   O48   D    
Cu2   O11   S    
C37   H11   S    
C11   C15   A    
S14   O58   S    
C23   S3    S    
C12   C16   A    
C56   C58   A    
Cu1   Cu3   S    
C48   S10   S    
C34   O16   A    
C8    H4    S    
C36   S6    S    
C15   C34   S    
C29   N1    A    
C2    O2    A    
C2    C61   S    
C42   H16   S    
S5    O31   S    
Cu4   O7    S    
S14   O57   D    
C39   C59   A    
S1    O18   D    
C38   C58   A    
S6    O32   D    
S12   O51   D    
Cu3   O6    S    
C34   O12   A    
S8    O40   S    
C30   N2    A    
C44   C46   A    
C46   C50   A    
C13   C53   A    
C18   S12   S    
C37   C57   A    
S13   O55   S    
Cu2   N4    S    
Cu3   O13   S    
C49   H23   S    
C52   C56   A    
C17   C27   A    
C43   H17   S    
C18   C28   A    
S8    O39   D    
C10   C14   A    
S9    O43   S    
C10   H28   S    
C22   S2    S    
S8    O38   D    
C47   C51   A    
Cu1   N3    S    
Cu2   O12   S    
Cu1   O2    S    
Cu3   N1    S    
S6    O34   S    
C15   C55   A    
C16   C56   A    
C2    O6    A    
C16   C33   S    
S10   O46   S    
C43   C45   A    
Cu1   O9    S    
C45   C49   A    
C32   O14   A    
O19   H5    S    
C41   C47   A    
C5    C61   A    
S3    O24   D    
S1    O17   D    
C42   C48   A    
C25   N3    A    
C57   C61   A    
C33   O11   A    
C7    C63   A    
O34   H10   S    
S10   O44   D    
C17   S11   S    
C8    C64   A    
C24   S4    S    
C8    C10   A    
S14   O56   D    
C14   C54   A    
C20   C22   A    
C45   S7    S    
S1    O19   S    
S2    O21   D    
C21   C23   A    
S12   O50   D    
Cu4   O16   S    
C22   C24   A    
C40   C44   A    
S7    O35   D    
C38   H12   S    
C7    H3    S    
S3    O23   D    
S11   O49   S    
C3    O3    A    
C11   H29   S    
S5    O29   D    
C7    C9    A    
C29   C35   A    
C51   H25   S    
Cu3   O14   S    
C26   C28   A    
C4    O8    A    
C28   N2    A    
C19   S13   S    
O43   H21   S    
S7    O36   D    
C27   N1    A    
C39   C43   A    
O40   H20   S    
C5    C11   A    
O37   H19   S    
C25   C27   A    
S2    O22   S    
C32   O10   A    
C47   S9    S    
C59   C63   A    
C31   O9    A    
S4    O28   S    
C30   C36   A    
C60   C64   A    
C1    O1    A    
C6    C62   A    
C55   C57   A    
C33   O15   A    
C6    H2    S    
O46   H22   S    
Cu1   O10   S    
C20   S14   S    
C21   S1    S    
C49   C53   A    
Cu2   O3    S    
C17   C19   A    
S4    O27   D    
C35   S5    S    
S3    O25   S    
C51   C55   A    
C23   C25   A    
C37   C41   A    
S6    O33   D    
C4    O4    A    
C35   N3    A    
O58   H36   S    
C50   H24   S    
C46   S8    S    
C48   C52   A    
C9    H27   S    
S12   O52   S    
Cu4   N2    S    
S2    O20   D    
C40   C60   A    
Cu4   O15   S    
C40   H14   S    
C12   H30   S    
S9    O41   D    
C44   H18   S    
C5    H1    S    
Cu2   O4    S    
C36   N4    A    
S5    O30   D    
