data_mof_unit_10955.cif
_audit_creation_date              2012-12-10T17:56:20-0500
_audit_creation_method            fapswitch 2.2
_symmetry_space_group_name_H-M    P1
_symmetry_Int_Tables_number       1
_space_group_crystal_system       triclinic
_cell_length_a                    12.994167
_cell_length_b                    10.763931
_cell_length_c                    9.666889
_cell_angle_alpha                 89.624455
_cell_angle_beta                  95.944673
_cell_angle_gamma                 93.766727
_cell_volume                      1341.91530379

loop_
_atom_site_label
_atom_site_type_symbol
_atom_type_description
_atom_site_fract_x
_atom_site_fract_y
_atom_site_fract_z
_atom_type_partial_charge
C1    C     C_R   0.501056 0.262826 0.500311 0.836632
C2    C     C_R   0.498944 0.737174 0.499689 0.836632
C3    C     C_R   0.498061 0.871043 0.499615 -0.094811
C4    C     C_R   0.501939 0.128957 0.500385 -0.094811
C5    C     C_R   0.432920 0.420057 0.065461 0.209670
C6    C     C_R   0.567080 0.579943 0.934539 0.209669
C7    C     C_R   0.432829 0.420320 0.917461 0.203081
C8    C     C_R   0.567171 0.579680 0.082539 0.203081
C9    C     C_R   0.300851 0.500233 0.474004 0.830617
C10   C     C_R   0.699149 0.499767 0.525996 0.830617
C11   C     C_R   0.812039 0.499152 0.540830 -0.045995
C12   C     C_R   0.187960 0.500848 0.459170 -0.045994
C13   C     C_R   0.024400 0.498270 0.314028 -0.166548
C14   C     C_R   0.975600 0.501730 0.685971 -0.166548
C15   C     C_R   0.131987 0.499520 0.326872 -0.152977
C16   C     C_R   0.868012 0.500480 0.673128 -0.152976
C17   C     C_R   0.135473 0.502633 0.578597 -0.196209
C18   C     C_R   0.864526 0.497367 0.421403 -0.196209
C19   C     C_R   0.027982 0.501190 0.566653 0.159235
C20   C     C_R   0.972018 0.498809 0.433346 0.159235
C21   C     C_R   0.582413 0.069786 0.446950 0.162261
C22   C     C_R   0.417587 0.930213 0.553050 0.162261
C23   C     C_R   0.580077 0.940776 0.447671 -0.175813
C24   C     C_R   0.419923 0.059224 0.552329 -0.175814
Cu1   Cu    Cu3+1 0.500000 0.500020 0.640660 1.028052
Cu2   Cu    Cu3+1 0.500000 0.499980 0.359340 1.028052
H1    H     H_    0.822062 0.494685 0.318772 0.181453
H2    H     H_    0.177938 0.505315 0.681228 0.181454
H3    H     H_    0.828892 0.500624 0.766688 0.181227
H4    H     H_    0.171108 0.499376 0.233312 0.181227
H5    H     H_    0.982282 0.496917 0.211165 0.153537
H6    H     H_    0.017718 0.503082 0.788835 0.153537
H7    H     H_    0.643641 0.895135 0.410872 0.188180
H8    H     H_    0.356359 0.104865 0.589127 0.188180
N1    N     N_R   0.500030 0.500030 0.852080 -0.224522
N2    N     N_R   0.499970 0.499970 0.147920 -0.224522
O1    O     O_R   0.499990 0.319660 0.618740 -0.557787
O2    O     O_R   0.500010 0.680340 0.381260 -0.557787
O3    O     O_R   0.499990 0.319630 0.381170 -0.540806
O4    O     O_R   0.500010 0.680370 0.618830 -0.540806
O5    O     O_R   0.349000 0.499990 0.599490 -0.562979
O6    O     O_R   0.651000 0.500010 0.400510 -0.562979
O7    O     O_R   0.348990 0.499960 0.361920 -0.572487
O8    O     O_R   0.651010 0.500040 0.638080 -0.572487
I1    I     I_    0.711518 0.168344 0.369906 -0.297727
I2    I     I_    0.288482 0.831656 0.630094 -0.297727
I3    I     I_    0.326100 0.290227 0.156081 -0.257508
I4    I     I_    0.673900 0.709773 0.843919 -0.257508
I5    I     I_    0.324424 0.292488 0.800494 -0.287778
I6    I     I_    0.675576 0.707511 0.199506 -0.287778

loop_
_geom_bond_atom_site_label_1
_geom_bond_atom_site_label_2
_ccdc_geom_bond_type
C12   C17   A    
C11   C18   A    
C8    I6    S    
C9    O5    A    
C10   O6    A    
C11   C16   A    
C2    O2    A    
C21   I1    S    
C19   C20   A    
C12   C15   A    
C1    O1    A    
C1    C4    S    
Cu1   O1    S    
C22   C24   A    
C21   C23   A    
C2    C3    S    
C16   H3    S    
C4    C21   A    
C5    I3    S    
C7    I5    S    
C6    I4    S    
Cu1   N1    S    
Cu1   O8    S    
Cu2   N2    S    
C17   C19   A    
Cu2   O7    S    
C18   C20   A    
C13   C15   A    
Cu1   O4    S    
C4    C24   A    
C9    C12   S    
C14   C16   A    
Cu2   O3    S    
C9    O7    A    
C10   C11   S    
C1    O3    A    
C10   O8    A    
C5    N2    A    
C2    O4    A    
C6    N1    A    
Cu2   O6    S    
C15   H4    S    
C8    N2    A    
Cu1   O5    S    
C5    C7    A    
C3    C23   A    
Cu2   O2    S    
C3    C22   A    
C6    C8    A    
C13   C20   A    
C22   I2    S    
Cu1   Cu2   S    
C17   H2    S    
C7    N1    A    
C14   C19   A    
C13   H5    S    
C24   H8    S    
C18   H1    S    
C14   H6    S    
C23   H7    S    
