data_mof_unit_27187.cif
_audit_creation_date              2012-12-10T20:30:15-0500
_audit_creation_method            fapswitch 2.2
_symmetry_space_group_name_H-M    P1
_symmetry_Int_Tables_number       1
_space_group_crystal_system       triclinic
_cell_length_a                    9.901572
_cell_length_b                    10.588018
_cell_length_c                    13.097679
_cell_angle_alpha                 90.185264
_cell_angle_beta                  69.489379
_cell_angle_gamma                 90.009693
_cell_volume                      1286.08057994

loop_
_atom_site_label
_atom_site_type_symbol
_atom_type_description
_atom_site_fract_x
_atom_site_fract_y
_atom_site_fract_z
_atom_type_partial_charge
C1    C     C_R   0.500255 0.739456 0.499718 0.879728
C2    C     C_R   0.431365 0.490447 0.986154 0.093965
C3    C     C_R   0.452454 0.450130 0.879171 0.068647
C4    C     C_R   0.539459 0.463593 0.030325 0.103833
C5    C     C_R   0.653158 0.378767 0.976348 0.172817
C6    C     C_R   0.660763 0.325234 0.877231 -0.238050
C7    C     C_R   0.561878 0.360396 0.829056 -0.168215
C8    C     C_R   0.537899 0.520102 0.126761 -0.246053
C9    C     C_R   0.741731 0.394360 0.126580 -0.215857
C10   C     C_R   0.365625 0.502690 0.824195 -0.183483
C11   C     C_R   0.534679 0.935300 0.402109 0.102731
C12   C     C_R   0.419080 0.499315 0.704772 0.852659
C13   C     C_R   0.502501 0.871302 0.500123 -0.080178
C14   C     C_R   0.493152 0.934901 0.596032 -0.190566
C15   C     C_R   0.493594 0.065624 0.596150 -0.222762
C16   C     C_R   0.502470 0.128773 0.500504 -0.073991
C17   C     C_R   0.534159 0.064400 0.402433 0.109138
C18   C     C_3   0.464088 0.071556 0.318551 -0.480066
C19   C     C_3   0.465310 0.928069 0.317699 -0.502404
C20   C     C_R   0.941639 0.606039 0.473386 0.146724
C21   C     C_R   0.918418 0.392537 0.521222 -0.104449
C22   C     C_R   0.061876 0.392583 0.521462 -0.127926
C23   C     C_R   0.500111 0.260569 0.500185 0.868963
C24   C     C_R   0.084479 0.605490 0.471707 0.165946
C25   C     C_3   0.067690 0.731731 0.525290 -0.522853
C26   C     C_3   0.912688 0.732333 0.528767 -0.017715
C27   C     C_R   0.580533 0.498529 0.295665 0.863209
C28   C     C_R   0.755343 0.346575 0.024015 -0.225632
C29   C     C_R   0.629622 0.478479 0.178870 -0.059208
C30   C     C_R   0.240248 0.572872 0.883726 0.208883
C31   C     C_R   0.206928 0.592115 0.995016 -0.154911
C32   C     C_R   0.302403 0.554823 0.045353 -0.258022
H1    H     H_    0.812780 0.360354 0.167294 0.158776
H2    H     H_    0.480435 0.116859 0.670807 0.137030
H3    H     H_    0.353791 0.112760 0.350993 0.211880
H4    H     H_    0.536575 0.113592 0.241031 0.207322
H5    H     H_    0.355913 0.885704 0.348802 0.205015
H6    H     H_    0.538863 0.887157 0.239786 0.203030
H7    H     H_    0.856197 0.306307 0.539927 0.147733
H8    H     H_    0.106579 0.306393 0.540374 0.148800
H9    H     H_    0.079571 0.727559 0.606522 0.231794
H10   H     H_    0.135070 0.804667 0.469970 0.177161
H11   H     H_    0.744413 0.257560 0.836076 0.148252
H12   H     H_    0.892132 0.806268 0.475905 0.143496
H13   H     H_    0.841528 0.280578 0.984236 0.146047
H14   H     H_    0.460270 0.592330 0.166896 0.140761
H15   H     H_    0.271066 0.575256 0.131313 0.146023
H16   H     H_    0.110035 0.643170 0.041774 0.156333
H17   H     H_    0.571134 0.315402 0.752618 0.152228
H18   H     H_    0.479226 0.883994 0.670688 0.165421
N1    N     N_R   0.856940 0.500860 0.500710 -0.087273
N2    N     N_R   0.142580 0.500820 0.500710 -0.091387
O1    O     O_R   0.385310 0.683210 0.499990 -0.623271
O2    O     O_R   0.614650 0.683240 0.500000 -0.595184
O3    O     O_R   0.328390 0.499940 0.653610 -0.612642
O4    O     O_R   0.557730 0.499980 0.653620 -0.570552
O5    O     O_R   0.385350 0.316760 0.500000 -0.621315
O6    O     O_R   0.614690 0.316790 0.500010 -0.630488
O7    O     O_R   0.442270 0.500020 0.346380 -0.605786
O8    O     O_R   0.671610 0.500060 0.346390 -0.616354
Zn1   Zn    Zn3+2 0.346870 0.499980 0.499990 0.933821
Zn2   Zn    Zn3+2 0.653130 0.500020 0.500010 0.961215
I1    I     I_    0.760819 0.730997 0.692945 -0.396396
N3    N     N_2   0.150234 0.631563 0.833621 -0.314437
H19   H     H_    0.201699 0.673960 0.759439 0.238842
C33   C     C_3   0.023295 0.559864 0.840134 -0.712464
H20   H     H_    0.957024 0.614709 0.803216 0.260308
H21   H     H_    0.957157 0.541458 0.926643 0.247998
H22   H     H_    0.054161 0.468816 0.795587 0.243360

loop_
_geom_bond_atom_site_label_1
_geom_bond_atom_site_label_2
_ccdc_geom_bond_type
C25   H10   S    
O6    Zn2   S    
C23   O6    A    
C2    C4    A    
C26   I1    S    
C24   N2    A    
C6    C7    A    
C19   H6    S    
C30   N3    S    
C27   C29   S    
C5    C28   A    
C19   H5    S    
C18   H3    S    
C10   C30   A    
C15   H2    S    
C33   H21   S    
C31   C32   A    
C21   H7    S    
C9    C29   A    
C30   C31   A    
C1    O2    A    
C22   H8    S    
N3    H19   S    
C17   C18   S    
C26   H12   S    
C3    C10   A    
C27   O7    A    
C21   C22   A    
C24   C25   S    
O8    Zn2   S    
O5    Zn1   S    
C11   C13   A    
C31   H16   S    
C14   H18   S    
N1    Zn2   S    
C10   C12   S    
C9    H1    S    
C8    C29   A    
O3    Zn1   S    
C22   N2    A    
C12   O4    A    
C2    C3    A    
C20   N1    A    
C3    C7    A    
N2    Zn1   S    
C27   O8    A    
C5    C6    A    
C32   H15   S    
O4    Zn2   S    
C28   H13   S    
O7    Zn1   S    
C33   H22   S    
C1    C13   S    
O1    Zn1   S    
C15   C16   A    
C12   O3    A    
C16   C17   A    
C21   N1    A    
C33   H20   S    
C16   C23   S    
C7    H17   S    
C2    C32   A    
C18   C19   S    
C25   H9    S    
C4    C8    A    
C23   O5    A    
C1    O1    A    
C14   C15   A    
C11   C19   S    
C6    H11   S    
O2    Zn2   S    
C8    H14   S    
C25   C26   S    
C13   C14   A    
C18   H4    S    
C11   C17   A    
C20   C24   A    
C9    C28   A    
C4    C5    A    
C20   C26   S    
N3    C33   S    
