data_mof_unit_65683.cif
_audit_creation_date              2012-12-10T20:59:05-0500
_audit_creation_method            fapswitch 2.2
_symmetry_space_group_name_H-M    P1
_symmetry_Int_Tables_number       1
_space_group_crystal_system       triclinic
_cell_length_a                    13.648155
_cell_length_b                    15.099067
_cell_length_c                    15.859944
_cell_angle_alpha                 89.99215
_cell_angle_beta                  89.977019
_cell_angle_gamma                 83.101634
_cell_volume                      3244.66808753

loop_
_atom_site_label
_atom_site_type_symbol
_atom_type_description
_atom_site_fract_x
_atom_site_fract_y
_atom_site_fract_z
_atom_type_partial_charge
C1    C     C_R   0.499989 0.500004 0.661065 0.905239
C2    C     C_R   0.502802 0.952334 0.576258 0.107752
C3    C     C_1   0.499970 0.193004 0.499981 0.047491
C4    C     C_1   0.500037 0.806998 0.499898 0.101708
C5    C     C_R   0.686212 0.484235 0.499968 0.896372
C6    C     C_R   0.313788 0.515765 0.500030 0.899293
C7    C     C_1   0.210195 0.527827 0.500047 -0.177268
C8    C     C_1   0.789804 0.472171 0.499943 -0.179787
C9    C     C_2   0.018874 0.538441 0.500056 -0.158813
C10   C     C_2   0.981125 0.461554 0.499919 -0.159596
C11   C     C_1   0.877436 0.464241 0.499926 0.009824
C12   C     C_R   0.500047 0.499991 0.338935 0.904792
C13   C     C_1   0.122563 0.535755 0.500056 0.011584
C14   C     C_R   0.503468 0.419631 0.044726 -0.263469
C15   C     C_R   0.506053 0.579245 0.955271 -0.262707
C16   C     C_R   0.504588 0.500581 0.086958 0.121671
C17   C     C_R   0.504507 0.498346 0.913040 0.121197
C18   C     C_R   0.506402 0.581059 0.043118 0.121193
C19   C     C_R   0.503713 0.417744 0.956879 0.121619
C20   C     C_1   0.502829 0.500165 0.175858 -0.032239
C21   C     C_1   0.502744 0.499190 0.824141 -0.031150
C22   C     C_1   0.501283 0.499745 0.749375 -0.178490
C23   C     C_1   0.501360 0.499957 0.250625 -0.181385
C24   C     C_R   0.502785 0.046514 0.576543 0.050797
C25   C     C_R   0.497238 0.953438 0.423093 0.081174
C26   C     C_R   0.499982 0.094969 0.499910 -0.075804
C27   C     C_R   0.500031 0.905009 0.499712 -0.062141
C28   C     C_R   0.497209 0.047307 0.423188 0.111398
H1    H     H_    0.502194 0.358382 0.080221 0.149308
H2    H     H_    0.569371 0.915911 0.686931 0.200173
H3    H     H_    0.556709 0.127041 0.339715 0.186131
H4    H     H_    0.431703 0.140582 0.343079 0.187371
H5    H     H_    0.443225 0.139078 0.660089 0.197600
H6    H     H_    0.568251 0.125533 0.656729 0.194166
H7    H     H_    0.431799 0.874509 0.342845 0.188633
H8    H     H_    0.556796 0.860969 0.339499 0.185738
H9    H     H_    0.506765 0.640562 0.919777 0.150117
H10   H     H_    0.027262 0.397615 0.499808 0.160789
H11   H     H_    0.972737 0.602381 0.500168 0.160955
H12   H     H_    0.569815 0.321049 0.881305 0.184424
H13   H     H_    0.496389 0.282789 0.954104 0.181708
H14   H     H_    0.575431 0.661309 0.118622 0.184896
H15   H     H_    0.503505 0.717257 0.045899 0.182022
H16   H     H_    0.444442 0.929450 0.690299 0.201266
N1    N     N_1   0.500030 0.729450 0.499980 -0.089052
N2    N     N_1   0.499970 0.270550 0.500020 -0.088104
N3    N     N_3   0.501906 0.335229 0.911956 -0.446806
N4    N     N_3   0.507313 0.663683 0.088042 -0.445740
N5    N     N_3   0.505659 0.904128 0.654299 -0.448578
N6    N     N_3   0.494311 0.093313 0.343950 -0.425508
N7    N     N_3   0.505655 0.091848 0.655811 -0.469990
N8    N     N_3   0.494380 0.908219 0.343782 -0.424768
O1    O     O_R   0.500000 0.426350 0.621980 -0.608211
O2    O     O_R   0.500000 0.573650 0.378020 -0.609478
O3    O     O_R   0.499960 0.573690 0.621980 -0.604935
O4    O     O_R   0.500040 0.426310 0.378020 -0.611785
O5    O     O_R   0.640370 0.415730 0.499980 -0.608483
O6    O     O_R   0.359630 0.584270 0.500020 -0.607019
O7    O     O_R   0.640330 0.563060 0.499980 -0.606152
O8    O     O_R   0.359670 0.436940 0.500020 -0.605665
Zn1   Zn    Zn3+2 0.500030 0.401620 0.500000 0.973250
Zn2   Zn    Zn3+2 0.499970 0.598380 0.500000 0.981475

loop_
_geom_bond_atom_site_label_1
_geom_bond_atom_site_label_2
_ccdc_geom_bond_type
H16   N5    S    
O6    Zn2   S    
H12   N3    S    
C18   N4    S    
O5    Zn1   S    
C6    C7    S    
C2    N5    S    
H5    N7    S    
H15   N4    S    
C6    O6    A    
C15   C18   A    
C26   C28   A    
H8    N8    S    
C20   C23   T    
C5    O5    A    
C10   H10   S    
C2    C27   A    
C24   N7    S    
C7    C13   T    
C1    O3    A    
C25   N8    S    
C1    C22   S    
H14   N4    S    
C21   C22   T    
C25   C28   A    
C12   C23   S    
H4    N6    S    
H6    N7    S    
C12   O4    A    
O1    Zn1   S    
O8    Zn1   S    
C8    C11   T    
C16   C20   S    
C17   C19   A    
H2    N5    S    
C3    N2    T    
C19   N3    S    
C4    N1    T    
C2    C24   A    
N2    Zn1   S    
C14   C16   A    
C5    C8    S    
C25   C27   A    
C10   C11   S    
C5    O7    A    
H3    N6    S    
O3    Zn2   S    
C6    O8    A    
H13   N3    S    
C9    H11   S    
C4    C27   S    
C16   C18   A    
C9    C10   D    
H7    N8    S    
C15   C17   A    
C1    O1    A    
O4    Zn1   S    
C15   H9    S    
O7    Zn2   S    
C9    C13   S    
O2    Zn2   S    
C28   N6    S    
C14   C19   A    
C3    C26   S    
C12   O2    A    
C24   C26   A    
C14   H1    S    
N1    Zn2   S    
C17   C21   S    
