data_mof_unit_53382.cif
_audit_creation_date              2012-12-10T18:13:54-0500
_audit_creation_method            fapswitch 2.2
_symmetry_space_group_name_H-M    P1
_symmetry_Int_Tables_number       1
_space_group_crystal_system       triclinic
_cell_length_a                    10.729124
_cell_length_b                    9.481248
_cell_length_c                    23.47566
_cell_angle_alpha                 89.868684
_cell_angle_beta                  91.149124
_cell_angle_gamma                 90.083841
_cell_volume                      2387.58396353

loop_
_atom_site_label
_atom_site_type_symbol
_atom_type_description
_atom_site_fract_x
_atom_site_fract_y
_atom_site_fract_z
_atom_type_partial_charge
C1    C     C_R   0.260072 0.499929 0.501903 0.890673
C2    C     C_R   0.288919 0.373942 0.969580 -0.154029
C3    C     C_R   0.290881 0.371473 0.029022 -0.153261
C4    C     C_R   0.392804 0.427645 0.059940 -0.014738
C5    C     C_R   0.493862 0.485819 0.030519 -0.016125
C6    C     C_R   0.596414 0.542583 0.061080 -0.015641
C7    C     C_R   0.697080 0.599636 0.031313 -0.155605
C8    C     C_R   0.695750 0.600779 0.971881 -0.153593
C9    C     C_R   0.396318 0.427507 0.119722 0.537913
C10   C     C_R   0.595096 0.541758 0.120821 0.539479
C11   C     C_R   0.587148 0.412972 0.241481 -0.086699
C12   C     C_R   0.499330 0.499726 0.391316 0.809692
C13   C     C_R   0.588348 0.417595 0.300855 -0.204865
C14   C     C_R   0.498919 0.497240 0.329205 -0.016770
C15   C     C_R   0.405851 0.568152 0.297958 -0.227301
C16   C     C_R   0.405036 0.564379 0.238596 -0.097143
C17   C     C_R   0.496034 0.487280 0.210042 0.339226
C18   C     C_R   0.465704 0.626951 0.760896 0.014233
C19   C     C_R   0.472268 0.625532 0.701197 -0.201585
C20   C     C_R   0.494759 0.499741 0.671653 -0.047410
C21   C     C_R   0.511126 0.373812 0.702252 -0.162301
C22   C     C_R   0.506786 0.373868 0.761415 -0.087161
C23   C     C_R   0.739739 0.500038 0.502507 0.784787
C24   C     C_R   0.484848 0.499083 0.791093 0.275536
C25   C     C_3   0.072482 0.633076 0.536088 0.257765
C26   C     C_3   0.071741 0.360835 0.531888 0.252403
C27   C     C_3   0.928933 0.628535 0.538328 -0.389895
C28   C     C_3   0.928344 0.364122 0.533566 -0.392422
C29   C     C_3   0.068673 0.506644 0.442407 -0.534045
C30   C     C_3   0.121996 0.499885 0.504364 -0.011537
C31   C     C_3   0.877707 0.500007 0.504169 0.034930
C32   C     C_3   0.925081 0.506962 0.442407 -0.406595
C33   C     C_3   0.511615 0.083308 0.559982 -0.221762
C34   C     C_3   0.507374 0.916103 0.560079 -0.220946
C35   C     C_3   0.381315 0.083566 0.476321 -0.089033
C36   C     C_3   0.383499 0.915998 0.474313 -0.082189
C37   C     C_3   0.606790 0.083156 0.469509 -0.182748
C38   C     C_3   0.609924 0.917048 0.471760 -0.179172
C39   C     C_R   0.498927 0.499876 0.609018 0.859003
C40   C     C_R   0.589402 0.546963 0.881240 0.574845
C41   C     C_R   0.388640 0.437133 0.880082 0.600576
C42   C     C_R   0.389040 0.432164 0.939817 -0.023247
C43   C     C_R   0.492160 0.487734 0.970390 -0.012163
C44   C     C_R   0.593464 0.545517 0.940985 -0.011558
Cu1   Cu    Cu3+1 0.499860 0.642410 0.500030 0.948951
Cu2   Cu    Cu3+1 0.499860 0.357590 0.500030 0.949588
H1    H     H_    0.208660 0.330361 0.947074 0.194540
H2    H     H_    0.457353 0.722509 0.677555 0.187410
H3    H     H_    0.528534 0.275311 0.680557 0.159406
H4    H     H_    0.521710 0.276168 0.784543 0.163743
H5    H     H_    0.098673 0.728676 0.511378 0.131403
H6    H     H_    0.098383 0.270193 0.504727 0.148954
H7    H     H_    0.897365 0.621790 0.583124 0.212381
H8    H     H_    0.895633 0.359624 0.578227 0.210906
H9    H     H_    0.891396 0.728779 0.520219 0.152403
H10   H     H_    0.891435 0.268544 0.511517 0.152328
H11   H     H_    0.101759 0.603094 0.420500 0.235725
H12   H     H_    0.101381 0.415610 0.417158 0.237181
H13   H     H_    0.889765 0.604265 0.420944 0.189703
H14   H     H_    0.889052 0.415113 0.417575 0.184336
H15   H     H_    0.435093 0.123484 0.586776 0.189535
H16   H     H_    0.425810 0.880220 0.584851 0.183132
H17   H     H_    0.212056 0.326046 0.050624 0.192031
H18   H     H_    0.600152 0.119598 0.580719 0.156066
H19   H     H_    0.591488 0.874990 0.583078 0.163527
H20   H     H_    0.305487 0.110598 0.506294 0.126145
H21   H     H_    0.303924 0.881262 0.500808 0.122619
H22   H     H_    0.605794 0.119855 0.424738 0.206435
H23   H     H_    0.619214 0.872403 0.428581 0.205048
H24   H     H_    0.696129 0.122817 0.488087 0.138147
H25   H     H_    0.697158 0.884656 0.494590 0.134792
H26   H     H_    0.777130 0.643729 0.053808 0.192873
H27   H     H_    0.774779 0.645735 0.950273 0.196004
H28   H     H_    0.656920 0.351803 0.219851 0.154374
H29   H     H_    0.659343 0.360023 0.324700 0.147263
H30   H     H_    0.332343 0.623328 0.319489 0.170944
H31   H     H_    0.333526 0.620933 0.214738 0.156876
N1    N     N_R   0.487368 0.494952 0.852202 -0.453640
N2    N     N_R   0.496023 0.484880 0.148872 -0.468297
N3    N     N_3   0.500250 0.143650 0.501250 -0.169457
N4    N     N_3   0.500250 0.856350 0.501250 -0.171246
O1    O     O_R   0.317570 0.620260 0.500030 -0.580403
O2    O     O_R   0.317570 0.379740 0.500030 -0.575075
O3    O     O_R   0.499840 0.620290 0.417900 -0.567487
O4    O     O_R   0.499840 0.379710 0.417900 -0.569478
O5    O     O_R   0.682190 0.620260 0.500010 -0.602038
O6    O     O_R   0.682190 0.379740 0.500010 -0.604749
O7    O     O_R   0.499920 0.620230 0.582140 -0.592422
O8    O     O_R   0.499920 0.379770 0.582140 -0.588549
O9    O     O_2   0.686245 0.600194 0.852300 -0.523163
O10   O     O_2   0.290160 0.385792 0.850042 -0.497450
O11   O     O_2   0.301248 0.369811 0.148525 -0.532582
O12   O     O_2   0.691317 0.598914 0.150664 -0.531801
Cl1   Cl    Cl    0.140286 0.659059 0.605831 -0.551628
Cl2   Cl    Cl    0.137724 0.322280 0.601079 -0.544253
C45   C     C_2   0.338863 0.150538 0.419940 0.905795
O13   O     O_2   0.233161 0.197503 0.415322 -0.654642
O14   O     O_R   0.414684 0.149796 0.372182 -0.733676
H32   H     H_    0.372767 0.193924 0.337398 0.342565
C46   C     C_2   0.354378 0.857582 0.415133 0.900276
O15   O     O_2   0.253828 0.800865 0.405572 -0.655748
O16   O     O_R   0.437369 0.876714 0.370590 -0.739515
H33   H     H_    0.400056 0.851118 0.332044 0.335319
C47   C     C_2   0.437161 0.761893 0.790269 0.904418
O17   O     O_2   0.451455 0.874294 0.765514 -0.591152
O18   O     O_R   0.391683 0.761565 0.845675 -0.749885
H34   H     H_    0.375853 0.860050 0.860599 0.345672

loop_
_geom_bond_atom_site_label_1
_geom_bond_atom_site_label_2
_ccdc_geom_bond_type
C41   C42   A    
Cu1   O1    S    
C34   H16   S    
C47   O18   S    
C28   H10   S    
C36   H21   S    
C7    C8    A    
Cu2   O8    S    
C35   C45   S    
C29   C30   S    
C12   O4    A    
C18   C24   A    
C18   C19   A    
C29   C32   S    
C5    C6    A    
C27   H9    S    
O18   H34   S    
C15   C16   A    
C37   H22   S    
C35   N3    S    
C17   N2    S    
C12   O3    A    
C16   H31   S    
C9    N2    A    
C8    H27   S    
C13   H29   S    
C16   C17   A    
C23   O5    A    
C45   O14   S    
C34   N4    S    
C13   C14   A    
C22   H4    S    
Cu2   O4    S    
C15   H30   S    
C5    C43   A    
C38   H23   S    
C25   Cl1   S    
C23   O6    A    
C21   C22   A    
C39   O7    A    
C26   Cl2   S    
C9    O11   S    
C21   H3    S    
C47   O17   D    
C37   N3    S    
C27   C31   S    
Cu1   O7    S    
C7    H26   S    
C20   C39   S    
C28   H8    S    
C19   H2    S    
C10   O12   S    
C1    O1    A    
Cu1   Cu2   S    
C35   C36   S    
C23   C31   S    
C43   C44   A    
C25   H5    S    
C37   C38   S    
C26   H6    S    
C31   C32   S    
C36   N4    S    
C45   O13   D    
C46   O16   S    
C33   C34   S    
C36   C46   S    
C18   C47   S    
C20   C21   A    
C24   N1    S    
C41   O10   S    
C29   H11   S    
C26   C30   S    
C38   N4    S    
C34   H19   S    
C22   C24   A    
Cu1   O3    S    
C1    O2    A    
C42   C43   A    
C32   H14   S    
C3    C4    A    
C41   N1    A    
Cu2   O6    S    
C25   C30   S    
C38   H25   S    
C11   C17   A    
C28   C31   S    
Cu1   N4    S    
C8    C44   A    
C12   C14   S    
C4    C5    A    
C11   H28   S    
C6    C10   A    
C10   N2    A    
C27   H7    S    
C33   N3    S    
C6    C7    A    
C3    H17   S    
C2    H1    S    
C25   C27   S    
C26   C28   S    
C35   H20   S    
C19   C20   A    
C2    C3    A    
Cu2   N3    S    
C11   C13   A    
C2    C42   A    
C33   H18   S    
C1    C30   S    
Cu1   O5    S    
C40   N1    A    
O16   H33   S    
Cu2   O2    S    
C40   C44   A    
C29   H12   S    
C33   H15   S    
O14   H32   S    
C14   C15   A    
C46   O15   D    
C32   H13   S    
C40   O9    S    
C4    C9    A    
C37   H24   S    
C39   O8    A    
