data_mof_unit_20775.cif
_audit_creation_date              2013-03-05T16:43:03-0500
_audit_creation_method            fapswitch 2.2
_symmetry_space_group_name_H-M    P1
_symmetry_Int_Tables_number       1
_space_group_crystal_system       triclinic
_cell_length_a                    10.697114
_cell_length_b                    10.702129
_cell_length_c                    9.859616
_cell_angle_alpha                 90.057632
_cell_angle_beta                  88.641979
_cell_angle_gamma                 91.121668
_cell_volume                      1128.21407824

loop_
_atom_site_label
_atom_site_type_symbol
_atom_site_description
_atom_site_fract_x
_atom_site_fract_y
_atom_site_fract_z
_atom_type_partial_charge
O1    O     O_R   0.500020 0.316790 0.614690 -0.610629
O2    O     O_R   0.500000 0.316760 0.385350 -0.638924
C1    C     C_R   0.498483 0.259846 0.499961 0.902030
O3    O     O_R   0.314800 0.500000 0.614670 -0.566692
O4    O     O_R   0.314790 0.499960 0.385330 -0.637573
C2    C     C_R   0.257371 0.495194 0.501192 0.932230
Zn1   Zn    Zn3+2 0.500010 0.500020 0.653130 0.991738
Zn2   Zn    Zn3+2 0.499990 0.499980 0.346870 0.973017
O5    O     O_R   0.500000 0.683240 0.614650 -0.623706
O6    O     O_R   0.499980 0.683210 0.385310 -0.627098
O7    O     O_R   0.685210 0.500040 0.614670 -0.641489
O8    O     O_R   0.685200 0.500000 0.385330 -0.580577
C3    C     C_R   0.496009 0.739907 0.500246 0.940088
C4    C     C_R   0.742065 0.498796 0.498016 0.921109
C5    C     C_3   0.061928 0.391762 0.606160 0.569075
C6    C     C_3   0.917519 0.390922 0.591905 -0.641139
H1    H     H_    0.879686 0.299345 0.556657 0.215563
H2    H     H_    0.871713 0.403850 0.693439 0.222318
H3    H     H_    0.118415 0.672721 0.617893 0.217929
H4    H     H_    0.910180 0.628565 0.658186 0.138323
C7    C     C_3   0.074583 0.626995 0.529532 -0.453146
C8    C     C_3   0.074853 0.458319 0.356220 -0.487202
C9    C     C_3   0.120303 0.492289 0.502050 -0.139147
H5    H     H_    0.114974 0.525936 0.280246 0.230392
H6    H     H_    0.108611 0.365261 0.323657 0.193821
C10   C     C_3   0.878049 0.496096 0.494229 -0.120405
C11   C     C_3   0.931701 0.623954 0.547060 0.183849
C12   C     C_3   0.931678 0.460770 0.350334 0.378834
H7    H     H_    0.896018 0.364266 0.326781 0.081665
H8    H     H_    0.104441 0.687768 0.442658 0.221658
C13   C     C_R   0.477058 0.063638 0.622970 0.201736
C14   C     C_R   0.482310 0.127874 0.500288 -0.068493
C15   C     C_R   0.463706 0.063405 0.378366 -0.178010
H9    H     H_    0.460014 0.111463 0.282224 0.159785
C16   C     C_R   0.460840 0.934369 0.378782 -0.188546
H10   H     H_    0.455042 0.885477 0.282786 0.168681
C17   C     C_R   0.477047 0.870889 0.501234 -0.089411
C18   C     C_R   0.472556 0.936020 0.623807 0.142754
C19   C     C_3   0.554445 0.929012 0.744370 -0.471328
C20   C     C_3   0.562933 0.070306 0.740387 -0.483832
H11   H     H_    0.502249 0.893006 0.835489 0.197878
H12   H     H_    0.645071 0.883736 0.723003 0.258818
H13   H     H_    0.520224 0.114134 0.831713 0.201316
H14   H     H_    0.657802 0.107117 0.711298 0.222681
C21   C     C_R   0.469405 0.393690 0.072300 0.190309
N1    N     N_R   0.499150 0.499140 0.142800 -0.106125
C22   C     C_R   0.541666 0.601303 0.070957 -0.120269
H15   H     H_    0.573669 0.683799 0.124303 0.161636
C23   C     C_R   0.542294 0.601031 0.927032 -0.121400
H16   H     H_    0.575808 0.682712 0.872191 0.148499
N2    N     N_R   0.499150 0.499180 0.857150 -0.097938
C24   C     C_R   0.469766 0.393545 0.929457 0.156664
C25   C     C_3   0.347046 0.325981 0.928430 -0.380492
C26   C     C_3   0.347181 0.325179 0.081796 -0.494143
H17   H     H_    0.274894 0.386091 0.887883 0.291818
H18   H     H_    0.351628 0.231545 0.882583 0.216423
H19   H     H_    0.271794 0.381993 0.128767 0.225342
H20   H     H_    0.355546 0.229982 0.124525 0.199899
N3    N     N_R   0.086131 0.418785 0.750430 0.181931
O9    O     O_R   0.118908 0.529382 0.792963 -0.469320
O10   O     O_R   0.051887 0.335456 0.840882 -0.415621
O11   O     O_3   0.895639 0.547639 0.250501 -0.544226
C27   C     C_3   0.886056 0.489672 0.122144 0.111733
H21   H     H_    0.798578 0.431832 0.119260 0.142956
H22   H     H_    0.967761 0.429705 0.098435 0.170107
C28   C     C_3   0.881299 0.589892 0.013229 -0.660605
H23   H     H_    0.971419 0.643169 0.008056 0.274475
H24   H     H_    0.864402 0.545891 0.913116 0.211169
H25   H     H_    0.804872 0.655596 0.036939 0.237529
N4    N     N_R   0.875699 0.733459 0.483999 0.232713
O12   O     O_R   0.805513 0.806089 0.557437 -0.436825
O13   O     O_R   0.905210 0.767285 0.360455 -0.311615
N5    N     N_R   0.112938 0.267243 0.574091 0.195211
O14   O     O_R   0.216246 0.232706 0.628798 -0.401494
O15   O     O_R   0.061324 0.193168 0.485737 -0.408281

loop_
_geom_bond_atom_site_label_1
_geom_bond_atom_site_label_2
_geom_bond_distance
_ccdc_geom_bond_type
C28   H24   1.110377 S    
C27   H22   1.114619 S    
N5    O14   1.301317 A    
C16   H10   1.083508 S    
C22   C23   1.418908 A    
C25   C26   1.512194 S    
Zn1   O7    2.008219 S    
C10   C11   1.566882 S    
C17   C18   1.394838 A    
C12   H7    1.120006 S    
H3    C7    1.108082 S    
O4    C2    1.284704 A    
O7    C4    1.288436 A    
C28   H25   1.109326 S    
C5    C6    1.554306 S    
C13   C20   1.495621 S    
O5    C3    1.283204 A    
C20   H13   1.107960 S    
C13   C14   1.391338 A    
C6    H1    1.111555 S    
C23   N2    1.367382 A    
C8    H6    1.110525 S    
N4    O12   1.299270 A    
C3    C17   1.420305 S    
C5    C9    1.595811 S    
C28   H23   1.110513 S    
C7    C11   1.533812 S    
C27   C28   1.520919 S    
N3    O9    1.299803 A    
C8    C12   1.534765 S    
N5    O15   1.302481 A    
O3    Zn1   2.025980 S    
C19   H12   1.107923 S    
C25   H17   1.097242 S    
C6    C10   1.553287 S    
N3    O10   1.303136 A    
N2    C24   1.364626 A    
O3    C2    1.289606 A    
C19   C20   1.513582 S    
C21   C24   1.408289 A    
C21   N1    1.361194 A    
O1    C1    1.284661 A    
O11   C27   1.413888 S    
C22   H15   1.081244 S    
Zn2   O8    2.025978 S    
C15   H9    1.080826 S    
C4    C10   1.455090 S    
C11   N4    1.471555 S    
Zn2   O6    1.996869 S    
C5    N5    1.480893 S    
O8    C4    1.279438 A    
C21   C26   1.487482 S    
C7    C9    1.552897 S    
C8    H5    1.114753 S    
C24   C25   1.486515 S    
C26   H20   1.108914 S    
C25   H18   1.108230 S    
Zn1   O5    1.997587 S    
N1    C22   1.367796 A    
C16   C17   1.401937 A    
O1    Zn1   1.996868 S    
C5    N3    1.479092 S    
O2    Zn2   1.997587 S    
O6    C3    1.285120 A    
O4    Zn2   2.008221 S    
H4    C11   1.115475 S    
C7    H8    1.112972 S    
C10   C12   1.566430 S    
C13   C18   1.365711 A    
C14   C15   1.401786 A    
O2    C1    1.283879 A    
Zn1   N2    2.011390 S    
C18   C19   1.496024 S    
C2    C9    1.465778 S    
C15   C16   1.380708 A    
C1    C14   1.419564 S    
Zn2   N1    2.012295 S    
C27   H21   1.112730 S    
C20   H14   1.112705 S    
C19   H11   1.111684 S    
C6    H2    1.113794 S    
C23   H16   1.079138 S    
C8    C9    1.568772 S    
N4    O13   1.301016 A    
C26   H19   1.111496 S    
C12   O11   1.419745 S    
