data_mof_unit_29954.cif
_audit_creation_date              2012-12-10T17:25:36-0500
_audit_creation_method            fapswitch 2.2
_symmetry_space_group_name_H-M    P1
_symmetry_Int_Tables_number       1
_space_group_crystal_system       triclinic
_cell_length_a                    10.146137
_cell_length_b                    10.715702
_cell_length_c                    23.457547
_cell_angle_alpha                 89.983957
_cell_angle_beta                  80.249218
_cell_angle_gamma                 95.627222
_cell_volume                      2501.0473867

loop_
_atom_site_label
_atom_site_type_symbol
_atom_type_description
_atom_site_fract_x
_atom_site_fract_y
_atom_site_fract_z
_atom_type_partial_charge
C1    C     C_R   0.557184 0.734316 0.493852 0.771381
C2    C     C_R   0.381796 0.442336 0.306046 0.188854
C3    C     C_R   0.405315 0.562828 0.769884 -0.173846
C4    C     C_R   0.384846 0.441177 0.246382 -0.181650
C5    C     C_R   0.500535 0.499382 0.791727 0.286976
C6    C     C_R   0.503452 0.481009 0.208704 0.291437
C7    C     C_2   0.589708 0.869934 0.481864 0.272368
C8    C     C_2   0.407417 0.130262 0.501406 0.289470
C9    C     C_2   0.487736 0.932029 0.471120 -0.178329
C10   C     C_2   0.500189 0.067017 0.469573 -0.177599
C11   C     C_2   0.924601 0.499420 0.508324 -0.054524
C12   C     C_R   0.442668 0.266024 0.503791 0.750198
C13   C     C_2   0.073485 0.493168 0.494491 -0.026992
C14   C     C_R   0.499891 0.501945 0.610635 0.893595
C15   C     C_R   0.499782 0.496858 0.389502 0.881253
C16   C     C_R   0.493886 0.371712 0.119752 0.512081
C17   C     C_R   0.519243 0.608130 0.880307 0.497025
C18   C     C_R   0.512133 0.595757 0.120219 0.515302
C19   C     C_R   0.482565 0.384342 0.881286 0.516550
C20   C     C_R   0.511051 0.600690 0.060925 -0.054292
C21   C     C_R   0.484617 0.379597 0.940500 -0.027656
C22   C     C_R   0.498949 0.487945 0.030612 -0.064139
C23   C     C_R   0.596614 0.440453 0.754270 -0.098805
C24   C     C_R   0.498013 0.492536 0.970646 -0.050367
C25   C     C_R   0.488362 0.370920 0.060176 -0.050257
C26   C     C_R   0.510997 0.609658 0.940881 -0.077330
C27   C     C_R   0.519437 0.716051 0.031972 -0.180619
C28   C     C_R   0.472676 0.264156 0.969819 -0.241052
C29   C     C_R   0.518289 0.722428 0.972759 0.216113
C30   C     C_R   0.473982 0.258285 0.029124 0.214295
C31   C     C_3   0.098113 0.736033 0.570480 -0.740531
C32   C     C_3   0.850503 0.288547 0.407842 -0.690707
C33   C     C_3   0.643857 0.916927 0.934127 -0.713561
C34   C     C_R   0.620389 0.521722 0.230020 -0.094535
C35   C     C_3   0.322844 0.088330 0.076778 -0.670612
C36   C     C_3   0.378042 0.766545 0.667305 -0.710717
C37   C     C_3   0.260972 0.269076 0.364535 -0.745444
C38   C     C_3   0.216441 0.133856 0.574033 0.139646
C39   C     C_3   0.113680 0.045849 0.613273 -0.863675
C40   C     C_3   0.824378 0.873527 0.469605 0.124775
C41   C     C_3   0.949089 0.966959 0.456831 -0.850598
C42   C     C_R   0.595698 0.442353 0.695245 -0.275006
C43   C     C_R   0.618385 0.525086 0.289229 -0.278382
C44   C     C_R   0.500125 0.505226 0.672864 -0.084282
C45   C     C_R   0.499241 0.487730 0.327581 -0.075070
C46   C     C_R   0.406341 0.569366 0.710442 0.178926
H1    H     H_    0.524578 0.802975 0.055507 0.197410
H2    H     H_    0.389328 0.884638 0.468243 0.181923
H3    H     H_    0.114746 0.438418 0.458149 0.173139
H4    H     H_    0.881728 0.546345 0.547015 0.163561
H5    H     H_    0.151887 0.579610 0.608311 0.268922
H6    H     H_    0.046230 0.770023 0.612201 0.224773
H7    H     H_    0.041018 0.757768 0.535987 0.230094
H8    H     H_    0.201132 0.785042 0.560239 0.278124
H9    H     H_    0.892592 0.478685 0.390635 0.227668
H10   H     H_    0.915834 0.257818 0.368585 0.204627
H11   H     H_    0.746510 0.286952 0.398866 0.251791
H12   H     H_    0.461491 0.177067 0.946840 0.191128
H13   H     H_    0.852553 0.222405 0.444051 0.254567
H14   H     H_    0.451136 0.849834 0.918675 0.272514
H15   H     H_    0.629620 0.011103 0.917834 0.235286
H16   H     H_    0.711474 0.870412 0.900242 0.275065
H17   H     H_    0.691526 0.929256 0.973308 0.225434
H18   H     H_    0.514861 0.073904 0.032783 0.227575
H19   H     H_    0.321263 0.998686 0.100760 0.244525
H20   H     H_    0.269560 0.070123 0.039470 0.212193
H21   H     H_    0.269498 0.154987 0.106414 0.251327
H22   H     H_    0.227226 0.649702 0.716792 0.217385
H23   H     H_    0.671514 0.392573 0.771030 0.153771
H24   H     H_    0.411499 0.822792 0.702990 0.245109
H25   H     H_    0.303804 0.816618 0.649068 0.230445
H26   H     H_    0.465414 0.757772 0.632464 0.239196
H27   H     H_    0.174893 0.409699 0.328039 0.220274
H28   H     H_    0.263880 0.202992 0.327935 0.241703
H29   H     H_    0.167916 0.243416 0.396307 0.238346
H30   H     H_    0.348552 0.259860 0.386368 0.231946
H31   H     H_    0.159676 0.202156 0.555041 0.174210
H32   H     H_    0.284725 0.182276 0.601434 0.136629
H33   H     H_    0.165155 0.976575 0.634234 0.253398
H34   H     H_    0.712186 0.552177 0.200598 0.145384
H35   H     H_    0.056275 0.100372 0.647483 0.221160
H36   H     H_    0.042279 0.996437 0.587870 0.262229
H37   H     H_    0.815844 0.820991 0.429147 0.144684
H38   H     H_    0.838724 0.809089 0.504646 0.165716
H39   H     H_    0.956875 0.028047 0.494587 0.269999
H40   H     H_    0.040302 0.915979 0.447443 0.224560
H41   H     H_    0.944189 0.025931 0.418493 0.246675
H42   H     H_    0.669206 0.393639 0.667122 0.175782
H43   H     H_    0.709363 0.559154 0.305094 0.163219
H44   H     H_    0.332663 0.609993 0.799236 0.143179
H45   H     H_    0.295364 0.408565 0.229067 0.134368
H46   H     H_    0.594299 0.113937 0.446936 0.171284
N1    N     N_R   0.504006 0.482772 0.147986 -0.354382
N2    N     N_2   0.261592 0.396367 0.343765 -0.301819
N3    N     N_R   0.500924 0.497117 0.852575 -0.344936
N4    N     N_2   0.842710 0.448880 0.476480 -0.035286
N5    N     N_2   0.157290 0.551120 0.523520 -0.042642
N6    N     N_2   0.103931 0.602564 0.575039 -0.262366
N7    N     N_2   0.899510 0.413520 0.422076 -0.264293
N8    N     N_2   0.515016 0.843253 0.948069 -0.308306
N9    N     N_2   0.460597 0.138295 0.056703 -0.250871
N10   N     N_2   0.316692 0.644254 0.688897 -0.310912
O1    O     O_R   0.431060 0.692470 0.504730 -0.609313
O2    O     O_2   0.549298 0.715267 0.848644 -0.574173
O3    O     O_2   0.520431 0.702960 0.150237 -0.560799
O4    O     O_2   0.462005 0.277094 0.852426 -0.570077
O5    O     O_3   0.287302 0.064929 0.529553 -0.621995
O6    O     O_3   0.710843 0.938504 0.488418 -0.611710
O7    O     O_R   0.568940 0.307530 0.495270 -0.600760
O8    O     O_R   0.651120 0.659650 0.489640 -0.632705
O9    O     O_R   0.348880 0.340350 0.510360 -0.628566
O10   O     O_R   0.389950 0.516450 0.591390 -0.594927
O11   O     O_R   0.610050 0.483550 0.408610 -0.628091
O12   O     O_R   0.610020 0.483630 0.576300 -0.619958
O13   O     O_R   0.389980 0.516370 0.423700 -0.585805
O14   O     O_2   0.490764 0.263417 0.149514 -0.526200
Zn1   Zn    Zn3+2 0.353060 0.521920 0.510080 0.952827
Zn2   Zn    Zn3+2 0.646940 0.478080 0.489920 0.936097

loop_
_geom_bond_atom_site_label_1
_geom_bond_atom_site_label_2
_ccdc_geom_bond_type
C11   N4    D    
C37   H28   S    
C27   C29   A    
C23   H23   S    
C31   H6    S    
O8    Zn2   S    
N5    N6    S    
C14   O10   A    
C41   H40   S    
C46   N10   S    
C16   N1    A    
C43   H43   S    
C23   C42   A    
C3    H44   S    
C17   C26   A    
H27   N2    S    
N4    Zn2   S    
C19   C21   A    
C17   O2    S    
C24   C26   A    
C38   C39   S    
C35   H19   S    
N4    N7    S    
C16   C25   A    
C36   N10   S    
C31   N6    S    
C38   O5    S    
C40   H38   S    
C34   H34   S    
C36   H24   S    
C33   H16   S    
O13   Zn1   S    
C22   C25   A    
C15   O11   A    
C17   N3    A    
C9    C10   S    
C1    O1    A    
C18   C20   A    
C36   H25   S    
C33   H17   S    
C40   O6    S    
C4    H45   S    
H5    N6    S    
C37   H29   S    
C10   H46   S    
C13   N5    D    
C40   H37   S    
O1    Zn1   S    
C42   C44   A    
C32   H11   S    
C16   O14   S    
C12   O7    A    
C5    N3    S    
C44   C46   A    
O7    Zn2   S    
C2    C45   A    
H18   N9    S    
C41   H41   S    
C2    N2    S    
C39   H35   S    
C4    C6    A    
C38   H32   S    
C35   H20   S    
C35   N9    S    
C14   O12   A    
C6    C34   A    
C39   H33   S    
C2    C4    A    
C1    O8    A    
C5    C23   A    
C35   H21   S    
C8    C12   S    
C6    N1    S    
C31   H7    S    
C43   C45   A    
O12   Zn2   S    
C26   C29   A    
C13   H3    S    
C8    C10   D    
C40   C41   S    
C38   H31   S    
C21   C28   A    
C20   C22   A    
C15   O13   A    
C42   H42   S    
C15   C45   S    
C8    O5    S    
C3    C5    A    
C19   N3    A    
C14   C44   S    
C27   H1    S    
C25   C30   A    
C7    C9    D    
C29   N8    S    
C1    C7    S    
C37   H30   S    
C34   C43   A    
C39   H36   S    
H22   N10   S    
H14   N8    S    
C20   C27   A    
C28   H12   S    
C41   H39   S    
C3    C46   A    
C32   N7    S    
O9    Zn1   S    
C33   N8    S    
C28   C30   A    
C18   O3    S    
C11   H4    S    
C11   C13   S    
O10   Zn1   S    
C30   N9    S    
C37   N2    S    
C22   C24   A    
C31   H8    S    
N5    Zn1   S    
O11   Zn2   S    
C19   O4    S    
C9    H2    S    
C33   H15   S    
C21   C24   A    
H9    N7    S    
C18   N1    A    
C7    O6    S    
C32   H13   S    
C32   H10   S    
C12   O9    A    
C36   H26   S    
