data_mof_unit_18767.cif
_audit_creation_date              2012-12-10T16:53:10-0500
_audit_creation_method            fapswitch 2.2
_symmetry_space_group_name_H-M    P1
_symmetry_Int_Tables_number       1
_space_group_crystal_system       triclinic
_cell_length_a                    10.956621
_cell_length_b                    10.9908
_cell_length_c                    9.760385
_cell_angle_alpha                 92.276943
_cell_angle_beta                  92.366599
_cell_angle_gamma                 89.822987
_cell_volume                      1173.43443672

loop_
_atom_site_label
_atom_site_type_symbol
_atom_type_description
_atom_site_fract_x
_atom_site_fract_y
_atom_site_fract_z
_atom_type_partial_charge
C1    C     C_R   0.506899 0.266939 0.497151 0.867175
C2    C     C_R   0.070686 0.585784 0.595030 -0.198655
C3    C     C_R   0.127671 0.512867 0.493426 -0.193105
C4    C     C_R   0.056448 0.439945 0.400452 0.351255
C5    C     C_R   0.930528 0.434470 0.411572 0.333078
C6    C     C_R   0.872018 0.504672 0.514406 -0.174620
C7    C     C_2   0.443453 0.936250 0.413118 0.241549
C8    C     C_2   0.486951 0.867437 0.516229 0.236736
C9    C     C_2   0.429510 0.067574 0.437671 0.270433
C10   C     C_2   0.523461 0.137521 0.485259 0.192770
C11   C     C_2   0.493761 0.403281 0.921951 0.601311
C12   C     C_R   0.262255 0.502302 0.497379 0.931648
C13   C     C_2   0.456894 0.412183 0.069450 0.519434
C14   C     C_R   0.495916 0.734676 0.502946 0.793326
C15   C     C_R   0.737611 0.504935 0.504457 0.842691
C16   C     C_R   0.137597 0.678266 0.670181 0.419131
C17   C     C_R   0.100318 0.719730 0.798303 0.378907
C18   C     C_R   0.986764 0.684196 0.840228 0.199203
C19   C     C_R   0.901871 0.632080 0.742558 0.366316
C20   C     C_R   0.944306 0.573426 0.617816 -0.157576
Cu1   Cu    Cu3+1 0.500020 0.500020 0.638630 1.114728
Cu2   Cu    Cu3+1 0.499980 0.499980 0.361370 1.123001
N1    N     N_2   0.498640 0.498660 0.846910 -0.062859
N2    N     N_2   0.498610 0.498630 0.153040 -0.039433
O1    O     O_R   0.500020 0.321960 0.617040 -0.551758
O2    O     O_R   0.499980 0.321920 0.382900 -0.524452
O3    O     O_R   0.319670 0.500020 0.617100 -0.537542
O4    O     O_R   0.319630 0.499980 0.382950 -0.528084
O5    O     O_R   0.500020 0.678080 0.617100 -0.534671
O6    O     O_R   0.499980 0.678040 0.382960 -0.609716
O7    O     O_R   0.680370 0.500020 0.617050 -0.538018
O8    O     O_R   0.680330 0.499980 0.382900 -0.535088
Cl1   Cl    Cl    0.122178 0.353228 0.267091 -0.366265
Cl2   Cl    Cl    0.676632 0.085969 0.491938 -0.553465
O9    O     O_3   0.525266 0.289868 0.868714 -0.592433
C21   C     C_3   0.650455 0.270888 0.899632 -0.168463
H1    H     H_    0.669611 0.269033 0.012459 0.196202
H2    H     H_    0.707713 0.341124 0.854014 0.190644
H3    H     H_    0.676933 0.180973 0.854245 0.207048
Cl3   Cl    Cl    0.412513 0.623656 0.899658 -0.502293
Cl4   Cl    Cl    0.370088 0.292046 0.125422 -0.435691
O10   O     O_3   0.607618 0.538592 0.110995 -0.532138
C22   C     C_3   0.618137 0.664890 0.136747 0.095491
H4    H     H_    0.673472 0.684621 0.232606 0.158297
H5    H     H_    0.528889 0.712212 0.137568 0.205948
H6    H     H_    0.668808 0.703248 0.052542 0.169122
O11   O     O_3   0.228568 0.741398 0.610350 -0.602111
C23   C     C_3   0.174565 0.807958 0.502170 -0.282304
H7    H     H_    0.222652 0.895328 0.497953 0.224910
H8    H     H_    0.076632 0.832757 0.515413 0.159958
H9    H     H_    0.183454 0.756247 0.403067 0.237905
O12   O     O_3   0.175571 0.794691 0.881435 -0.482101
C24   C     C_3   0.138005 0.916614 0.866946 -0.138903
H10   H     H_    0.141045 0.944004 0.758678 0.125452
H11   H     H_    0.201915 0.976573 0.929299 0.229752
H12   H     H_    0.044961 0.932522 0.905359 0.186653
Cl5   Cl    Cl    0.944920 0.718013 0.010434 -0.525352
O13   O     O_3   0.781271 0.637983 0.775882 -0.534123
C25   C     C_3   0.738429 0.757530 0.755345 -0.131062
H13   H     H_    0.731578 0.775402 0.643963 0.152478
H14   H     H_    0.796166 0.828873 0.809567 0.153306
H15   H     H_    0.646863 0.766597 0.798594 0.231445
Cl6   Cl    Cl    0.848571 0.326530 0.302401 -0.447184
Cl7   Cl    Cl    0.378212 0.875558 0.256519 -0.546025
O14   O     O_3   0.528024 0.922383 0.640529 -0.608406
C26   C     C_3   0.430164 0.938272 0.728880 -0.201832
H16   H     H_    0.396267 0.849508 0.761149 0.265888
H17   H     H_    0.354361 0.992065 0.682276 0.156715
H18   H     H_    0.463918 0.989705 0.822890 0.219424
Cl8   Cl    Cl    0.280950 0.128597 0.414004 -0.513605

loop_
_geom_bond_atom_site_label_1
_geom_bond_atom_site_label_2
_ccdc_geom_bond_type
C26   H17   S    
C22   H4    S    
C15   O7    A    
C13   Cl4   S    
C16   C17   A    
C2    C16   A    
C9    C10   D    
C18   Cl5   S    
C19   C20   A    
C17   O12   S    
C21   H2    S    
C17   C18   A    
Cu1   O3    S    
C25   H13   S    
C10   Cl2   S    
Cu2   O4    S    
Cu1   Cu2   S    
C9    Cl8   S    
C1    O1    A    
C22   H5    S    
Cu1   O7    S    
C5    C6    A    
Cu2   O8    S    
C6    C20   A    
C12   O4    A    
C16   O11   S    
C23   H8    S    
C23   H7    S    
C14   O6    A    
C2    C3    A    
C24   H11   S    
C19   O13   S    
C1    O2    A    
Cu1   N1    S    
C22   H6    S    
Cu2   N2    S    
C7    Cl7   S    
C25   H14   S    
C11   C13   S    
C7    C8    D    
O10   C22   S    
C12   O3    A    
C2    C20   A    
N1    Cl3   S    
C26   H18   S    
O11   C23   S    
C8    O14   S    
N2    O10   S    
O12   C24   S    
C5    Cl6   S    
O14   C26   S    
Cu2   O2    S    
C24   H12   S    
C11   N1    D    
C26   H16   S    
C7    C9    S    
C18   C19   A    
Cu1   O1    S    
C4    Cl1   S    
C21   H1    S    
C25   H15   S    
C8    C14   S    
C3    C12   S    
Cu2   O6    S    
C6    C15   S    
C24   H10   S    
O13   C25   S    
Cu1   O5    S    
C11   O9    S    
C21   H3    S    
C23   H9    S    
C1    C10   S    
C3    C4    A    
C13   N2    D    
C14   O5    A    
C4    C5    A    
O9    C21   S    
C15   O8    A    
