data_mof_unit_67871.cif
_audit_creation_date              2013-03-05T15:41:51-0500
_audit_creation_method            fapswitch 2.2
_symmetry_space_group_name_H-M    P1
_symmetry_Int_Tables_number       1
_space_group_crystal_system       triclinic
_cell_length_a                    7.874296
_cell_length_b                    8.783986
_cell_length_c                    10.543347
_cell_angle_alpha                 93.273129
_cell_angle_beta                  85.040941
_cell_angle_gamma                 93.253422
_cell_volume                      724.359141367

loop_
_atom_site_label
_atom_site_type_symbol
_atom_site_description
_atom_site_fract_x
_atom_site_fract_y
_atom_site_fract_z
_atom_type_partial_charge
O1    O     O_R   0.389250 0.738570 0.508410 -0.611150
O2    O     O_R   0.610750 0.261430 0.491590 -0.603051
O3    O     O_R   0.678390 0.711620 0.486450 -0.570598
O4    O     O_R   0.321610 0.288380 0.513550 -0.560330
C1    C     C_R   0.544962 0.793819 0.498378 0.825324
C2    C     C_R   0.455463 0.206074 0.499429 0.850381
O5    O     O_R   0.355460 0.513510 0.697030 -0.662411
O6    O     O_R   0.644540 0.486490 0.302970 -0.658309
O7    O     O_R   0.644600 0.486560 0.675070 -0.613541
O8    O     O_R   0.355400 0.513440 0.324930 -0.613157
C3    C     C_R   0.500890 0.498813 0.741819 0.850284
C4    C     C_R   0.498858 0.500533 0.257733 0.877323
Zn1   Zn    Zn3+2 0.306940 0.517990 0.514670 1.010069
Zn2   Zn    Zn3+2 0.693060 0.482010 0.485330 1.010366
N1    N     N_2   0.950320 0.457950 0.465730 0.150799
N2    N     N_2   0.049680 0.542050 0.534270 0.144825
C5    C     C_3   0.432112 0.625686 0.964373 -0.401249
C6    C     C_3   0.565455 0.369156 0.034271 -0.393609
C7    C     C_3   0.590388 0.617770 0.039929 0.577824
C8    C     C_3   0.408112 0.377050 0.958258 0.577684
H1    H     H_    0.376379 0.727207 0.930116 0.144206
H2    H     H_    0.622812 0.267593 0.065589 0.153040
C9    C     C_3   0.495461 0.499458 0.122541 -0.080844
C10   C     C_3   0.502919 0.495885 0.876113 -0.098901
C11   C     C_3   0.335310 0.505271 0.048696 -0.249778
C12   C     C_3   0.662880 0.489499 0.950030 -0.266462
H3    H     H_    0.202036 0.515922 0.090070 0.168826
H4    H     H_    0.795973 0.478964 0.908202 0.175061
C13   C     C_2   0.569041 0.956943 0.501146 0.135626
C14   C     C_2   0.433472 0.043272 0.489106 0.165826
O9    O     O_3   0.692458 0.738078 0.092589 -0.621977
C15   C     C_3   0.617795 0.877790 0.080333 0.074434
H5    H     H_    0.478146 0.871664 0.107162 0.123304
H6    H     H_    0.640719 0.911271 0.980024 0.146278
C16   C     C_3   0.697232 0.999231 0.167454 -0.873751
H7    H     H_    0.803332 0.059067 0.111912 0.241256
H8    H     H_    0.601642 0.082212 0.204718 0.187177
H9    H     H_    0.744936 0.947605 0.250034 0.300469
O10   O     O_3   0.306429 0.252372 0.911746 -0.622418
C17   C     C_3   0.412771 0.144120 0.847089 0.096579
H10   H     H_    0.507314 0.106736 0.909111 0.126304
H11   H     H_    0.480944 0.190955 0.760236 0.132965
C18   C     C_3   0.305186 0.004195 0.807962 -0.869485
H12   H     H_    0.232321 0.958439 0.893607 0.255402
H13   H     H_    0.215996 0.034269 0.738648 0.286880
H14   H     H_    0.388970 0.915590 0.762673 0.188239
O11   O     O_3   0.034085 0.351832 0.391768 -0.514312
C19   C     C_3   0.957409 0.334288 0.276548 0.217147
H15   H     H_    0.947509 0.447393 0.235722 0.145204
H16   H     H_    0.830406 0.273747 0.291114 0.190919
C20   C     C_3   0.067860 0.239503 0.180806 -0.906275
H17   H     H_    0.047592 0.117696 0.199998 0.250372
H18   H     H_    0.032999 0.255491 0.082792 0.245241
H19   H     H_    0.204798 0.271952 0.187643 0.278388
O12   O     O_3   0.964333 0.643459 0.612564 -0.543795
C21   C     C_3   0.045898 0.661395 0.725881 0.198882
H20   H     H_    0.172076 0.722064 0.708345 0.194112
H21   H     H_    0.057185 0.547974 0.765676 0.165133
C22   C     C_3   0.940389 0.756313 0.825538 -0.965116
H22   H     H_    0.802261 0.729825 0.818157 0.279497
H23   H     H_    0.974548 0.733198 0.922382 0.258860
H24   H     H_    0.966087 0.879341 0.812478 0.237984
O13   O     O_3   0.733919 0.021845 0.505877 -0.612827
C23   C     C_3   0.798128 0.000196 0.624198 0.134431
H25   H     H_    0.898125 0.916408 0.607121 0.246026
H26   H     H_    0.700158 0.958856 0.699112 0.081933
C24   C     C_3   0.881634 0.149412 0.674854 -0.770726
H27   H     H_    0.787213 0.238536 0.688703 0.260202
H28   H     H_    0.930753 0.134224 0.768529 0.192517
H29   H     H_    0.989233 0.187525 0.607120 0.306941
O14   O     O_3   0.270726 0.981508 0.470222 -0.593275
C25   C     C_3   0.264142 0.940524 0.339106 0.118984
H30   H     H_    0.363413 0.859807 0.304651 0.137527
H31   H     H_    0.283488 0.043329 0.282130 0.128025
C26   C     C_3   0.092763 0.859712 0.317055 -0.713343
H32   H     H_    0.988720 0.931430 0.358275 0.289322
H33   H     H_    0.081363 0.837707 0.213254 0.189227
H34   H     H_    0.080922 0.749039 0.363054 0.267064

loop_
_geom_bond_atom_site_label_1
_geom_bond_atom_site_label_2
_geom_bond_distance
_ccdc_geom_bond_type
O12   C21   1.401578 S    
C13   O13   1.391763 S    
C16   H7    1.103586 S    
C6    C12   1.546668 S    
N1    O11   1.345323 S    
O7    Zn2   2.002451 S    
C7    O9    1.408820 S    
C14   O14   1.388928 S    
O5    C3    1.291624 A    
C4    C9    1.427419 S    
O1    C1    1.290733 A    
C16   H8    1.109356 S    
C10   C12   1.542647 S    
C8    C11   1.537049 S    
N1    N2    1.285012 D    
C3    C10   1.419097 S    
C21   H20   1.106685 S    
O4    Zn1   2.026036 S    
C7    C12   1.533388 S    
C19   C20   1.517577 S    
O9    C15   1.407687 S    
C19   H16   1.108562 S    
C22   H22   1.107719 S    
O2    C2    1.287662 A    
C25   C26   1.518466 S    
C26   H34   1.106667 S    
C1    C13   1.433629 S    
C17   C18   1.510922 S    
C22   H23   1.110628 S    
C5    C10   1.529077 S    
C6    C9    1.530110 S    
C15   C16   1.511498 S    
C8    C10   1.516591 S    
C16   H9    1.107151 S    
O4    C2    1.304934 A    
O10   C17   1.409873 S    
C8    O10   1.409967 S    
C5    H1    1.107655 S    
C24   H27   1.105094 S    
C20   H18   1.110397 S    
C23   H26   1.116443 S    
C7    C9    1.516589 S    
C26   H32   1.105757 S    
C23   C24   1.522671 S    
C13   C14   1.362736 D    
C18   H13   1.108570 S    
O11   C19   1.399613 S    
O5    Zn1   1.995391 S    
O6    C4    1.294606 A    
C26   H33   1.110862 S    
O3    Zn2   2.026036 S    
O8    C4    1.287580 A    
C25   H31   1.109081 S    
C19   H15   1.114375 S    
C2    C14   1.429768 S    
O7    C3    1.286429 A    
C18   H12   1.109872 S    
O1    Zn1   2.010792 S    
C17   H10   1.107296 S    
C22   H24   1.102325 S    
O6    Zn2   1.995390 S    
C6    H2    1.101847 S    
C25   H30   1.109097 S    
O3    C1    1.301499 A    
O8    Zn1   2.002451 S    
C11   H3    1.108016 S    
C12   H4    1.108075 S    
C21   C22   1.522186 S    
C20   H19   1.106957 S    
C5    C11   1.545612 S    
C23   H25   1.104649 S    
C24   H29   1.109253 S    
N2    O12   1.347076 S    
C20   H17   1.100434 S    
C15   H5    1.110570 S    
C17   H11   1.108561 S    
C5    C7    1.542892 S    
C21   H21   1.113898 S    
C6    C8    1.539441 S    
C9    C11   1.542951 S    
O2    Zn2   2.010792 S    
C18   H14   1.109231 S    
O13   C23   1.412485 S    
O14   C25   1.413073 S    
Zn1   N2    2.040155 S    
Zn2   N1    2.040155 S    
C24   H28   1.108959 S    
C15   H6    1.110880 S    
