data_mof_unit_5465.cif
_audit_creation_date              2012-12-10T17:28:33-0500
_audit_creation_method            fapswitch 2.2
_symmetry_space_group_name_H-M    P1
_symmetry_Int_Tables_number       1
_space_group_crystal_system       triclinic
_cell_length_a                    10.695981
_cell_length_b                    12.073739
_cell_length_c                    12.840574
_cell_angle_alpha                 94.102926
_cell_angle_beta                  92.870715
_cell_angle_gamma                 88.528736
_cell_volume                      1651.50620097

loop_
_atom_site_label
_atom_site_type_symbol
_atom_type_description
_atom_site_fract_x
_atom_site_fract_y
_atom_site_fract_z
_atom_type_partial_charge
C1    C     C_R   0.493844 0.522251 0.700037 0.927602
C2    C     C_R   0.506167 0.477749 0.299964 0.927540
C3    C     C_R   0.509210 0.463652 0.188232 -0.066421
C4    C     C_R   0.490823 0.536346 0.811771 -0.066309
C5    C     C_R   0.532850 0.645684 0.973006 -0.202167
C6    C     C_R   0.467198 0.354312 0.026996 -0.202197
C7    C     C_R   0.519892 0.638407 0.864973 -0.179636
C8    C     C_R   0.480144 0.361591 0.135029 -0.179431
C9    C     C_R   0.469139 0.442988 0.865807 -0.276999
C10   C     C_R   0.530907 0.557007 0.134197 -0.277153
C11   C     C_R   0.483581 0.449012 0.973041 0.198025
C12   C     C_R   0.516471 0.550982 0.026961 0.198050
C13   C     C_R   0.382363 0.947580 0.398633 -0.250847
C14   C     C_R   0.617641 0.052419 0.601364 -0.250843
C15   C     C_R   0.393779 0.833171 0.408855 -0.083456
C16   C     C_R   0.606219 0.166829 0.591146 -0.083461
C17   C     C_R   0.551615 0.862661 0.544841 0.525028
C18   C     C_R   0.448393 0.137338 0.455153 0.525033
C19   C     C_R   0.542770 0.978561 0.536992 -0.002190
C20   C     C_R   0.457237 0.021438 0.463004 -0.002191
C21   C     C_R   0.739212 0.502625 0.502990 0.992480
C22   C     C_R   0.260787 0.497375 0.497004 0.992494
C23   C     C_R   0.889901 0.485778 0.697685 0.416522
C24   C     C_R   0.110097 0.514327 0.302308 0.416511
C25   C     C_R   0.965489 0.457323 0.785902 0.414340
C26   C     C_R   0.034491 0.542771 0.214094 0.414323
C27   C     C_R   0.094177 0.441509 0.776753 -0.287783
C28   C     C_R   0.905796 0.558521 0.223242 -0.287763
C29   C     C_R   0.147513 0.453877 0.682422 -0.226791
C30   C     C_R   0.852469 0.546112 0.317566 -0.226756
C31   C     C_R   0.073549 0.477714 0.591704 -0.012514
C32   C     C_R   0.926443 0.522287 0.408281 -0.012521
C33   C     C_R   0.943546 0.489818 0.597918 -0.040404
C34   C     C_R   0.056449 0.510213 0.402068 -0.040370
C35   C     C_R   0.128033 0.491504 0.495552 -0.107233
C36   C     C_R   0.871964 0.508501 0.504432 -0.107208
H1    H     H_    0.315262 0.977519 0.340614 0.213573
H2    H     H_    0.684741 0.022481 0.659384 0.213570
H3    H     H_    0.247821 0.442995 0.682068 0.163044
H4    H     H_    0.752155 0.556958 0.317920 0.163014
H5    H     H_    0.555680 0.635477 0.175661 0.159598
H6    H     H_    0.444365 0.364518 0.824343 0.159567
H7    H     H_    0.557387 0.724290 0.014070 0.147168
H8    H     H_    0.442660 0.275705 0.985931 0.147163
N1    N     N_R   0.523130 0.207800 0.519340 -0.160574
N2    N     N_R   0.476870 0.792200 0.480660 -0.160572
O1    O     O_R   0.506170 0.421700 0.658830 -0.616374
O2    O     O_R   0.493830 0.578300 0.341170 -0.616365
O3    O     O_R   0.491330 0.609310 0.646410 -0.637342
O4    O     O_R   0.508670 0.390690 0.353590 -0.637318
O5    O     O_R   0.690650 0.406190 0.506220 -0.605384
O6    O     O_R   0.309350 0.593810 0.493780 -0.605332
O7    O     O_R   0.675800 0.593810 0.493800 -0.641868
O8    O     O_R   0.324200 0.406190 0.506200 -0.641931
Zn1   Zn    Zn3+2 0.509910 0.374730 0.508290 0.969915
Zn2   Zn    Zn3+2 0.490090 0.625270 0.491710 0.969922
H9    H     H_    0.845749 0.578715 0.156453 0.169741
H10   H     H_    0.154211 0.421302 0.843546 0.169744
O9    O     O_3   0.765397 0.514598 0.708489 -0.794566
H11   H     H_    0.745932 0.520437 0.783178 0.374575
O10   O     O_3   0.234625 0.485597 0.291511 -0.794576
H12   H     H_    0.254165 0.479996 0.216841 0.374610
O11   O     O_3   0.911417 0.445926 0.880018 -0.792930
H13   H     H_    0.976594 0.422491 0.932102 0.348212
O12   O     O_3   0.088548 0.554219 0.119979 -0.792967
H14   H     H_    0.023353 0.577648 0.067908 0.348211
H15   H     H_    0.463018 0.289064 0.176809 0.187087
H16   H     H_    0.537008 0.710935 0.823191 0.187083
O13   O     O_3   0.363302 0.176815 0.381929 -0.793262
H17   H     H_    0.365593 0.257999 0.386713 0.393848
O14   O     O_3   0.636717 0.823183 0.618056 -0.793257
H18   H     H_    0.634397 0.742000 0.613294 0.393862
H19   H     H_    0.663850 0.223273 0.640788 0.177901
H20   H     H_    0.336145 0.776728 0.359215 0.177907

loop_
_geom_bond_atom_site_label_1
_geom_bond_atom_site_label_2
_ccdc_geom_bond_type
C30   C32   A    
C24   O10   S    
C27   C29   A    
C19   C20   A    
C22   O8    A    
C21   C36   S    
C28   H9    S    
C23   O9    S    
C22   C35   S    
C9    H6    S    
C32   C36   A    
C22   O6    A    
C24   C26   A    
C33   C36   A    
C34   C35   A    
C25   O11   S    
C2    O4    A    
C7    H16   S    
C23   C33   A    
C31   C33   A    
C14   C16   A    
C13   H1    S    
C18   O13   S    
C5    H7    S    
O9    H11   S    
C6    H8    S    
C10   H5    S    
O13   H17   S    
C4    C7    A    
C16   H19   S    
C17   N2    A    
C5    C12   A    
C3    C8    A    
C6    C11   A    
C5    C7    A    
C1    O1    A    
C6    C8    A    
O5    Zn1   S    
C2    O2    A    
C24   C34   A    
C32   C34   A    
C14   H2    S    
C29   H3    S    
C30   H4    S    
C9    C11   A    
C10   C12   A    
C17   O14   S    
C13   C15   A    
C31   C35   A    
C18   N1    A    
C21   O5    A    
O1    Zn1   S    
O7    Zn2   S    
O2    Zn2   S    
O8    Zn1   S    
C13   C20   A    
C26   O12   S    
C14   C19   A    
C27   H10   S    
C16   N1    A    
C11   C12   A    
C25   C27   A    
O3    Zn2   S    
C26   C28   A    
O4    Zn1   S    
C1    C4    S    
C28   C30   A    
C2    C3    S    
O14   H18   S    
C29   C31   A    
C3    C10   A    
C21   O7    A    
C17   C19   A    
C18   C20   A    
C23   C25   A    
O10   H12   S    
O11   H13   S    
C15   H20   S    
N1    Zn1   S    
C8    H15   S    
O12   H14   S    
N2    Zn2   S    
C15   N2    A    
C4    C9    A    
C1    O3    A    
O6    Zn2   S    
