data_mof_unit_14439.cif
_audit_creation_date              2012-12-11T15:33:37-0500
_audit_creation_method            fapswitch 2.2
_symmetry_space_group_name_H-M    P1
_symmetry_Int_Tables_number       1
_space_group_crystal_system       triclinic
_cell_length_a                    26.941168
_cell_length_b                    7.205442
_cell_length_c                    22.735178
_cell_angle_alpha                 90.403403
_cell_angle_beta                  101.373486
_cell_angle_gamma                 90.440681
_cell_volume                      4326.46027238

loop_
_atom_site_label
_atom_site_type_symbol
_atom_type_description
_atom_site_fract_x
_atom_site_fract_y
_atom_site_fract_z
_atom_type_partial_charge
O1    O     O_R   0.207310 0.594030 0.676830 -0.528431
O2    O     O_R   0.792690 0.405970 0.323170 -0.528432
O3    O     O_R   0.292690 0.094030 0.823170 -0.535146
O4    O     O_R   0.707310 0.905970 0.176830 -0.535145
O5    O     O_R   0.197320 0.262370 0.795700 -0.538595
O6    O     O_R   0.802680 0.737630 0.204300 -0.538595
O7    O     O_R   0.302680 0.762370 0.704300 -0.537609
O8    O     O_R   0.697320 0.237630 0.295700 -0.537609
C1    C     C_R   0.184626 0.432193 0.811782 0.714409
C2    C     C_R   0.815374 0.567807 0.188218 0.714408
C3    C     C_R   0.315375 0.932376 0.688260 0.717974
C4    C     C_R   0.684625 0.067624 0.311740 0.717975
O9    O     O_R   0.201410 0.264250 0.675590 -0.529856
O10   O     O_R   0.798590 0.735750 0.324410 -0.529856
O11   O     O_R   0.298590 0.764250 0.824410 -0.528641
O12   O     O_R   0.701410 0.235750 0.175590 -0.528640
O13   O     O_R   0.296810 0.094940 0.702210 -0.538229
O14   O     O_R   0.703190 0.905060 0.297790 -0.538229
O15   O     O_R   0.203190 0.594940 0.797790 -0.537221
O16   O     O_R   0.796810 0.405060 0.202210 -0.537221
C5    C     C_R   0.189753 0.431003 0.653032 0.702489
C6    C     C_R   0.810247 0.568997 0.346967 0.702490
C7    C     C_R   0.310197 0.933455 0.846666 0.703788
C8    C     C_R   0.689803 0.066545 0.153333 0.703787
O17   O     O_3   0.281300 0.427390 0.758870 -0.373594
O18   O     O_3   0.718700 0.572610 0.241130 -0.373594
O19   O     O_3   0.218700 0.927390 0.741130 -0.369390
O20   O     O_3   0.781300 0.072610 0.258870 -0.369390
V1    V     V_3+5 0.244190 0.152150 0.748350 1.463052
V2    V     V_3+5 0.755810 0.847850 0.251650 1.463052
V3    V     V_3+5 0.255810 0.652150 0.751650 1.466641
V4    V     V_3+5 0.744190 0.347850 0.248350 1.466641
C9    C     C_R   0.655342 0.058237 0.094305 -0.086729
C10   C     C_R   0.344658 0.941763 0.905695 -0.086728
C11   C     C_R   0.844979 0.572955 0.406358 -0.088299
C12   C     C_R   0.155022 0.427045 0.593642 -0.088300
C13   C     C_R   0.643892 0.063737 0.985865 0.216480
C14   C     C_R   0.356108 0.936269 0.014134 0.216479
C15   C     C_R   0.867728 0.736116 0.501990 0.230826
C16   C     C_R   0.132272 0.263881 0.498011 0.230826
C17   C     C_R   0.674982 0.079096 0.042661 -0.189107
C18   C     C_R   0.325018 0.920909 0.957339 -0.189107
C19   C     C_R   0.832107 0.684786 0.451132 -0.159147
C20   C     C_R   0.167892 0.315211 0.548868 -0.159145
C21   C     C_R   0.603420 0.027436 0.089301 -0.145520
C22   C     C_R   0.396580 0.972561 0.910698 -0.145521
C23   C     C_R   0.894136 0.502309 0.414541 -0.122315
C24   C     C_R   0.105864 0.497693 0.585458 -0.122315
C25   C     C_R   0.569507 0.035970 0.033101 0.059133
C26   C     C_R   0.430493 0.964028 0.966899 0.059134
C27   C     C_R   0.930200 0.534524 0.468564 0.071012
C28   C     C_R   0.069801 0.465478 0.531435 0.071013
C29   C     C_R   0.590221 0.047449 0.979969 -0.026597
C30   C     C_R   0.409778 0.952552 0.020031 -0.026598
C31   C     C_R   0.917273 0.659180 0.512257 -0.005941
C32   C     C_R   0.082728 0.340820 0.487743 -0.005941
C33   C     C_R   0.515699 0.021704 0.028324 -0.031976
C34   C     C_R   0.484301 0.978293 0.971676 -0.031976
C35   C     C_R   0.980402 0.460060 0.477588 -0.020076
C36   C     C_R   0.019598 0.539942 0.522411 -0.020075
C37   C     C_R   0.507740 0.958044 0.921484 0.110577
C38   C     C_R   0.492260 0.041954 0.078516 0.110578
C39   C     C_R   0.006564 0.685553 0.558400 0.118727
C40   C     C_R   0.993437 0.314449 0.441598 0.118728
C41   C     C_R   0.556727 0.027174 0.923870 0.174215
C42   C     C_R   0.443273 0.972825 0.076129 0.174215
C43   C     C_R   0.955861 0.715806 0.560865 0.178227
C44   C     C_R   0.044140 0.284195 0.439134 0.178227
H1    H     H_    0.409724 0.008610 0.870380 0.142595
H2    H     H_    0.590276 0.991384 0.129619 0.142595
H3    H     H_    0.094866 0.563096 0.623723 0.143042
H4    H     H_    0.905134 0.436908 0.376276 0.143042
H5    H     H_    0.284413 0.905793 0.953299 0.135818
H6    H     H_    0.715587 0.094216 0.046701 0.135818
H7    H     H_    0.204873 0.251118 0.556751 0.138919
H8    H     H_    0.795126 0.748877 0.443249 0.138919
C45   C     C_R   0.614611 0.899011 0.348269 -0.231223
C46   C     C_R   0.385389 0.100989 0.651731 -0.231224
C47   C     C_R   0.885214 0.400954 0.151594 -0.236966
C48   C     C_R   0.114786 0.599046 0.848406 -0.236965
H9    H     H_    0.618493 0.785580 0.318013 0.134260
H10   H     H_    0.381507 0.214420 0.681987 0.134260
H11   H     H_    0.881309 0.288832 0.181907 0.135414
H12   H     H_    0.118691 0.711168 0.818092 0.135413
C49   C     C_R   0.578024 0.886127 0.384864 0.401539
C50   C     C_R   0.421976 0.113872 0.615136 0.401540
C51   C     C_R   0.921724 0.387964 0.114922 0.397651
C52   C     C_R   0.078276 0.612036 0.885078 0.397651
C53   C     C_R   0.572818 0.032894 0.424742 -0.063464
C54   C     C_R   0.427182 0.967106 0.575258 -0.063464
C55   C     C_R   0.926981 0.533008 0.074977 -0.064324
C56   C     C_R   0.073019 0.466992 0.925023 -0.064324
C57   C     C_R   0.604246 0.192073 0.426390 0.142697
C58   C     C_R   0.395754 0.807927 0.573610 0.142697
C59   C     C_R   0.895611 0.690519 0.073272 0.143492
C60   C     C_R   0.104389 0.309480 0.926728 0.143492
C61   C     C_R   0.639461 0.204111 0.388550 -0.176345
C62   C     C_R   0.360539 0.795889 0.611450 -0.176345
C63   C     C_R   0.860466 0.702794 0.111200 -0.181893
C64   C     C_R   0.139534 0.297206 0.888800 -0.181892
H13   H     H_    0.663493 0.326298 0.391158 0.149372
H14   H     H_    0.336507 0.673702 0.608842 0.149372
H15   H     H_    0.836473 0.823609 0.108560 0.148220
H16   H     H_    0.163527 0.176391 0.891440 0.148219
C65   C     C_R   0.645444 0.057626 0.349631 -0.108629
C66   C     C_R   0.354555 0.942373 0.650369 -0.108630
C67   C     C_R   0.854495 0.558048 0.150250 -0.111159
C68   C     C_R   0.145505 0.441952 0.849750 -0.111159
N1    N     N_R   0.503765 0.159375 0.470711 -0.216978
N2    N     N_R   0.496234 0.840625 0.529289 -0.216979
N3    N     N_R   0.996108 0.660873 0.029015 -0.219189
N4    N     N_R   0.003892 0.339127 0.970985 -0.219189
N5    N     N_R   0.469623 0.143317 0.505692 -0.181044
N6    N     N_R   0.530377 0.856683 0.494307 -0.181044
N7    N     N_R   0.030385 0.644703 0.994226 -0.180459
N8    N     N_R   0.969615 0.355297 0.005774 -0.180459
C69   C     C_R   0.464961 0.983346 0.535578 0.574605
C70   C     C_R   0.535039 0.016654 0.464422 0.574605
C71   C     C_R   0.035181 0.483246 0.964627 0.573298
C72   C     C_R   0.964819 0.516754 0.035373 0.573298
I1    I     I_    0.567638 0.153235 0.842450 -0.162822
I2    I     I_    0.432360 0.846763 0.157549 -0.162821
I3    I     I_    0.943456 0.788108 0.648142 -0.187619
I4    I     I_    0.056545 0.211894 0.351857 -0.187618
I5    I     I_    0.686638 0.018190 0.917659 -0.196432
I6    I     I_    0.313361 0.981823 0.082340 -0.196433
I7    I     I_    0.844275 0.974581 0.545134 -0.234284
I8    I     I_    0.155724 0.025411 0.454867 -0.234286
I9    I     I_    0.481823 0.759953 0.850804 -0.321012
I10   I     I_    0.518178 0.240041 0.149197 -0.321013
I11   I     I_    0.057375 0.911605 0.590502 -0.357094
I12   I     I_    0.942625 0.088398 0.409496 -0.357093
O21   O     O_3   0.546365 0.732996 0.381494 -0.597044
H17   H     H_    0.554865 0.643363 0.351768 0.316494
O22   O     O_3   0.453635 0.267004 0.618506 -0.597044
H18   H     H_    0.445135 0.356637 0.648232 0.316494
O23   O     O_3   0.953268 0.236469 0.118294 -0.598656
H19   H     H_    0.944724 0.147855 0.148045 0.314065
O24   O     O_3   0.046732 0.763531 0.881706 -0.598655
H20   H     H_    0.055276 0.852145 0.851955 0.314065
I13   I     I_    0.605015 0.413253 0.488887 -0.199803
I14   I     I_    0.394985 0.586747 0.511114 -0.199804
I15   I     I_    0.894786 0.908267 0.010558 -0.200175
I16   I     I_    0.105214 0.091733 0.989442 -0.200175

loop_
_geom_bond_atom_site_label_1
_geom_bond_atom_site_label_2
_ccdc_geom_bond_type
O17   V3    S    
C63   H15   S    
O1    C5    A    
C51   C55   A    
O19   V1    S    
C9    C21   A    
C38   I10   S    
O3    C7    A    
C10   C18   A    
C64   H16   S    
C48   H12   S    
O15   V3    S    
C44   I4    S    
C47   C51   A    
C25   C33   A    
C33   C38   A    
C5    C12   S    
C1    C68   S    
O7    C3    A    
C6    C11   S    
C35   C40   A    
C26   C30   A    
C36   C39   A    
C40   C44   A    
O9    V1    S    
C56   C71   S    
O10   V2    S    
C14   C18   A    
C4    C65   S    
O4    C8    A    
C59   C63   A    
C58   C62   A    
C16   I8    S    
O1    V3    S    
O13   V1    S    
O2    V4    S    
O3    V1    S    
C22   H1    S    
C28   C36   A    
C17   H6    S    
C1    O15   A    
C15   C31   A    
C40   I12   S    
C2    O16   A    
C16   C32   A    
O2    C6    A    
C42   I2    S    
C10   C22   A    
C39   I11   S    
C11   C19   A    
N2    N6    A    
C16   C20   A    
O5    V1    S    
N1    N5    A    
C13   C29   A    
C46   C50   A    
C34   C37   A    
O11   C7    A    
C11   C23   A    
C35   C36   A    
O12   C8    A    
C53   C57   A    
C2    C67   S    
C51   O23   S    
N2    C69   A    
C14   I6    S    
N1    C70   A    
C54   C58   A    
C13   I5    S    
C56   C60   A    
C39   C43   A    
C64   C68   A    
O7    V3    S    
C38   C42   A    
C47   C67   A    
C26   C34   A    
C54   C69   S    
C52   C56   A    
O22   H18   S    
C15   I7    S    
C50   C54   A    
C49   C53   A    
O18   V4    S    
C15   C19   A    
C32   C44   A    
C55   C59   A    
N8    C72   A    
N3    C72   A    
C58   I14   S    
C20   H7    S    
C52   O24   S    
O5    C1    A    
C60   I16   S    
C46   H10   S    
C31   C43   A    
C14   C30   A    
C45   H9    S    
O8    C4    A    
C7    C10   S    
C29   C41   A    
C3    C66   S    
C21   C25   A    
O9    C5    A    
N6    C70   A    
N5    C69   A    
O6    V2    S    
C41   I1    S    
O21   H17   S    
C12   C20   A    
C27   C35   A    
C24   H3    S    
C57   C61   A    
N4    N8    A    
C57   I13   S    
O16   V4    S    
C19   H8    S    
C48   C68   A    
C3    O13   A    
C18   H5    S    
C21   H2    S    
C59   I15   S    
C43   I3    S    
O6    C2    A    
N4    C71   A    
C23   C27   A    
O24   H20   S    
O11   V3    S    
C30   C42   A    
C37   I9    S    
O12   V4    S    
C63   C67   A    
O23   H19   S    
C22   C26   A    
N7    C71   A    
C8    C9    S    
C62   C66   A    
C46   C66   A    
C9    C17   A    
O10   C6    A    
O20   V2    S    
C61   C65   A    
C48   C52   A    
C62   H14   S    
C47   H11   S    
C33   C34   A    
O8    V4    S    
C25   C29   A    
C60   C64   A    
C45   C65   A    
C12   C24   A    
C27   C31   A    
C13   C17   A    
C61   H13   S    
C23   H4    S    
O14   V2    S    
C45   C49   A    
C37   C41   A    
C50   O22   S    
C24   C28   A    
C53   C70   S    
C4    O14   A    
C55   C72   S    
N3    N7    A    
O4    V2    S    
C28   C32   A    
C49   O21   S    
