data_mof_unit_8554.cif
_audit_creation_date              2012-12-10T20:41:55-0500
_audit_creation_method            fapswitch 2.2
_symmetry_space_group_name_H-M    P1
_symmetry_Int_Tables_number       1
_space_group_crystal_system       triclinic
_cell_length_a                    15.104695
_cell_length_b                    15.20069
_cell_length_c                    9.870615
_cell_angle_alpha                 89.975713
_cell_angle_beta                  89.281437
_cell_angle_gamma                 89.861228
_cell_volume                      2266.12578815

loop_
_atom_site_label
_atom_site_type_symbol
_atom_type_description
_atom_site_fract_x
_atom_site_fract_y
_atom_site_fract_z
_atom_type_partial_charge
C1    C     C_R   0.379356 0.880556 0.500419 0.918987
C2    C     C_R   0.923398 0.514441 0.072973 0.183714
C3    C     C_R   0.576961 0.994903 0.070374 0.660661
C4    C     C_R   0.076961 0.494903 0.070374 0.660661
C5    C     C_R   0.576902 0.995078 0.926366 -0.223504
C6    C     C_R   0.076902 0.495078 0.926366 -0.223519
C7    C     C_R   0.423457 0.013946 0.930640 0.330691
C8    C     C_R   0.923457 0.513947 0.930640 0.330680
C9    C     C_3   0.342474 0.959052 0.927450 -0.488012
C10   C     C_3   0.842472 0.459056 0.927450 -0.487913
C11   C     C_3   0.341769 0.959995 0.081085 -0.490549
C12   C     C_R   0.380973 0.120968 0.500629 0.915574
C13   C     C_3   0.841768 0.459997 0.081086 -0.490696
C14   C     C_R   0.621889 0.117698 0.499512 0.867232
C15   C     C_R   0.618831 0.879126 0.499566 0.890316
C16   C     C_R   0.121891 0.617695 0.499512 0.867258
C17   C     C_R   0.118831 0.379126 0.499566 0.890346
C18   C     C_R   0.291840 0.230133 0.620770 0.132661
C19   C     C_R   0.264471 0.795837 0.615835 -0.019368
C20   C     C_R   0.791844 0.730136 0.620768 0.132743
C21   C     C_R   0.764464 0.295846 0.615829 -0.019330
C22   C     C_R   0.310585 0.182734 0.502629 -0.123031
C23   C     C_R   0.879358 0.380555 0.500419 0.918826
C24   C     C_R   0.317015 0.810721 0.501073 -0.016615
C25   C     C_R   0.810586 0.682734 0.502629 -0.123022
C26   C     C_R   0.817021 0.310717 0.501077 -0.016732
C27   C     C_R   0.255167 0.189479 0.389790 -0.117373
C28   C     C_R   0.314000 0.752456 0.390695 -0.187575
C29   C     C_R   0.755166 0.689477 0.389792 -0.117623
C30   C     C_R   0.814012 0.252445 0.390709 -0.187638
C31   C     C_R   0.689112 0.752571 0.389012 -0.159496
C32   C     C_R   0.751361 0.185938 0.390233 -0.153683
C33   C     C_R   0.189113 0.252573 0.389010 -0.159662
C34   C     C_R   0.880973 0.620968 0.500628 0.915474
C35   C     C_R   0.251354 0.685945 0.390221 -0.153642
C36   C     C_R   0.679480 0.808190 0.500917 -0.101368
C37   C     C_R   0.693479 0.177642 0.501160 -0.040518
C38   C     C_R   0.179478 0.308189 0.500917 -0.101357
C39   C     C_R   0.193486 0.677635 0.501161 -0.040532
C40   C     C_R   0.727284 0.793227 0.617860 0.073437
C41   C     C_R   0.705031 0.228175 0.616525 0.034028
C42   C     C_R   0.227279 0.293222 0.617862 0.073426
C43   C     C_R   0.205047 0.728158 0.616536 0.034009
C44   C     C_3   0.778608 0.857701 0.698446 -0.476477
C45   C     C_3   0.350775 0.288193 0.704248 0.198246
C46   C     C_3   0.636402 0.277481 0.694818 -0.481713
C47   C     C_3   0.278601 0.357695 0.698456 -0.476440
C48   C     C_3   0.136422 0.777447 0.694863 -0.481677
C49   C     C_3   0.199802 0.854116 0.691615 0.324564
C50   C     C_3   0.850781 0.788198 0.704239 0.198240
C51   C     C_3   0.699796 0.354138 0.691584 0.324415
C52   C     C_R   0.423398 0.014440 0.072973 0.183693
F1    F     F_    0.654733 0.987723 0.136451 -0.638422
F2    F     F_    0.154734 0.487723 0.136451 -0.638406
H1    H     H_    0.264721 0.148433 0.301035 0.179420
H2    H     H_    0.746029 0.143687 0.302354 0.199000
H3    H     H_    0.148687 0.260259 0.299854 0.183840
H4    H     H_    0.246015 0.643703 0.302333 0.199008
H5    H     H_    0.798140 0.916667 0.638464 0.181080
H6    H     H_    0.627311 0.249674 0.798107 0.209311
H7    H     H_    0.298132 0.416664 0.638478 0.181103
H8    H     H_    0.127353 0.749631 0.798151 0.209302
H9    H     H_    0.744735 0.872551 0.796337 0.247136
H10   H     H_    0.574369 0.287113 0.637126 0.220846
H11   H     H_    0.244725 0.372541 0.796346 0.247127
H12   H     H_    0.357714 0.760019 0.303635 0.156813
H13   H     H_    0.074378 0.787073 0.637197 0.220830
H14   H     H_    0.412949 0.307631 0.650912 0.090554
H15   H     H_    0.220571 0.871531 0.794790 0.080594
H16   H     H_    0.912956 0.807632 0.650901 0.090541
H17   H     H_    0.720556 0.371553 0.794764 0.080637
H18   H     H_    0.638779 0.989696 0.870707 0.180902
H19   H     H_    0.138779 0.489696 0.870707 0.180905
H20   H     H_    0.285994 0.995604 0.883208 0.262913
H21   H     H_    0.356294 0.892804 0.884373 0.195706
H22   H     H_    0.785993 0.495611 0.883213 0.262920
H23   H     H_    0.764716 0.648428 0.301039 0.179339
H24   H     H_    0.856287 0.392807 0.884371 0.195701
H25   H     H_    0.482584 0.179767 0.798404 0.348716
H26   H     H_    0.144930 0.976452 0.384059 0.378117
H27   H     H_    0.982587 0.679766 0.798400 0.348720
H28   H     H_    0.645740 0.476572 0.383911 0.377924
H29   H     H_    0.857734 0.259999 0.303657 0.156819
H30   H     H_    0.284907 0.997047 0.125540 0.230572
H31   H     H_    0.353485 0.894046 0.126227 0.215338
H32   H     H_    0.784907 0.497049 0.125543 0.230471
H33   H     H_    0.853484 0.394047 0.126227 0.215351
H34   H     H_    0.648683 0.760255 0.299858 0.183839
N1    N     N_R   0.499140 0.000000 0.142800 -0.179233
N2    N     N_R   0.999140 0.500000 0.142800 -0.179228
N3    N     N_R   0.499160 0.000000 0.857150 -0.165678
N4    N     N_R   0.999160 0.500000 0.857150 -0.165681
O1    O     O_R   0.408400 0.908380 0.614690 -0.618887
O2    O     O_R   0.591610 0.908390 0.614650 -0.622105
O3    O     O_R   0.091610 0.591610 0.614650 -0.643981
O4    O     O_R   0.091610 0.408390 0.614650 -0.622111
O5    O     O_R   0.591590 0.091600 0.385310 -0.574612
O6    O     O_R   0.591590 0.908400 0.385310 -0.577915
O7    O     O_R   0.091590 0.591600 0.385310 -0.574611
O8    O     O_R   0.091590 0.408400 0.385310 -0.577898
O9    O     O_2   0.359365 0.324106 0.971728 -0.218238
O10   O     O_2   0.298354 0.180819 0.909913 -0.287452
O11   O     O_3   0.468506 0.204743 0.888531 -0.553015
O12   O     O_R   0.408400 0.091620 0.614690 -0.605663
O13   O     O_2   0.068065 0.970517 0.650277 -0.263733
O14   O     O_2   0.219896 0.021756 0.613801 -0.330518
O15   O     O_3   0.151134 0.919407 0.431589 -0.554353
O16   O     O_2   0.859377 0.824117 0.971719 -0.218266
O17   O     O_2   0.798361 0.680830 0.909915 -0.287431
O18   O     O_3   0.968513 0.704749 0.888524 -0.553018
O19   O     O_2   0.568051 0.470513 0.650094 -0.263391
O20   O     O_2   0.719893 0.521797 0.613899 -0.330768
O21   O     O_3   0.651280 0.419478 0.431510 -0.554166
O22   O     O_R   0.908400 0.408380 0.614690 -0.618849
O23   O     O_R   0.908400 0.591620 0.614690 -0.605632
O24   O     O_R   0.408370 0.908370 0.385350 -0.638751
O25   O     O_R   0.408370 0.091630 0.385350 -0.612734
O26   O     O_R   0.908370 0.408370 0.385350 -0.638792
O27   O     O_R   0.908370 0.591630 0.385350 -0.612773
O28   O     O_R   0.591610 0.091610 0.614650 -0.643981
S1    S     S_3+6 0.366990 0.248622 0.873917 0.057695
S2    S     S_3+6 0.158239 0.945517 0.596708 0.015503
S3    S     S_3+6 0.866998 0.748630 0.873911 0.057701
S4    S     S_3+6 0.658267 0.445546 0.596659 0.015620
Zn1   Zn    Zn3+2 0.500010 0.000000 0.653130 0.973323
Zn2   Zn    Zn3+2 0.000010 0.500000 0.653130 0.973315
Zn3   Zn    Zn3+2 0.499980 0.000000 0.346870 1.027494
Zn4   Zn    Zn3+2 0.999980 0.500000 0.346870 1.027429

loop_
_geom_bond_atom_site_label_1
_geom_bond_atom_site_label_2
_ccdc_geom_bond_type
C21   C26   A    
C28   H12   S    
O5    Zn3   S    
H25   O11   S    
C23   O26   A    
C10   H24   S    
C27   C33   A    
H26   O15   S    
O23   Zn2   S    
O26   Zn4   S    
C6    H19   S    
C35   H4    S    
C7    C52   A    
C12   O12   A    
C5    H18   S    
C18   C42   A    
C20   C40   A    
C27   H1    S    
C20   C25   A    
C44   H5    S    
C12   C22   S    
C23   C26   S    
C30   H29   S    
C2    N2    A    
C2    C13   S    
C20   C50   S    
C11   C52   S    
C10   H22   S    
O12   Zn1   S    
C28   C35   A    
O24   Zn3   S    
C13   H32   S    
C41   C46   S    
C8    N4    A    
C1    O24   A    
O10   S1    D    
C43   C48   S    
C6    N4    A    
C25   C34   S    
C17   C38   S    
C4    F2    S    
O27   Zn4   S    
C49   H15   S    
C51   S4    S    
O14   S2    D    
C52   N1    A    
C51   H17   S    
C15   O2    A    
C19   C43   A    
C4    N2    A    
C45   C47   S    
C44   H9    S    
C25   C29   A    
C36   C40   A    
C4    C6    A    
O28   Zn1   S    
O17   S3    D    
C39   C43   A    
C45   S1    S    
C34   O23   A    
C46   C51   S    
O9    S1    D    
C46   H10   S    
C35   C39   A    
O18   S3    S    
C9    C11   S    
C19   C49   S    
C48   H8    S    
C7    N3    A    
C13   H33   S    
C45   H14   S    
O4    Zn2   S    
C17   O4    A    
C32   C37   A    
O25   Zn3   S    
C5    N3    A    
C21   C41   A    
C1    O1    A    
O6    Zn3   S    
C26   C30   A    
C14   O28   A    
C22   C27   A    
C9    H20   S    
C15   O6    A    
O11   S1    S    
C18   C45   S    
C15   C36   S    
C21   C51   S    
C14   O5    A    
N1    Zn3   S    
O2    Zn1   S    
C44   C50   S    
C34   O27   A    
C7    C9    S    
C48   C49   S    
C16   O3    A    
C33   H3    S    
C31   H34   S    
N3    Zn1   S    
C46   H6    S    
O19   S4    D    
O8    Zn4   S    
C2    C8    A    
C50   S3    S    
C24   C28   A    
H28   O21   S    
C3    C5    A    
C10   C13   S    
N4    Zn2   S    
C47   H7    S    
C16   O7    A    
O20   S4    D    
O7    Zn4   S    
C11   H30   S    
C9    H21   S    
C33   C38   A    
C3    N1    A    
C18   C22   A    
C19   C24   A    
C50   H16   S    
C29   C31   A    
C14   C37   S    
C30   C32   A    
C3    F1    S    
O3    Zn2   S    
O21   S4    S    
C11   H31   S    
O22   Zn2   S    
C49   S2    S    
C32   H2    S    
O13   S2    D    
C42   C47   S    
C48   H13   S    
C37   C41   A    
C17   O8    A    
O1    Zn1   S    
C16   C39   S    
C12   O25   A    
C38   C42   A    
C40   C44   S    
C29   H23   S    
H27   O18   S    
C1    C24   S    
C8    C10   S    
N2    Zn4   S    
C31   C36   A    
O16   S3    D    
O15   S2    S    
C47   H11   S    
C23   O22   A    
