data_mof_unit_5479.cif
_audit_creation_date              2012-12-11T16:18:03-0500
_audit_creation_method            fapswitch 2.2
_symmetry_space_group_name_H-M    P1
_symmetry_Int_Tables_number       1
_space_group_crystal_system       triclinic
_cell_length_a                    14.039741
_cell_length_b                    14.050929
_cell_length_c                    30.127757
_cell_angle_alpha                 97.14703
_cell_angle_beta                  97.088933
_cell_angle_gamma                 61.286418
_cell_volume                      5158.15772901

loop_
_atom_site_label
_atom_site_type_symbol
_atom_type_description
_atom_site_fract_x
_atom_site_fract_y
_atom_site_fract_z
_atom_type_partial_charge
C1    C     C_R   0.386122 0.709909 0.441999 0.540634
C2    C     C_R   0.789702 0.267090 0.376089 0.077952
C3    C     C_R   0.813360 0.249437 0.331173 -0.109764
C4    C     C_R   0.398893 0.381239 0.426463 0.545024
C5    C     C_R   0.811073 0.332214 0.309133 0.004291
C6    C     C_R   0.796007 0.430307 0.332853 0.271082
C7    C     C_R   0.770227 0.449368 0.377363 -0.123916
C8    C     C_R   0.827056 0.400713 0.157720 -0.111390
C9    C     C_R   0.856884 0.391636 0.114368 -0.125977
C10   C     C_R   0.887597 0.205094 0.104829 -0.125851
C11   C     C_R   0.857954 0.214373 0.148249 -0.115671
C12   C     C_R   0.319532 0.245653 0.223283 -0.085476
C13   C     C_R   0.831525 0.310865 0.175113 0.036776
C14   C     C_1   0.821859 0.314236 0.221900 -0.018284
C15   C     C_1   0.817233 0.319757 0.261627 -0.002103
C16   C     C_R   0.709518 0.405706 0.442096 0.541460
C17   C     C_R   0.892104 0.292130 0.088277 0.019588
C18   C     C_R   0.367024 0.763216 0.400445 0.019212
C19   C     C_R   0.454010 0.765876 0.382903 -0.124547
C20   C     C_R   0.446014 0.787706 0.338393 -0.108071
C21   C     C_R   0.350898 0.808129 0.311419 0.041085
C22   C     C_R   0.260824 0.814732 0.329502 -0.113847
C23   C     C_R   0.331366 0.252727 0.270185 0.285134
C24   C     C_R   0.268592 0.792715 0.373977 -0.125333
C25   C     C_R   0.268573 0.807092 0.147762 0.110271
C26   C     C_R   0.250049 0.838128 0.103613 0.106326
C27   C     C_R   0.381423 0.907491 0.120667 0.048645
C28   C     C_R   0.389564 0.711756 0.568222 0.543462
C29   C     C_R   0.399919 0.874625 0.164038 -0.142823
C30   C     C_R   0.340341 0.830120 0.178165 0.008796
C31   C     C_1   0.346068 0.818953 0.224963 -0.029979
C32   C     C_1   0.348488 0.814103 0.264465 -0.029823
C33   C     C_R   0.301363 0.894964 0.090537 0.062344
C34   C     C_R   0.327253 0.347872 0.293239 0.028538
C35   C     C_R   0.366245 0.364982 0.593830 0.017555
C36   C     C_R   0.434996 0.271275 0.617271 0.062657
C37   C     C_R   0.423586 0.271559 0.662943 0.237980
C38   C     C_R   0.336673 0.359949 0.683855 -0.003961
C39   C     C_R   0.259334 0.446850 0.659349 0.052515
C40   C     C_R   0.401893 0.383057 0.552556 0.581333
C41   C     C_R   0.273654 0.449602 0.614339 0.086258
C42   C     C_R   0.222840 0.416550 0.837185 -0.116497
C43   C     C_R   0.212096 0.394985 0.879649 -0.124026
C44   C     C_R   0.396819 0.245595 0.880994 -0.127553
C45   C     C_R   0.308361 0.330530 0.199520 -0.009642
C46   C     C_R   0.407380 0.267551 0.838587 -0.114975
C47   C     C_R   0.319064 0.350389 0.816167 0.033612
C48   C     C_1   0.323097 0.358564 0.769893 -0.034582
C49   C     C_1   0.327645 0.360649 0.730663 -0.011346
C50   C     C_R   0.297383 0.306190 0.901037 0.019832
C51   C     C_1   0.762520 0.376136 0.612434 -0.010795
C52   C     C_R   0.713054 0.407746 0.568530 0.542057
C53   C     C_R   0.740908 0.401200 0.728021 -0.179047
C54   C     C_R   0.761929 0.384053 0.773533 -0.156950
C55   C     C_R   0.938326 0.228006 0.758660 0.118260
C56   C     C_1   0.299055 0.319638 0.151481 -0.058001
C57   C     C_R   0.917553 0.247879 0.712726 0.300724
C58   C     C_R   0.818239 0.334060 0.697590 0.010473
C59   C     C_R   0.860023 0.298571 0.789264 0.003669
C60   C     C_1   0.881580 0.289263 0.836982 -0.060035
C61   C     C_1   0.792610 0.354396 0.650803 -0.026761
C62   C     C_1   0.907535 0.281129 0.876508 -0.018691
C63   C     C_1   0.374972 0.759507 0.613394 -0.017504
C64   C     C_1   0.365624 0.364618 0.380813 -0.017028
C65   C     C_R   0.340145 0.738481 0.724075 -0.107742
C66   C     C_R   0.329050 0.758599 0.770255 -0.111626
C67   C     C_1   0.344770 0.355695 0.341152 -0.043790
C68   C     C_R   0.343696 0.923357 0.768995 -0.093256
C69   C     C_R   0.355133 0.903044 0.722774 -0.103794
C70   C     C_R   0.352765 0.810801 0.700195 0.036848
C71   C     C_R   0.330722 0.851112 0.792826 0.036200
C72   C     C_1   0.312715 0.876003 0.839817 -0.059738
C73   C     C_1   0.364348 0.787840 0.652701 -0.062925
C74   C     C_1   0.292769 0.904326 0.878494 -0.014005
C75   C     C_R   0.950320 0.273134 0.048031 0.540951
C76   C     C_R   0.314149 0.433404 0.269350 -0.160893
C77   C     C_R   0.275215 0.270046 0.065493 0.545986
C78   C     C_1   0.289793 0.302389 0.111534 -0.010957
C79   C     C_R   0.261133 0.953715 0.048964 0.581376
C80   C     C_R   0.952452 0.268975 0.922029 0.544968
C81   C     C_R   0.276713 0.266671 0.939849 0.539902
C82   C     C_R   0.261312 0.951260 0.922747 0.544652
C83   C     C_R   0.304966 0.424693 0.222533 -0.124515
C84   C     C_3   0.579566 0.199311 0.708639 0.007888
C85   C     C_3   0.659565 0.098145 0.732783 -0.256239
C86   C     C_3   0.754799 0.111432 0.757182 -0.477511
C87   C     C_3   0.069957 0.212752 0.680264 0.018330
C88   C     C_3   0.149756 0.137930 0.645613 -0.263452
C89   C     C_R   0.762272 0.370614 0.399154 -0.020575
C90   C     C_3   0.239780 0.168170 0.643340 -0.473931
C91   C     C_3   0.451604 0.100246 0.306054 0.015765
C92   C     C_3   0.498187 0.999752 0.272941 -0.275499
C93   C     C_3   0.614725 0.919245 0.287979 -0.482547
C94   C     C_3   0.898739 0.493361 0.305404 0.009530
C95   C     C_3   0.940459 0.546431 0.344968 -0.275213
C96   C     C_3   0.054348 0.527876 0.338447 -0.471806
Cr1   Cr    Cr6+3 0.581000 0.584320 0.508140 1.020730
Cr2   Cr    Cr6+3 0.339110 0.576430 0.496080 1.037001
Cr3   Cr    Cr6+3 0.579910 0.339270 0.495810 1.025406
Cr4   Cr    Cr6+3 0.082090 0.079210 0.982490 1.031161
Cr5   Cr    Cr6+3 0.082460 0.324610 0.994920 1.022852
Cr6   Cr    Cr6+3 0.323630 0.087860 0.996130 1.042388
H1    H     H_    0.312477 0.506263 0.286958 0.124143
H2    H     H_    0.515792 0.783004 0.324428 0.123579
H3    H     H_    0.134644 0.443254 0.894309 0.133992
H4    H     H_    0.154245 0.480829 0.819816 0.110332
H5    H     H_    0.482180 0.216202 0.822308 0.109662
H6    H     H_    0.464031 0.177107 0.896767 0.132101
H7    H     H_    0.664116 0.467634 0.716524 0.126082
H8    H     H_    0.320311 0.173388 0.205425 0.116321
H9    H     H_    0.701713 0.438367 0.796633 0.128003
H10   H     H_    0.338438 0.666706 0.706925 0.111019
H11   H     H_    0.318066 0.702779 0.788211 0.108919
H12   H     H_    0.861536 0.144548 0.161653 0.110405
H13   H     H_    0.344003 0.995802 0.786079 0.121182
H14   H     H_    0.365379 0.959174 0.704730 0.114699
H15   H     H_    0.859103 0.460118 0.102465 0.132567
H16   H     H_    0.806541 0.475720 0.178521 0.117238
H17   H     H_    0.750280 0.529029 0.393888 0.144980
H18   H     H_    0.100482 0.851736 0.085501 0.248945
H19   H     H_    0.205685 0.730382 0.069507 0.245737
H20   H     H_    0.268204 0.681364 0.173859 0.231172
H21   H     H_    0.163415 0.805083 0.187580 0.231274
H22   H     H_    0.423705 0.027764 0.130809 0.225994
H23   H     H_    0.914094 0.127451 0.085501 0.132789
H24   H     H_    0.523418 0.905168 0.112717 0.222076
H25   H     H_    0.195381 0.571032 0.707080 0.230997
H26   H     H_    0.122868 0.502710 0.692267 0.232772
H27   H     H_    0.190953 0.611390 0.606316 0.260268
H28   H     H_    0.118789 0.543335 0.589793 0.243864
H29   H     H_    0.593429 0.160234 0.610262 0.244137
H30   H     H_    0.504167 0.110054 0.598412 0.247801
H31   H     H_    0.547840 0.270120 0.733970 0.136439
H32   H     H_    0.623912 0.214537 0.684486 0.131331
H33   H     H_    0.616552 0.083110 0.757487 0.167661
H34   H     H_    0.828588 0.172537 0.312883 0.135796
H35   H     H_    0.691450 0.026465 0.707964 0.177805
H36   H     H_    0.800274 0.123974 0.732836 0.167045
H37   H     H_    0.811141 0.036911 0.774502 0.150530
H38   H     H_    0.724893 0.181909 0.782581 0.154602
H39   H     H_    0.048040 0.131366 0.807432 0.231461
H40   H     H_    0.036971 0.065801 0.758404 0.249970
H41   H     H_    0.116261 0.208384 0.713448 0.164544
H42   H     H_    0.030644 0.297789 0.669998 0.126162
H43   H     H_    0.186948 0.052331 0.654585 0.183504
H44   H     H_    0.105120 0.143994 0.612058 0.176685
H45   H     H_    0.186661 0.831384 0.308649 0.108462
H46   H     H_    0.204444 0.252687 0.633309 0.156306
H47   H     H_    0.296748 0.112005 0.618149 0.157620
H48   H     H_    0.286240 0.161407 0.676468 0.176696
H49   H     H_    0.455272 0.073428 0.339684 0.161413
H50   H     H_    0.503760 0.141206 0.309576 0.124083
H51   H     H_    0.446551 0.959008 0.270251 0.182674
H52   H     H_    0.497515 0.024903 0.239331 0.147708
H53   H     H_    0.668550 0.957367 0.289558 0.152423
H54   H     H_    0.645247 0.846701 0.263614 0.153108
H55   H     H_    0.617784 0.892438 0.321526 0.148191
H56   H     H_    0.200179 0.791688 0.386626 0.132180
H57   H     H_    0.895172 0.530499 0.274356 0.150869
H58   H     H_    0.957729 0.404986 0.300261 0.134873
H59   H     H_    0.883968 0.635323 0.348271 0.170315
H60   H     H_    0.943317 0.511272 0.376466 0.161977
H61   H     H_    0.111938 0.439335 0.335851 0.171896
H62   H     H_    0.082792 0.566760 0.367599 0.154918
H63   H     H_    0.053783 0.563793 0.307522 0.148866
H64   H     H_    0.835547 0.170050 0.427636 0.240869
H65   H     H_    0.711221 0.197950 0.400815 0.262752
H66   H     H_    0.530863 0.743499 0.402450 0.129819
H67   H     H_    0.457321 0.889316 0.187480 0.109839
H68   H     H_    0.295638 0.490891 0.204366 0.122679
N1    N     N_3   0.176896 0.814548 0.072427 -0.594668
N2    N     N_3   0.211033 0.755803 0.161502 -0.648175
N3    N     N_3   0.440148 0.959184 0.108577 -0.585787
N4    N     N_3   0.167101 0.534819 0.679989 -0.643218
N5    N     N_3   0.194928 0.539719 0.589762 -0.579549
N6    N     N_3   0.516987 0.176031 0.594834 -0.585526
N7    N     N_3   0.039109 0.136473 0.772790 -0.621621
N8    N     N_3   0.791121 0.179565 0.396507 -0.634438
O1    O     O_R   0.688580 0.499770 0.460490 -0.522696
O2    O     O_R   0.346150 0.177650 0.050510 -0.495307
O3    O     O_R   0.314200 0.996600 0.036060 -0.463073
O4    O     O_R   0.480400 0.672610 0.462660 -0.503553
O5    O     O_R   0.168690 0.969990 0.933130 -0.506156
O6    O     O_R   0.991920 0.175870 0.937430 -0.495936
O7    O     O_R   0.974010 0.342590 0.941330 -0.507651
O8    O     O_R   0.182630 0.317940 0.955040 -0.503602
O9    O     O_R   0.347320 0.174720 0.953250 -0.516779
O10   O     O_R   0.315290 0.993890 0.945900 -0.495835
O11   O     O_3   0.162730 0.163890 0.991180 -0.252122
O12   O     O_R   0.348600 0.476260 0.536540 -0.468170
O13   O     O_R   0.315310 0.685650 0.451800 -0.516774
O14   O     O_R   0.346220 0.474990 0.446280 -0.495867
O15   O     O_R   0.492270 0.312460 0.441630 -0.517524
O16   O     O_R   0.669740 0.350480 0.455640 -0.502930
O17   O     O_R   0.691150 0.501150 0.557860 -0.505381
O18   O     O_R   0.482790 0.673890 0.552920 -0.493095
O19   O     O_R   0.317880 0.687030 0.549170 -0.502109
O20   O     O_3   0.494086 0.181697 0.686297 -0.576226
O21   O     O_3   0.991293 0.178299 0.682181 -0.559678
O22   O     O_3   0.340698 0.168960 0.293172 -0.571017
O23   O     O_R   0.494840 0.313840 0.539010 -0.480534
O24   O     O_3   0.791831 0.514018 0.311410 -0.574585
O25   O     O_R   0.672120 0.351750 0.545910 -0.493937
O26   O     O_3   0.500010 0.500010 0.500010 -0.250494
O27   O     O_R   0.167510 0.972920 0.030390 -0.488477
O28   O     O_R   0.990840 0.178580 0.027590 -0.504692
O29   O     O_R   0.972840 0.345510 0.038590 -0.514788
O30   O     O_R   0.181550 0.320660 0.045200 -0.494364

loop_
_geom_bond_atom_site_label_1
_geom_bond_atom_site_label_2
_ccdc_geom_bond_type
C87   C88   S    
C69   H14   S    
C94   H57   S    
C66   H11   S    
C55   C59   A    
Cr3   O26   S    
C27   C29   A    
Cr6   O2    S    
C4    O14   A    
C95   C96   S    
C51   C61   T    
C87   O21   S    
C90   H48   S    
C27   N3    S    
C12   H8    S    
C8    H16   S    
Cr1   O4    S    
C39   C41   A    
C38   C49   S    
C77   C78   S    
C27   C33   A    
Cr3   O16   S    
C84   H32   S    
C1    C18   S    
C29   C30   A    
H39   N7    S    
Cr1   O18   S    
C62   C80   S    
C36   C37   A    
C6    O24   S    
Cr5   O11   S    
C69   C70   A    
C90   H47   S    
H30   N6    S    
C5    C6    A    
C75   O28   A    
C24   H56   S    
Cr1   O1    S    
H40   N7    S    
C10   C17   A    
C53   H7    S    
C65   C70   A    
C7    C89   A    
C83   H68   S    
H29   N6    S    
Cr6   O11   S    
C56   C78   T    
C60   C62   T    
C18   C19   A    
C43   H3    S    
Cr4   O5    S    
C11   H12   S    
C90   H46   S    
Cr5   O29   S    
C75   O29   A    
C19   C20   A    
C45   C56   S    
C8    C9    A    
C47   C48   S    
C88   H43   S    
C92   H51   S    
C94   O24   S    
C87   H42   S    
C10   H23   S    
H21   N2    S    
C16   O1    A    
C86   H38   S    
C76   H1    S    
C41   N5    S    
C59   C60   S    
C13   C14   S    
C57   O21   S    
C55   N7    S    
C9    C17   A    
C45   C83   A    
C52   O17   A    
C74   C82   S    
C39   N4    S    
Cr5   O7    S    
C76   C83   A    
C44   C46   A    
C54   C59   A    
C44   H6    S    
C4    O15   A    
C21   C32   S    
C84   H31   S    
C77   O2    A    
C51   C52   S    
C64   C67   T    
C7    H17   S    
C93   H53   S    
C84   C85   S    
C72   C74   T    
C80   O7    A    
C10   C11   A    
C77   O30   A    
C91   C92   S    
Cr4   O28   S    
Cr2   O12   S    
C68   C69   A    
H22   N3    S    
C63   C73   T    
C84   O20   S    
C25   C26   A    
C79   O27   A    
C82   O5    A    
Cr6   O10   S    
C79   O3    A    
C82   O10   A    
C35   C36   A    
C2    C89   A    
C66   C71   A    
C37   C38   A    
Cr5   O30   S    
C26   C33   A    
C31   C32   T    
C12   C23   A    
C30   C31   S    
Cr4   O27   S    
C23   C34   A    
C46   H5    S    
C20   C21   A    
C70   C73   S    
C43   C50   A    
C37   O20   S    
C22   H45   S    
C93   H55   S    
C42   H4    S    
C85   C86   S    
H24   N3    S    
C86   H37   S    
C85   H33   S    
H64   N8    S    
C91   O22   S    
C1    O13   A    
C25   N2    S    
Cr2   O14   S    
C48   C49   T    
H19   N1    S    
C88   C90   S    
C26   N1    S    
C36   N6    S    
H20   N2    S    
C55   C57   A    
Cr4   O11   S    
C18   C24   A    
C95   H60   S    
C42   C43   A    
C65   H10   S    
Cr5   O8    S    
C85   H35   S    
C81   O8    A    
C3    H34   S    
Cr4   O6    S    
C44   C50   A    
C25   C30   A    
C4    C64   S    
C46   C47   A    
C94   H58   S    
Cr2   O19   S    
Cr3   O25   S    
C96   H63   S    
Cr6   O3    S    
C58   C61   S    
C93   H54   S    
C33   C79   S    
Cr6   O9    S    
Cr2   O13   S    
C3    C5    A    
C34   C67   S    
C1    O4    A    
H18   N1    S    
C53   C54   A    
C6    C7    A    
C12   C45   A    
H28   N5    S    
C2    N8    S    
Cr3   O15   S    
H26   N4    S    
C28   O19   A    
C96   H61   S    
C52   O25   A    
C29   H67   S    
Cr1   O17   S    
C95   H59   S    
C35   C40   S    
C71   C72   S    
C91   H49   S    
C11   C13   A    
C57   C58   A    
C38   C39   A    
H25   N4    S    
C68   C71   A    
C23   O22   S    
C92   C93   S    
C28   O18   A    
C54   H9    S    
C2    C3    A    
C22   C24   A    
C42   C47   A    
C80   O6    A    
C8    C13   A    
C94   C95   S    
C35   C41   A    
C5    C15   S    
C16   O16   A    
C20   H2    S    
C86   H36   S    
C68   H13   S    
C28   C63   S    
C96   H62   S    
C16   C89   S    
H65   N8    S    
C40   O12   A    
C40   O23   A    
C65   C66   A    
C19   H66   S    
Cr2   O26   S    
C17   C75   S    
C88   H44   S    
C14   C15   T    
H27   N5    S    
C92   H52   S    
Cr1   O26   S    
C87   H41   S    
C91   H50   S    
C21   C22   A    
C81   O9    A    
C53   C58   A    
Cr3   O23   S    
C9    H15   S    
C50   C81   S    
C34   C76   A    
