data_mof_unit_24151.cif
_audit_creation_date              2012-12-10T20:28:48-0500
_audit_creation_method            fapswitch 2.2
_symmetry_space_group_name_H-M    P1
_symmetry_Int_Tables_number       1
_space_group_crystal_system       triclinic
_cell_length_a                    10.668551
_cell_length_b                    10.653651
_cell_length_c                    9.839236
_cell_angle_alpha                 89.993627
_cell_angle_beta                  88.445834
_cell_angle_gamma                 89.749458
_cell_volume                      1117.89582964

loop_
_atom_site_label
_atom_site_type_symbol
_atom_type_description
_atom_site_fract_x
_atom_site_fract_y
_atom_site_fract_z
_atom_type_partial_charge
C1    C     C_R   0.505556 0.260298 0.500020 0.927442
C2    C     C_R   0.058207 0.497514 0.631563 0.129452
C3    C     C_R   0.126226 0.535816 0.512407 -0.196030
C4    C     C_R   0.063114 0.569772 0.393855 -0.066264
C5    C     C_R   0.937046 0.542909 0.387373 -0.193625
C6    C     C_R   0.874441 0.485248 0.496896 -0.092501
C7    C     C_R   0.443963 0.064759 0.599092 0.045331
C8    C     C_R   0.517714 0.128252 0.502705 -0.148659
C9    C     C_R   0.603520 0.061570 0.416551 -0.054850
C10   C     C_R   0.595024 0.931043 0.415123 -0.244884
C11   C     C_R   0.508448 0.871004 0.501663 -0.066618
C12   C     C_R   0.260233 0.514592 0.503027 0.958307
C13   C     C_R   0.441528 0.937044 0.600607 0.127243
C14   C     C_3   0.304808 0.931730 0.637502 -0.526405
C15   C     C_3   0.306662 0.074567 0.635989 -0.237598
C16   C     C_R   0.403512 0.446342 0.074229 0.232312
C17   C     C_R   0.589429 0.562373 0.069437 -0.093047
C18   C     C_R   0.589358 0.562499 0.925286 -0.081186
C19   C     C_R   0.403728 0.446064 0.931502 0.196174
C20   C     C_3   0.366035 0.311620 0.927411 -0.508199
C21   C     C_3   0.365055 0.312184 0.081681 -0.470803
C22   C     C_R   0.499589 0.739675 0.500058 0.900014
C23   C     C_R   0.740252 0.490753 0.498522 0.914869
C24   C     C_R   0.105076 0.503699 0.764929 -0.157386
C25   C     C_R   0.040887 0.448378 0.874551 -0.198787
C26   C     C_R   0.928498 0.384992 0.854626 -0.002921
C27   C     C_R   0.879283 0.383925 0.724182 -0.158316
C28   C     C_R   0.937087 0.452602 0.616346 0.093357
H1    H     H_    0.288021 0.892029 0.740854 0.201256
H2    H     H_    0.289451 0.115756 0.738527 0.152767
H3    H     H_    0.662954 0.610549 0.121845 0.152323
H4    H     H_    0.662862 0.610812 0.868683 0.154216
H5    H     H_    0.271353 0.299489 0.885277 0.211181
H6    H     H_    0.440299 0.250158 0.881510 0.239774
H7    H     H_    0.269670 0.301140 0.128343 0.214541
H8    H     H_    0.438314 0.250568 0.124965 0.229800
H9    H     H_    0.187056 0.557640 0.788599 0.173235
H10   H     H_    0.079499 0.455332 0.974863 0.210361
H11   H     H_    0.793727 0.332447 0.708060 0.196742
H12   H     H_    0.885965 0.573849 0.299512 0.195710
H13   H     H_    0.655490 0.875709 0.347782 0.191767
H14   H     H_    0.248727 0.887441 0.556815 0.239694
N1    N     N_R   0.499160 0.499140 0.142800 -0.113400
N2    N     N_R   0.499160 0.499180 0.857150 -0.105677
O1    O     O_R   0.500020 0.316790 0.614690 -0.621393
O2    O     O_R   0.500000 0.316760 0.385350 -0.599260
O3    O     O_R   0.316770 0.500020 0.614690 -0.639286
O4    O     O_R   0.316760 0.499980 0.385350 -0.599177
O5    O     O_R   0.500000 0.683240 0.614650 -0.631130
O6    O     O_R   0.499980 0.683210 0.385310 -0.605356
O7    O     O_R   0.683240 0.500020 0.614650 -0.645332
O8    O     O_R   0.683230 0.499980 0.385310 -0.594339
Zn1   Zn    Zn3+2 0.500010 0.500020 0.653130 0.957867
Zn2   Zn    Zn3+2 0.499990 0.499980 0.346870 0.998990
C29   C     C_2   0.123458 0.643514 0.281565 0.934340
O9    O     O_2   0.085246 0.635184 0.165853 -0.652178
O10   O     O_R   0.221023 0.726236 0.309175 -0.801605
H15   H     H_    0.253919 0.771371 0.224883 0.353626
C30   C     C_2   0.227937 0.132015 0.526903 0.962645
O11   O     O_2   0.151077 0.213271 0.557490 -0.637966
O12   O     O_R   0.242747 0.092746 0.391711 -0.788160
H16   H     H_    0.185001 0.139188 0.328614 0.347054
C31   C     C_2   0.857264 0.328834 0.970895 0.897007
O13   O     O_2   0.900222 0.330537 0.084900 -0.614920
O14   O     O_R   0.739008 0.276682 0.950976 -0.815225
H17   H     H_    0.696752 0.247229 0.038709 0.356323
C32   C     C_2   0.703020 0.121711 0.330245 0.913713
O15   O     O_2   0.740163 0.227143 0.355959 -0.612032
O16   O     O_R   0.759321 0.054212 0.222778 -0.807566
H18   H     H_    0.830519 0.101500 0.176077 0.372644

loop_
_geom_bond_atom_site_label_1
_geom_bond_atom_site_label_2
_ccdc_geom_bond_type
C23   O8    A    
C26   C31   S    
C9    C32   S    
C16   C21   S    
C21   H7    S    
C18   N2    A    
C25   H10   S    
C1    C8    S    
C9    C10   A    
O7    Zn1   S    
C11   C22   S    
C23   O7    A    
C19   C20   S    
C22   O6    A    
O3    Zn1   S    
C20   H6    S    
O2    Zn2   S    
C29   O9    D    
C31   O14   S    
C24   H9    S    
O10   H15   S    
O1    Zn1   S    
C30   O11   D    
O14   H17   S    
C21   H8    S    
C14   H14   S    
C24   C25   A    
C10   H13   S    
O4    Zn2   S    
C5    C6    A    
C11   C13   A    
C16   N1    A    
C1    O1    A    
C26   C27   A    
O6    Zn2   S    
C12   O3    A    
O5    Zn1   S    
C6    C23   S    
C7    C15   S    
C25   C26   A    
C12   O4    A    
O8    Zn2   S    
C17   C18   A    
C2    C3    A    
O16   H18   S    
C29   O10   S    
C4    C29   S    
C16   C19   A    
O12   H16   S    
C17   H3    S    
C1    O2    A    
C30   O12   S    
C18   H4    S    
C10   C11   A    
C20   H5    S    
C14   H1    S    
C32   O15   D    
C7    C13   A    
C19   N2    A    
C15   H2    S    
C7    C8    A    
C5    H12   S    
C22   O5    A    
C17   N1    A    
C3    C12   S    
C14   C15   S    
C4    C5    A    
C2    C28   A    
C2    C24   A    
N1    Zn2   S    
C32   O16   S    
C20   C21   S    
C13   C14   S    
C15   C30   S    
N2    Zn1   S    
C6    C28   A    
C3    C4    A    
C27   H11   S    
C8    C9    A    
C27   C28   A    
C31   O13   D    
