data_mof_unit_37984.cif
_audit_creation_date              2012-10-26T19:57:56-0400
_audit_creation_method            fapswitch 2.2
_symmetry_space_group_name_H-M    P1
_symmetry_Int_Tables_number       1
_space_group_crystal_system       triclinic
_cell_length_a                    7.46312
_cell_length_b                    8.683752
_cell_length_c                    12.97043
_cell_angle_alpha                 88.067513
_cell_angle_beta                  79.229308
_cell_angle_gamma                 102.745493
_cell_volume                      802.962148111

loop_
_atom_site_label
_atom_site_type_symbol
_atom_type_description
_atom_site_fract_x
_atom_site_fract_y
_atom_site_fract_z
_atom_type_partial_charge
C1    C     C_R   0.452849 0.199735 0.503199 0.551769
C2    C     C_R   0.732054 0.542196 0.119709 -0.134229
C3    C     C_R   0.607495 0.521054 0.858784 -0.130798
C4    C     C_R   0.392505 0.478946 0.141216 -0.130798
C5    C     C_R   0.590181 0.517113 0.967245 0.049124
C6    C     C_R   0.409819 0.482887 0.032755 0.049124
C7    C     C_2   0.426272 0.031915 0.504709 -0.154340
C8    C     C_2   0.573728 0.968085 0.495291 -0.154340
C9    C     C_R   0.547151 0.800265 0.496801 0.551769
C10   C     C_R   0.466450 0.495747 0.701383 0.548501
C11   C     C_R   0.533550 0.504253 0.298617 0.548501
C12   C     C_R   0.553067 0.508332 0.184971 0.002958
C13   C     C_R   0.446933 0.491668 0.815029 0.002958
C14   C     C_R   0.249552 0.453106 0.988833 -0.140469
C15   C     C_R   0.750447 0.546894 0.011167 -0.140469
C16   C     C_R   0.267946 0.457804 0.880291 -0.134229
Cu1   Cu    Cu3+1 0.686350 0.517570 0.488220 0.954011
Cu2   Cu    Cu3+1 0.313650 0.482430 0.511780 0.954011
H1    H     H_    0.857924 0.565859 0.152365 0.129962
H2    H     H_    0.065975 0.623470 0.416887 0.237314
H3    H     H_    0.142076 0.434141 0.847634 0.129962
H4    H     H_    0.284066 0.960513 0.513573 0.134716
H5    H     H_    0.715933 0.039487 0.486427 0.134716
H6    H     H_    0.254049 0.452603 0.191293 0.124815
H7    H     H_    0.745951 0.547397 0.808707 0.124815
H8    H     H_    0.110683 0.426020 0.038270 0.105267
H9    H     H_    0.889317 0.573980 0.961730 0.105267
H10   H     H_    0.934025 0.376530 0.583113 0.237315
N1    N     N_2   0.033570 0.455950 0.529530 -0.259503
N2    N     N_2   0.966430 0.544050 0.470470 -0.259503
O1    O     O_R   0.621060 0.286250 0.492350 -0.503750
O2    O     O_R   0.378940 0.713750 0.507650 -0.503750
O3    O     O_R   0.306310 0.256580 0.512240 -0.497393
O4    O     O_R   0.693690 0.743420 0.487760 -0.497393
O5    O     O_R   0.631800 0.512400 0.642670 -0.511287
O6    O     O_R   0.368200 0.487600 0.357330 -0.511287
O7    O     O_R   0.317060 0.482730 0.662570 -0.506670
O8    O     O_R   0.682940 0.517270 0.337430 -0.506669

loop_
_geom_bond_atom_site_label_1
_geom_bond_atom_site_label_2
_ccdc_geom_bond_type
C11   O8    A    
C11   C12   S    
C10   O5    A    
C2    C15   A    
C4    C12   A    
N1    N2    D    
C15   H9    S    
C3    C13   A    
C3    H7    S    
C2    C12   A    
Cu1   Cu2   S    
C1    O3    A    
C7    C8    D    
Cu2   N1    S    
H2    N2    S    
C14   H8    S    
Cu1   N2    S    
C16   H3    S    
C10   O7    A    
Cu1   O1    S    
C5    C6    A    
H10   N1    S    
Cu2   O7    S    
Cu1   O8    S    
C9    O4    A    
C4    H6    S    
Cu2   O3    S    
C14   C16   A    
C5    C15   A    
C6    C14   A    
Cu1   O4    S    
C7    H4    S    
C1    O1    A    
C8    H5    S    
Cu2   O2    S    
C4    C6    A    
C13   C16   A    
C11   O6    A    
Cu1   O5    S    
C9    O2    A    
C2    H1    S    
C1    C7    S    
Cu2   O6    S    
C8    C9    S    
C3    C5    A    
C10   C13   S    
