data_mof_unit_38804.cif
_audit_creation_date              2012-12-10T16:59:16-0500
_audit_creation_method            fapswitch 2.2
_symmetry_space_group_name_H-M    P1
_symmetry_Int_Tables_number       1
_space_group_crystal_system       triclinic
_cell_length_a                    7.724811
_cell_length_b                    8.591067
_cell_length_c                    27.718994
_cell_angle_alpha                 90.805524
_cell_angle_beta                  86.312749
_cell_angle_gamma                 94.525754
_cell_volume                      1829.9470369

loop_
_atom_site_label
_atom_site_type_symbol
_atom_type_description
_atom_site_fract_x
_atom_site_fract_y
_atom_site_fract_z
_atom_type_partial_charge
C1    C     C_R   0.546557 0.795088 0.498700 0.977280
C2    C     C_R   0.453443 0.204912 0.501301 0.977757
C3    C     C_R   0.457303 0.496355 0.898876 -0.123000
C4    C     C_R   0.501693 0.491958 0.101458 -0.122049
C5    C     C_R   0.482330 0.637269 0.872990 -0.132081
C6    C     C_R   0.481324 0.350497 0.127072 -0.129030
C7    C     C_R   0.524404 0.777689 0.897605 0.544816
C8    C     C_R   0.434092 0.210841 0.102738 0.542899
C9    C     C_R   0.424425 0.355132 0.873615 -0.018755
C10   C     C_R   0.536691 0.632700 0.126767 -0.025133
C11   C     C_R   0.501506 0.484531 0.646041 -0.187774
C12   C     C_R   0.495303 0.507352 0.353920 -0.207991
C13   C     C_R   0.520117 0.636519 0.025384 0.088088
C14   C     C_R   0.431361 0.352914 0.975217 0.089057
C15   C     C_R   0.446618 0.351234 0.025892 -0.013907
C16   C     C_R   0.505127 0.638088 0.974690 -0.013473
C17   C     C_R   0.488730 0.493215 0.050718 0.075684
C18   C     C_R   0.464866 0.495889 0.949804 0.077029
C19   C     C_R   0.571390 0.772952 0.051718 -0.230769
C20   C     C_R   0.380100 0.216568 0.948860 -0.234399
C21   C     C_R   0.577927 0.770695 0.101460 -0.097653
C22   C     C_R   0.378340 0.217986 0.898997 -0.096933
C23   C     C_R   0.501863 0.496128 0.593741 0.954077
C24   C     C_R   0.497784 0.502689 0.406258 0.961249
C25   C     C_R   0.528652 0.777769 0.947868 -0.347774
C26   C     C_R   0.423435 0.211418 0.052676 -0.347923
C27   C     C_2   0.570641 0.959029 0.497954 -0.352171
C28   C     C_2   0.429358 0.040973 0.502052 -0.349398
C29   C     C_R   0.467590 0.632018 0.822717 0.678016
C30   C     C_R   0.506250 0.354402 0.176839 0.651555
C31   C     C_R   0.439743 0.354259 0.823173 0.545815
C32   C     C_R   0.529080 0.632093 0.177213 0.554536
C33   C     C_R   0.346273 0.414401 0.721808 -0.170285
C34   C     C_R   0.641283 0.572646 0.276606 -0.223727
C35   C     C_R   0.356479 0.408393 0.671460 0.499855
C36   C     C_R   0.636993 0.582538 0.326898 0.507927
C37   C     C_R   0.639501 0.556018 0.670665 -0.425414
C38   C     C_R   0.356014 0.430886 0.330968 -0.394311
C39   C     C_R   0.632943 0.557035 0.721138 0.445120
C40   C     C_R   0.356581 0.425692 0.280629 0.520300
C41   C     C_R   0.481355 0.489661 0.746883 0.104293
C42   C     C_R   0.503624 0.494424 0.253186 0.074710
H1    H     H_    0.751217 0.612566 0.650447 0.199448
H2    H     H_    0.247218 0.374736 0.352468 0.216636
H3    H     H_    0.013874 0.384126 0.463517 0.194266
H4    H     H_    0.986125 0.615863 0.536486 0.191463
H5    H     H_    0.748820 0.631444 0.255331 0.200365
H6    H     H_    0.235081 0.356493 0.741815 0.195964
H7    H     H_    0.619838 0.877250 0.120063 0.230676
H8    H     H_    0.337613 0.111234 0.880315 0.231239
H9    H     H_    0.610063 0.883872 0.035210 0.143204
H10   H     H_    0.338857 0.106208 0.965407 0.143213
H11   H     H_    0.549362 0.890664 0.964627 0.149617
H12   H     H_    0.398937 0.098804 0.036031 0.150186
H13   H     H_    0.703442 0.011713 0.494052 0.181367
H14   H     H_    0.296556 0.988290 0.505955 0.181148
N1    N     N_R   0.464063 0.492032 0.798670 -0.337702
N2    N     N_R   0.511766 0.493498 0.201373 -0.335710
N3    N     N_2   0.950320 0.457960 0.486880 -0.177958
N4    N     N_2   0.049680 0.542040 0.513120 -0.178298
O1    O     O_R   0.389250 0.738570 0.503220 -0.617983
O2    O     O_R   0.610750 0.261430 0.496780 -0.618550
O3    O     O_R   0.678390 0.711630 0.494810 -0.623605
O4    O     O_R   0.321610 0.288370 0.505190 -0.622631
O5    O     O_R   0.355440 0.513440 0.575450 -0.595193
O6    O     O_R   0.644560 0.486560 0.424550 -0.597209
O7    O     O_R   0.644590 0.486500 0.567040 -0.643794
O8    O     O_R   0.355410 0.513500 0.432960 -0.641500
O9    O     O_2   0.455651 0.764351 0.797950 -0.432222
O10   O     O_2   0.527108 0.221747 0.200521 -0.443114
O11   O     O_2   0.537137 0.768822 0.201903 -0.498436
O12   O     O_2   0.432754 0.216869 0.798837 -0.506805
Zn1   Zn    Zn3+2 0.306940 0.517990 0.505620 0.963082
Zn2   Zn    Zn3+2 0.693060 0.482010 0.494380 0.961553
S1    S     S_3+6 0.816611 0.641368 0.750382 0.022577
O13   O     O_2   0.839513 0.554803 0.795994 -0.304237
O14   O     O_2   0.979255 0.636124 0.717914 -0.343712
O15   O     O_3   0.789771 0.829402 0.764159 -0.478598
H15   H     H_    0.772598 0.878674 0.732906 0.368464
S2    S     S_3+6 0.169792 0.337279 0.253778 0.011199
O16   O     O_2   0.131231 0.429244 0.210516 -0.351246
O17   O     O_2   0.201304 0.173114 0.238347 -0.228391
O18   O     O_3   0.996029 0.328675 0.293588 -0.612762
H16   H     H_    0.896166 0.292118 0.274525 0.398814
O19   O     O_3   0.558283 0.916027 0.872471 -0.576141
C43   C     C_3   0.735006 0.969374 0.875127 -0.124008
H17   H     H_    0.823338 0.875669 0.865503 0.193535
H18   H     H_    0.760297 0.018657 0.911508 0.109910
H19   H     H_    0.766177 0.064850 0.848691 0.222418
O20   O     O_3   0.400982 0.072630 0.127951 -0.577364
C44   C     C_3   0.222588 0.022812 0.127386 -0.131312
H20   H     H_    0.190123 0.975596 0.091263 0.112520
H21   H     H_    0.138114 0.118024 0.138566 0.185201
H22   H     H_    0.193482 0.926662 0.153683 0.222255
O21   O     O_3   0.752508 0.686702 0.349677 -0.603389
C45   C     C_3   0.921318 0.634829 0.345128 -0.155215
H23   H     H_    0.974592 0.635993 0.306926 0.194634
H24   H     H_    0.924023 0.517502 0.361349 0.193422
H25   H     H_    0.008495 0.716315 0.365642 0.183919
O22   O     O_3   0.240779 0.309674 0.646809 -0.609968
C46   C     C_3   0.072749 0.363247 0.651695 -0.162418
H26   H     H_    0.073866 0.487680 0.640974 0.184994
H27   H     H_    0.013023 0.344467 0.688886 0.189279
H28   H     H_    0.989034 0.294226 0.626817 0.176786

loop_
_geom_bond_atom_site_label_1
_geom_bond_atom_site_label_2
_ccdc_geom_bond_type
C46   H26   S    
C8    C26   A    
C14   C18   A    
O21   C45   S    
C34   C42   A    
C32   N2    A    
C42   N2    S    
C21   H7    S    
C28   H14   S    
C39   C41   A    
O19   C43   S    
C19   C21   A    
C25   H11   S    
C27   H13   S    
C9    C22   A    
O6    Zn2   S    
C45   H25   S    
C26   H12   S    
N4    Zn1   S    
O5    Zn1   S    
C3    C18   A    
C23   O7    A    
C11   C37   A    
C45   H24   S    
O4    Zn1   S    
C40   S2    S    
C39   S1    S    
C12   C36   A    
C29   O9    S    
C24   O6    A    
C22   H8    S    
C40   C42   A    
N3    N4    D    
C46   H27   S    
S2    O18   S    
C1    O3    A    
C30   O10   S    
C2    O4    A    
C32   O11   S    
C5    C29   A    
C10   C21   A    
C13   C19   A    
C43   H18   S    
C14   C20   A    
S2    O17   D    
C44   H20   S    
C5    C7    A    
C9    C31   A    
C43   H17   S    
C15   C26   A    
C6    C8    A    
O1    Zn1   S    
O8    Zn1   S    
C37   H1    S    
S1    O13   D    
C38   H2    S    
C3    C9    A    
C10   C32   A    
C44   H21   S    
O18   H16   S    
C45   H23   S    
O7    Zn2   S    
S1    O14   D    
N3    Zn2   S    
C4    C17   A    
C4    C6    A    
C31   O12   S    
C6    C30   A    
C20   C22   A    
C46   H28   S    
C8    O20   S    
C4    C10   A    
C35   O22   S    
C16   C25   A    
C15   C17   A    
H3    N3    S    
H4    N4    S    
O15   H15   S    
C16   C18   A    
C29   N1    A    
S2    O16   D    
C3    C5    A    
C43   H19   S    
C1    O1    A    
O3    Zn2   S    
C12   C24   S    
C7    C25   A    
C13   C17   A    
C33   C41   A    
C23   O5    A    
C11   C35   A    
C41   N1    S    
C20   H10   S    
C44   H22   S    
C38   C40   A    
C36   O21   S    
C31   N1    A    
O20   C44   S    
C7    O19   S    
C30   N2    A    
C11   C23   S    
O22   C46   S    
C33   C35   A    
C34   C36   A    
C12   C38   A    
S1    O15   S    
C24   O8    A    
C19   H9    S    
C37   C39   A    
C13   C16   A    
C27   C28   D    
C1    C27   S    
C33   H6    S    
C14   C15   A    
O2    Zn2   S    
C2    C28   S    
C34   H5    S    
C2    O2    A    
