data_mof_unit_54228.cif
_audit_creation_date              2012-12-10T18:18:28-0500
_audit_creation_method            fapswitch 2.2
_symmetry_space_group_name_H-M    P1
_symmetry_Int_Tables_number       1
_space_group_crystal_system       triclinic
_cell_length_a                    14.026883
_cell_length_b                    14.96501
_cell_length_c                    15.589826
_cell_angle_alpha                 90.119092
_cell_angle_beta                  67.187008
_cell_angle_gamma                 90.435502
_cell_volume                      3016.41965475

loop_
_atom_site_label
_atom_site_type_symbol
_atom_type_description
_atom_site_fract_x
_atom_site_fract_y
_atom_site_fract_z
_atom_type_partial_charge
C1    C     C_R   0.501197 0.673304 0.497902 0.943322
C2    C     C_R   0.504457 0.768981 0.493315 -0.200051
C3    C     C_R   0.446163 0.185836 0.456953 -0.259297
C4    C     C_R   0.553634 0.814387 0.542321 -0.261146
C5    C     C_R   0.450510 0.093708 0.451488 0.002487
C6    C     C_R   0.548188 0.906396 0.548354 0.001080
C7    C     C_R   0.495962 0.046379 0.503916 -0.083646
C8    C     C_R   0.501972 0.953531 0.496332 -0.084407
C9    C     C_R   0.534666 0.092158 0.564191 -0.073595
C10   C     C_R   0.462939 0.907636 0.436282 -0.072721
C11   C     C_R   0.415018 0.049525 0.390338 0.584730
C12   C     C_R   0.498883 0.326683 0.501818 0.944240
C13   C     C_R   0.583133 0.950634 0.609878 0.586855
C14   C     C_R   0.428320 0.957376 0.376084 -0.003401
C15   C     C_R   0.568179 0.042481 0.625010 -0.001850
C16   C     C_R   0.435276 0.500781 0.675966 0.917006
C17   C     C_R   0.564665 0.499482 0.323944 0.919325
C18   C     C_R   0.176657 0.443460 0.557555 0.018405
C19   C     C_R   0.823625 0.555991 0.441857 0.017488
C20   C     C_R   0.228095 0.555873 0.441377 -0.003384
C21   C     C_R   0.772554 0.442724 0.557170 -0.004115
C22   C     C_R   0.128297 0.557333 0.438329 -0.053876
C23   C     C_R   0.396275 0.430630 0.091448 -0.259250
C24   C     C_R   0.872936 0.440003 0.558883 -0.054473
C25   C     C_R   0.051217 0.499218 0.498555 -0.026986
C26   C     C_R   0.949764 0.498693 0.499231 -0.025939
C27   C     C_R   0.075796 0.441495 0.558250 -0.095898
C28   C     C_R   0.925083 0.556708 0.439819 -0.095535
C29   C     C_R   0.103310 0.614662 0.377419 -0.024809
C30   C     C_R   0.898976 0.380611 0.617566 -0.029494
C31   C     C_R   0.001696 0.613748 0.379271 0.592435
C32   C     C_R   0.999984 0.382817 0.617037 0.593003
C33   C     C_R   0.394294 0.495725 0.776945 -0.154932
C34   C     C_R   0.616422 0.539961 0.900090 -0.254821
C35   C     C_R   0.605511 0.499986 0.222635 -0.155190
C36   C     C_R   0.272818 0.434999 0.921275 0.648092
C37   C     C_R   0.736252 0.539864 0.073288 0.649417
C38   C     C_R   0.298599 0.456021 0.827954 -0.253245
C39   C     C_R   0.706586 0.527337 0.168758 -0.256894
C40   C     C_R   0.460293 0.520236 0.820391 -0.249752
C41   C     C_R   0.537141 0.479033 0.180403 -0.253419
C42   C     C_R   0.441071 0.493087 0.911244 0.026431
C43   C     C_R   0.564369 0.490731 0.085145 0.024798
C44   C     C_R   0.344915 0.450310 0.962364 0.008234
C45   C     C_R   0.323851 0.420013 0.052085 -0.171315
C46   C     C_R   0.664401 0.525103 0.031808 0.014224
C47   C     C_R   0.516344 0.503975 0.950846 0.102485
C48   C     C_R   0.492011 0.474834 0.043442 0.096961
C49   C     C_3   0.183324 0.676752 0.309591 -0.369703
C50   C     C_3   0.256295 0.625249 0.224394 -0.334317
C51   C     C_3   0.344586 0.684892 0.162164 -0.843092
C52   C     C_3   0.821151 0.314343 0.681213 -0.368661
C53   C     C_3   0.748652 0.360177 0.770455 -0.331977
C54   C     C_3   0.664703 0.296184 0.831416 -0.835707
C55   C     C_3   0.414156 0.919063 0.290760 -0.317581
C56   C     C_R   0.689655 0.547594 0.939124 -0.175331
C57   C     C_3   0.496320 0.956425 0.200032 -0.354528
C58   C     C_3   0.484563 0.916332 0.114463 -0.861493
C59   C     C_3   0.579475 0.081117 0.711414 -0.318240
C60   C     C_3   0.499799 0.039913 0.801331 -0.356244
C61   C     C_3   0.506925 0.082445 0.887818 -0.861870
C62   C     C_R   0.541728 0.185559 0.557811 0.574033
C63   C     C_R   0.457201 0.814122 0.442149 0.576773
C64   C     C_R   0.495446 0.231001 0.506096 -0.199872
F1    F     F_    0.977541 0.667917 0.320801 -0.673696
F2    F     F_    0.024447 0.327806 0.674690 -0.672317
F3    F     F_    0.180473 0.394500 0.969484 -0.645058
F4    F     F_    0.833195 0.570610 0.022501 -0.644564
F5    F     F_    0.600767 0.232818 0.593517 -0.713126
F6    F     F_    0.398661 0.766176 0.406535 -0.713010
F7    F     F_    0.371323 0.097177 0.340891 -0.685971
F8    F     F_    0.627734 0.903322 0.658787 -0.685919
H1    H     H_    0.251900 0.385629 0.091676 0.210953
H2    H     H_    0.246295 0.437559 0.794745 0.197367
H3    H     H_    0.375645 0.400320 0.158897 0.159247
H4    H     H_    0.642839 0.561228 0.828776 0.150916
H5    H     H_    0.411432 0.223362 0.417163 0.228485
H6    H     H_    0.588907 0.777067 0.581809 0.228662
H7    H     H_    0.313725 0.745197 0.140672 0.268340
H8    H     H_    0.394068 0.705606 0.199781 0.269281
H9    H     H_    0.392831 0.647603 0.098756 0.261940
H10   H     H_    0.289884 0.566806 0.246148 0.216938
H11   H     H_    0.211974 0.599980 0.183591 0.256487
H12   H     H_    0.765467 0.574249 0.896945 0.208838
H13   H     H_    0.145476 0.730167 0.284932 0.259527
H14   H     H_    0.227116 0.712623 0.345274 0.222463
H15   H     H_    0.613003 0.277092 0.795531 0.268874
H16   H     H_    0.699666 0.235219 0.847150 0.268008
H17   H     H_    0.617659 0.329400 0.897993 0.261591
H18   H     H_    0.794223 0.384797 0.810403 0.258265
H19   H     H_    0.710914 0.418276 0.752963 0.216505
H20   H     H_    0.776839 0.281621 0.644118 0.225661
H21   H     H_    0.861138 0.258920 0.700699 0.259256
H22   H     H_    0.497328 0.843072 0.111811 0.266766
H23   H     H_    0.197475 0.399849 0.602744 0.185067
H24   H     H_    0.406144 0.929829 0.116015 0.269854
H25   H     H_    0.542768 0.946758 0.050498 0.264062
H26   H     H_    0.490278 0.030123 0.196693 0.278314
H27   H     H_    0.574744 0.940597 0.197396 0.228587
H28   H     H_    0.421352 0.846109 0.284525 0.254732
H29   H     H_    0.335422 0.935579 0.294676 0.236916
H30   H     H_    0.585979 0.074497 0.886926 0.269176
H31   H     H_    0.487961 0.154613 0.891136 0.268144
H32   H     H_    0.450871 0.049298 0.951146 0.264400
H33   H     H_    0.420513 0.050188 0.803360 0.229420
H34   H     H_    0.802709 0.599859 0.396929 0.185175
H35   H     H_    0.512011 0.967006 0.804123 0.280785
H36   H     H_    0.659220 0.068946 0.707307 0.236336
H37   H     H_    0.566159 0.153473 0.719005 0.251911
H38   H     H_    0.289731 0.598718 0.397262 0.183512
H39   H     H_    0.711022 0.399702 0.601138 0.183114
H40   H     H_    0.459910 0.459380 0.224884 0.171082
H41   H     H_    0.528859 0.557027 0.779232 0.167721
H42   H     H_    0.760625 0.543088 0.200933 0.198273
N1    N     N_R   0.249980 0.499930 0.499960 -0.126093
N2    N     N_R   0.750020 0.500070 0.500040 -0.125931
O1    O     O_R   0.419720 0.632140 0.499980 -0.557307
O2    O     O_R   0.580280 0.367860 0.500020 -0.558092
O3    O     O_R   0.580270 0.632160 0.499970 -0.639979
O4    O     O_R   0.419730 0.367840 0.500030 -0.639608
O5    O     O_R   0.373870 0.499980 0.632250 -0.621533
O6    O     O_R   0.626130 0.500020 0.367750 -0.622018
O7    O     O_R   0.534420 0.500000 0.632240 -0.623069
O8    O     O_R   0.465580 0.500000 0.367760 -0.626527
Zn1   Zn    Zn3+2 0.392800 0.499980 0.500010 0.976544
Zn2   Zn    Zn3+2 0.607200 0.500020 0.499990 0.976554

loop_
_geom_bond_atom_site_label_1
_geom_bond_atom_site_label_2
_ccdc_geom_bond_type
C54   H16   S    
C34   C56   A    
C23   C45   A    
C22   C29   A    
C2    C4    A    
C10   C63   A    
C36   F3    S    
C7    C8    A    
C29   C49   S    
C3    C64   A    
C2    C63   A    
O5    Zn1   S    
C61   H31   S    
C16   O7    A    
C24   C26   A    
C5    C11   A    
C54   H15   S    
C12   C64   S    
C11   C14   A    
C11   F7    S    
C57   H27   S    
C37   F4    S    
C45   H1    S    
C1    C2    S    
C1    O3    A    
C58   H24   S    
C51   H8    S    
C62   C64   A    
C12   O4    A    
C40   H41   S    
C22   C25   A    
C55   H28   S    
C53   H19   S    
C44   C45   A    
C43   C48   A    
C51   H9    S    
C40   C42   A    
C14   C55   S    
C59   C60   S    
N2    Zn2   S    
C18   H23   S    
C41   C43   A    
C58   H25   S    
C42   C44   A    
C21   N2    A    
C21   H39   S    
C50   H11   S    
C56   H12   S    
C24   C30   A    
C33   C40   A    
C9    C62   A    
C49   H13   S    
C61   H32   S    
C54   H17   S    
C4    C6    A    
C10   C14   A    
C5    C7    A    
C31   F1    S    
O4    Zn1   S    
O7    Zn2   S    
C6    C8    A    
C25   C26   A    
C53   C54   S    
C41   H40   S    
C62   F5    S    
C60   C61   S    
O6    Zn2   S    
C35   C39   A    
C16   O5    A    
O3    Zn2   S    
C4    H6    S    
C16   C33   S    
C17   O8    A    
C47   C48   A    
C63   F6    S    
C39   H42   S    
C50   C51   S    
C52   H21   S    
C1    O1    A    
C19   C28   A    
C60   H35   S    
C20   H38   S    
C8    C10   A    
C20   C22   A    
C55   C57   S    
C12   O2    A    
C36   C44   A    
C3    H5    S    
C52   C53   S    
C50   H10   S    
C32   F2    S    
C38   H2    S    
C7    C9    A    
C30   C52   S    
C23   C48   A    
C27   C32   A    
C15   C59   S    
C49   H14   S    
C28   C31   A    
C18   C27   A    
C59   H36   S    
C23   H3    S    
C3    C5    A    
C18   N1    A    
C20   N1    A    
C13   F8    S    
C25   C27   A    
O2    Zn2   S    
C55   H29   S    
C26   C28   A    
C33   C38   A    
N1    Zn1   S    
C13   C15   A    
C61   H30   S    
C58   H22   S    
C29   C31   A    
C6    C13   A    
C30   C32   A    
C57   C58   S    
C19   N2    A    
C57   H26   S    
C36   C38   A    
C59   H37   S    
C42   C47   A    
C9    C15   A    
C35   C41   A    
C43   C46   A    
C51   H7    S    
C52   H20   S    
C19   H34   S    
C17   O6    A    
C37   C39   A    
C49   C50   S    
C21   C24   A    
C46   C56   A    
C53   H18   S    
C34   C47   A    
C17   C35   S    
C37   C46   A    
O1    Zn1   S    
C60   H33   S    
C34   H4    S    
O8    Zn1   S    
