data_mof_unit_41500.cif
_audit_creation_date              2012-12-11T16:22:02-0500
_audit_creation_method            fapswitch 2.2
_symmetry_space_group_name_H-M    P1
_symmetry_Int_Tables_number       1
_space_group_crystal_system       triclinic
_cell_length_a                    13.498969
_cell_length_b                    14.015912
_cell_length_c                    30.033259
_cell_angle_alpha                 97.747226
_cell_angle_beta                  90.254506
_cell_angle_gamma                 118.689674
_cell_volume                      4923.54698899

loop_
_atom_site_label
_atom_site_type_symbol
_atom_type_description
_atom_site_fract_x
_atom_site_fract_y
_atom_site_fract_z
_atom_type_partial_charge
C1    C     C_R   0.720475 0.098568 0.569272 0.561601
C2    C     C_R   0.351264 0.678742 0.678100 0.040654
C3    C     C_R   0.257821 0.674992 0.656006 -0.118592
C4    C     C_R   0.265049 0.702518 0.612782 -0.130664
C5    C     C_R   0.252129 0.660892 0.832969 -0.090259
C6    C     C_R   0.237915 0.645674 0.877978 0.220559
C7    C     C_R   0.409448 0.628052 0.880387 0.160236
C8    C     C_R   0.420954 0.643274 0.835217 -0.102414
C9    C     C_R   0.339486 0.653855 0.811151 -0.060088
C10   C     C_1   0.346591 0.661014 0.764140 0.002232
C11   C     C_1   0.349445 0.667387 0.724696 0.005824
C12   C     C_R   0.384082 0.789101 0.551257 0.543544
C13   C     C_R   0.309091 0.614963 0.900653 -0.031967
C14   C     C_3   0.244244 0.167827 0.725448 -0.089670
C15   C     C_3   0.229588 0.078112 0.753924 -0.077446
C16   C     C_1   0.298586 0.197778 0.876998 0.033646
C17   C     C_1   0.367444 0.135316 0.614397 0.006722
C18   C     C_3   0.334860 0.257530 0.761530 -0.107829
C19   C     C_3   0.320354 0.167607 0.789213 0.035560
C20   C     C_3   0.429097 0.243753 0.737258 -0.100258
C21   C     C_3   0.338156 0.154147 0.701920 0.033184
C22   C     C_3   0.414528 0.154263 0.765749 -0.069830
C23   C     C_R   0.397807 0.118559 0.569718 0.562341
C24   C     C_3   0.323909 0.064352 0.729622 -0.079444
C25   C     C_1   0.309191 0.179487 0.837607 -0.017251
C26   C     C_1   0.350699 0.145351 0.653561 -0.039640
C27   C     C_3   0.854209 0.263188 0.736648 -0.146858
C28   C     C_3   0.757485 0.210970 0.768281 -0.109820
C29   C     C_1   0.888838 0.200991 0.879629 0.026358
C30   C     C_1   0.763540 0.127734 0.615290 0.055496
C31   C     C_3   0.926267 0.224602 0.761676 -0.115485
C32   C     C_3   0.829353 0.172254 0.792486 0.020370
C33   C     C_3   0.871946 0.114812 0.728931 0.067847
C34   C     C_R   0.721299 0.096127 0.442968 0.567407
C35   C     C_3   0.801681 0.153283 0.704033 0.011584
C36   C     C_3   0.776481 0.061772 0.760296 -0.101385
C37   C     C_3   0.706046 0.101151 0.735172 0.060364
C38   C     C_1   0.855183 0.186298 0.840898 -0.006462
C39   C     C_1   0.785774 0.142941 0.655206 0.045586
C40   C     C_3   0.259967 0.589705 0.257414 0.071639
C41   C     C_3   0.251760 0.668456 0.228551 0.223767
C42   C     C_1   0.311175 0.610657 0.110713 0.064788
C43   C     C_1   0.366587 0.736807 0.378168 0.036855
C44   C     C_3   0.352420 0.584436 0.228542 -0.175592
C45   C     C_R   0.382208 0.784400 0.424439 0.542247
C46   C     C_3   0.343558 0.664146 0.199804 0.007036
C47   C     C_3   0.445709 0.685235 0.260729 -0.146038
C48   C     C_3   0.351994 0.689011 0.288980 -0.020238
C49   C     C_3   0.435210 0.763305 0.231489 0.053786
C50   C     C_3   0.343254 0.769069 0.260449 -0.113850
C51   C     C_1   0.330995 0.641021 0.150643 0.070219
C52   C     C_1   0.358364 0.709671 0.338087 0.030520
C53   C     C_R   0.357534 0.134057 0.400589 0.001298
C54   C     C_R   0.440705 0.215079 0.378366 -0.140888
C55   C     C_R   0.422909 0.216143 0.333041 -0.117564
C56   C     C_R   0.395314 0.115152 0.443255 0.563963
C57   C     C_R   0.321730 0.137010 0.309109 0.007562
C58   C     C_R   0.233850 0.061932 0.331153 -0.098755
C59   C     C_R   0.249409 0.061009 0.377361 0.043435
C60   C     C_R   0.258922 0.073559 0.141285 -0.064095
C61   C     C_R   0.257656 0.096038 0.097264 0.240039
C62   C     C_R   0.383969 0.290597 0.125133 -0.161473
C63   C     C_R   0.385269 0.266791 0.168381 -0.128001
C64   C     C_R   0.319514 0.159316 0.176697 -0.010126
C65   C     C_1   0.311781 0.140435 0.222303 0.012497
C66   C     C_1   0.311431 0.134251 0.261664 0.009346
C67   C     C_R   0.366277 0.734583 0.591420 0.017641
C68   C     C_R   0.316115 0.207100 0.089540 0.009149
C69   C     C_R   0.781691 0.136317 0.402693 0.004951
C70   C     C_R   0.830448 0.080924 0.375662 0.047090
C71   C     C_R   0.852285 0.101946 0.331294 -0.086541
C72   C     C_R   0.831212 0.179667 0.314848 0.019664
C73   C     C_R   0.795828 0.242657 0.342981 -0.122498
C74   C     C_R   0.771779 0.221681 0.386576 -0.142711
C75   C     C_R   0.869706 0.294373 0.164713 -0.057032
C76   C     C_R   0.894906 0.302935 0.119909 -0.093198
C77   C     C_R   0.863258 0.115291 0.108379 -0.104965
C78   C     C_R   0.457111 0.730851 0.612814 -0.108117
C79   C     C_R   0.839284 0.107430 0.153090 -0.115640
C80   C     C_R   0.846328 0.198064 0.181559 0.037227
C81   C     C_1   0.840634 0.194784 0.228732 0.040983
C82   C     C_1   0.837786 0.189450 0.268193 0.036922
C83   C     C_R   0.896983 0.215030 0.092001 0.008759
C84   C     C_R   0.284264 0.232526 0.922202 0.558799
C85   C     C_R   0.268704 0.551847 0.939180 0.564872
C86   C     C_R   0.944062 0.221653 0.923248 0.542087
C87   C     C_R   0.293408 0.242117 0.048414 0.568593
C88   C     C_R   0.275635 0.559233 0.064951 0.552400
C89   C     C_R   0.449710 0.703589 0.656088 -0.094163
C90   C     C_R   0.953459 0.232532 0.049785 0.534833
Cr1   Cr    Cr6+3 0.583430 0.162610 0.509470 1.034195
Cr2   Cr    Cr6+3 0.584210 0.916680 0.495400 1.065595
Cr3   Cr    Cr6+3 0.332380 0.920740 0.495100 1.082640
Cr4   Cr    Cr6+3 0.086810 0.177030 0.983130 1.139060
Cr5   Cr    Cr6+3 0.337180 0.419300 0.994610 1.144292
Cr6   Cr    Cr6+3 0.084840 0.422330 0.995830 1.121653
H1    H     H_    0.176181 0.175311 0.708121 0.152559
H2    H     H_    0.318224 0.984193 0.715828 0.143263
H3    H     H_    0.484232 0.149709 0.783321 0.154468
H4    H     H_    0.511062 0.311887 0.729767 0.125204
H5    H     H_    0.339405 0.337222 0.775394 0.123346
H6    H     H_    0.709578 0.249872 0.784882 0.127717
H7    H     H_    0.886581 0.345775 0.726577 0.129605
H8    H     H_    0.744174 0.979161 0.770376 0.149819
H9    H     H_    0.194060 0.677243 0.814571 0.178071
H10   H     H_    0.017746 0.275352 0.772958 0.119943
H11   H     H_    0.338887 0.844738 0.273746 0.153914
H12   H     H_    0.525937 0.692360 0.274392 0.156161
H13   H     H_    0.356153 0.508526 0.215087 0.132428
H14   H     H_    0.210509 0.989975 0.148197 0.198051
H15   H     H_    0.153765 0.004265 0.312266 0.180556
H16   H     H_    0.181308 0.655855 0.672988 0.118388
H17   H     H_    0.523431 0.273293 0.395025 0.140716
H18   H     H_    0.433423 0.333320 0.195780 0.128686
H19   H     H_    0.429838 0.376058 0.120345 0.151678
H20   H     H_    0.490414 0.275942 0.316148 0.124016
H21   H     H_    0.920017 0.380429 0.108085 0.178703
H22   H     H_    0.874500 0.364566 0.186773 0.169085
H23   H     H_    0.780845 0.304015 0.330468 0.124607
H24   H     H_    0.737264 0.267567 0.406427 0.141050
H25   H     H_    0.193795 0.704737 0.597237 0.139542
H26   H     H_    0.821259 0.032657 0.166043 0.140434
H27   H     H_    0.863231 0.045774 0.087644 0.174222
H28   H     H_    0.884115 0.056676 0.309256 0.158413
H29   H     H_    0.536387 0.755511 0.597355 0.144247
H30   H     H_    0.493395 0.646403 0.818641 0.168835
H31   H     H_    0.522474 0.706889 0.673126 0.125573
H32   H     H_    0.148882 0.009185 0.761829 0.179549
O1    O     O_R   0.493980 0.188910 0.559650 -0.502966
O2    O     O_R   0.480180 0.824400 0.444640 -0.499679
O3    O     O_R   0.308310 0.808540 0.439800 -0.491836
O4    O     O_R   0.340740 0.020600 0.455570 -0.460562
O5    O     O_3   0.500010 0.000010 0.499990 -0.264662
O6    O     O_R   0.969650 0.150960 0.933380 -0.492844
O7    O     O_R   0.187740 0.180870 0.937580 -0.483115
O8    O     O_R   0.358510 0.327410 0.940870 -0.456878
O9    O     O_R   0.324180 0.507870 0.953930 -0.434945
O10   O     O_R   0.170560 0.527890 0.952050 -0.435165
O11   O     O_R   0.987620 0.318470 0.945550 -0.481856
O12   O     O_R   0.678640 0.153520 0.554450 -0.499012
O13   O     O_R   0.976400 0.159270 0.031530 -0.489424
O14   O     O_R   0.194000 0.188570 0.028560 -0.438301
O15   O     O_R   0.365260 0.335720 0.039020 -0.515891
O16   O     O_R   0.330440 0.515580 0.044910 -0.494754
O17   O     O_R   0.177310 0.536200 0.050190 -0.475215
O18   O     O_R   0.993870 0.326170 0.036530 -0.503672
O19   O     O_3   0.169610 0.339550 0.991190 -0.303733
O20   O     O_R   0.698130 0.004030 0.549500 -0.488909
O21   O     O_R   0.481060 0.827210 0.535360 -0.501762
O22   O     O_R   0.309260 0.811560 0.537660 -0.514069
O23   O     O_R   0.341620 0.023400 0.546290 -0.484162
O24   O     O_R   0.493030 0.185890 0.461780 -0.527854
O25   O     O_R   0.677760 0.150720 0.463730 -0.515972
O26   O     O_R   0.697180 0.001010 0.451640 -0.467163
S1    S     S_3+6 0.134017 0.672122 0.904108 0.049795
O27   O     O_2   0.024661 0.565911 0.901646 -0.254991
O28   O     O_2   0.173116 0.723593 0.952563 -0.235076
O29   O     O_3   0.111993 0.758828 0.877151 -0.518130
H33   H     H_    0.054592 0.770455 0.893856 0.389696
C91   C     C_2   0.582586 0.027922 0.720797 0.554845
O30   O     O_2   0.517316 0.981831 0.748537 -0.536706
O31   O     O_R   0.543080 0.010689 0.675782 -0.708830
H34   H     H_    0.458880 0.957477 0.670094 0.332369
C92   C     C_2   0.933986 0.058081 0.708055 0.554222
O32   O     O_2   0.971446 0.016496 0.731688 -0.547913
O33   O     O_R   0.947487 0.051472 0.661852 -0.702612
H35   H     H_    0.990869 0.011004 0.651958 0.338548
S2    S     S_3+6 0.125162 0.662371 0.207114 0.045031
O34   O     O_2   0.155524 0.761557 0.184779 -0.220129
O35   O     O_2   0.060955 0.560151 0.173051 -0.294196
O36   O     O_3   0.044202 0.661770 0.249563 -0.476940
H36   H     H_    0.015327 0.588468 0.258919 0.350094
C93   C     C_2   0.161338 0.490323 0.270677 0.575668
O37   O     O_2   0.097433 0.415360 0.241460 -0.518277
O38   O     O_R   0.142852 0.483625 0.316144 -0.695609
H37   H     H_    0.073460 0.412644 0.320650 0.338852
C94   C     C_2   0.532679 0.862193 0.217535 0.591502
O39   O     O_2   0.601641 0.934837 0.246252 -0.524736
O40   O     O_R   0.543413 0.871559 0.171882 -0.680204
H38   H     H_    0.610599 0.943376 0.166774 0.338216
S3    S     S_3+6 0.182274 0.983563 0.053556 0.052940
O41   O     O_2   0.064189 0.966225 0.046189 -0.259773
O42   O     O_2   0.240711 0.006379 0.010680 -0.249802
O43   O     O_3   0.175203 0.868881 0.068213 -0.484928
H39   H     H_    0.129137 0.809534 0.043004 0.400397
C95   C     C_2   0.151398 0.984246 0.399857 0.595787
O44   O     O_2   0.140398 0.009421 0.439396 -0.505792
O45   O     O_R   0.069069 0.884550 0.375286 -0.658452
H40   H     H_    0.005948 0.839749 0.394154 0.352832
C96   C     C_2   0.859972 0.002164 0.392415 0.594297
O46   O     O_2   0.852292 0.923172 0.366575 -0.501895
O47   O     O_R   0.900607 0.020345 0.437374 -0.655789
H41   H     H_    0.916544 0.960329 0.444796 0.357397
S4    S     S_3+6 0.526584 0.634012 0.910144 0.049270
O48   O     O_2   0.512755 0.520219 0.906057 -0.219881
O49   O     O_2   0.634552 0.706194 0.890228 -0.262311
O50   O     O_3   0.535980 0.685122 0.964938 -0.472864
H42   H     H_    0.539876 0.757526 0.964956 0.340965

loop_
_geom_bond_atom_site_label_1
_geom_bond_atom_site_label_2
_ccdc_geom_bond_type
C50   H11   S    
C7    C13   A    
S4    O49   D    
C21   C26   S    
C54   H17   S    
C84   O7    A    
Cr5   O15   S    
C96   O46   D    
C73   H23   S    
S1    O28   D    
C73   C74   A    
C14   C18   S    
Cr2   O2    S    
Cr2   O5    S    
C57   C66   S    
O36   H36   S    
C49   C50   S    
Cr6   O11   S    
C81   C82   T    
C53   C59   A    
C7    C8    A    
C47   C49   S    
C5    H9    S    
C53   C54   A    
C15   C19   S    
Cr6   O17   S    
C75   H22   S    
C46   C49   S    
C70   C96   S    
C17   C23   S    
C24   H2    S    
C17   C26   T    
C32   C36   S    
C14   C21   S    
C92   O32   D    
C35   C37   S    
Cr1   O25   S    
Cr3   O5    S    
Cr6   O10   S    
C5    C6    A    
C43   C52   T    
S3    O43   S    
S4    O50   S    
Cr2   O20   S    
C55   H20   S    
C77   C83   A    
C41   S2    S    
S3    O41   D    
C16   C84   S    
C33   C36   S    
O43   H39   S    
C23   O1    A    
C59   C95   S    
C18   C19   S    
C27   H7    S    
Cr6   O19   S    
C40   C93   S    
Cr5   O8    S    
C33   C35   S    
C63   H18   S    
C86   O6    A    
S2    O36   S    
C47   C48   S    
C8    C9    A    
C94   O40   S    
Cr1   O5    S    
C29   C38   T    
C30   C39   T    
C41   C46   S    
C31   C33   S    
C70   C71   A    
C32   C38   S    
C56   O24   A    
Cr3   O4    S    
C75   C80   A    
C40   C44   S    
C6    S1    S    
C44   C47   S    
C42   C51   T    
C44   H13   S    
C48   C50   S    
S4    O48   D    
C45   O2    A    
S1    O29   S    
Cr3   O22   S    
C69   C70   A    
C67   C78   A    
C2    C11   S    
C76   C83   A    
C79   H26   S    
C44   C46   S    
C60   C64   A    
C49   C94   S    
C93   O38   S    
C78   C89   A    
C12   C67   S    
Cr5   O9    S    
C27   C31   S    
C58   H15   S    
Cr4   O14   S    
C12   O22   A    
C71   H28   S    
C28   C32   S    
C19   C22   S    
Cr5   O19   S    
S3    O42   D    
C80   C81   S    
C27   C35   S    
C58   C59   A    
C93   O37   D    
C46   C51   S    
C79   C80   A    
O45   H40   S    
C18   H5    S    
C91   O31   S    
C2    C89   A    
C35   C39   S    
C75   C76   A    
C5    C9    A    
C62   C63   A    
C77   H27   S    
C31   C32   S    
C20   H4    S    
C48   C52   S    
C3    H16   S    
C88   O17   A    
C33   C92   S    
Cr4   O7    S    
C77   C79   A    
C69   C74   A    
C15   C24   S    
C7    S4    S    
Cr1   O12   S    
C43   C45   S    
C34   C69   S    
C29   C86   S    
C56   O4    A    
C1    O12   A    
C86   O11   A    
C8    H30   S    
S2    O34   D    
C20   C22   S    
C94   O39   D    
C34   O26   A    
C15   H32   S    
C55   C57   A    
O29   H33   S    
C31   H10   S    
C22   C24   S    
Cr3   O23   S    
C42   C88   S    
C95   O45   S    
C3    C4    A    
C85   O9    A    
C41   C50   S    
C27   C28   S    
C74   H24   S    
C37   C91   S    
C14   H1    S    
O31   H34   S    
C89   H31   S    
C53   C56   S    
C16   C25   T    
C40   C48   S    
C83   C90   S    
C23   O23   A    
C54   C55   A    
C84   O8    A    
C96   O47   S    
C22   H3    S    
Cr4   O13   S    
C12   O21   A    
Cr4   O19   S    
C72   C73   A    
C4    C67   A    
Cr2   O26   S    
C45   O3    A    
Cr1   O1    S    
O40   H38   S    
Cr6   O18   S    
C61   S3    S    
C76   H21   S    
Cr2   O21   S    
C62   C68   A    
C36   H8    S    
O47   H41   S    
C92   O33   S    
C2    C3    A    
C62   H19   S    
C90   O18   A    
O38   H37   S    
C64   C65   S    
C6    C13   A    
C61   C68   A    
C57   C58   A    
Cr1   O24   S    
O33   H35   S    
C28   C37   S    
S2    O35   D    
C1    C30   S    
Cr4   O6    S    
C4    H25   S    
C9    C10   S    
C18   C20   S    
C65   C66   T    
C87   O14   A    
O50   H42   S    
C19   C25   S    
C91   O30   D    
C34   O25   A    
C90   O13   A    
C60   H14   S    
C10   C11   T    
C63   C64   A    
C28   H6    S    
Cr5   O16   S    
C71   C72   A    
C20   C21   S    
C36   C37   S    
C47   H12   S    
C21   C24   S    
C13   C85   S    
S1    O27   D    
C68   C87   S    
C14   C15   S    
C60   C61   A    
C1    O20   A    
C40   C41   S    
C87   O15   A    
C95   O44   D    
Cr3   O3    S    
C78   H29   S    
C85   O10   A    
C88   O16   A    
C72   C82   S    
