data_mof_unit_37493.cif
_audit_creation_date              2012-12-10T17:09:54-0500
_audit_creation_method            fapswitch 2.2
_symmetry_space_group_name_H-M    P1
_symmetry_Int_Tables_number       1
_space_group_crystal_system       triclinic
_cell_length_a                    10.777165
_cell_length_b                    12.983059
_cell_length_c                    11.671738
_cell_angle_alpha                 100.239459
_cell_angle_beta                  93.643146
_cell_angle_gamma                 90.258892
_cell_volume                      1603.65061881

loop_
_atom_site_label
_atom_site_type_symbol
_atom_type_description
_atom_site_fract_x
_atom_site_fract_y
_atom_site_fract_z
_atom_type_partial_charge
C1    C     C_R   0.498753 0.299094 0.478280 0.781638
C2    C     C_R   0.068792 0.415121 0.552967 0.101296
C3    C     C_R   0.128740 0.489840 0.499846 -0.099729
C4    C     C_R   0.060322 0.558590 0.442333 -0.201776
C5    C     C_R   0.932302 0.557877 0.441122 -0.205465
C6    C     C_R   0.870911 0.488479 0.497545 -0.099072
C7    C     C_R   0.486092 0.815292 0.536616 -0.117772
C8    C     C_R   0.499520 0.185783 0.465694 -0.042292
C9    C     C_R   0.541522 0.015288 0.354621 -0.201779
C10   C     C_R   0.535392 0.123364 0.362705 -0.195645
C11   C     C_R   0.466828 0.139813 0.559191 -0.263423
C12   C     C_R   0.262437 0.496725 0.500093 0.788321
C13   C     C_R   0.471634 0.031910 0.551356 0.123103
C14   C     C_R   0.510472 0.969295 0.449059 0.174247
C15   C     C_R   0.518315 0.861917 0.442885 -0.291312
C16   C     C_R   0.442137 0.877694 0.639062 0.130491
C17   C     C_R   0.437972 0.986542 0.644809 -0.201714
C18   C     C_R   0.394251 0.395055 0.020224 -0.318164
C19   C     C_R   0.402489 0.405413 0.142357 0.093502
C20   C     C_R   0.544520 0.547697 0.158946 0.023961
C21   C     C_R   0.539392 0.541148 0.035351 -0.007094
C22   C     C_R   0.462891 0.462683 0.965728 0.045069
C23   C     C_R   0.496230 0.701149 0.522227 0.803200
C24   C     C_R   0.456222 0.453554 0.842911 0.013889
C25   C     C_R   0.597357 0.595847 0.855592 0.069361
C26   C     C_R   0.607657 0.610054 0.979460 0.039698
C27   C     C_R   0.737442 0.496139 0.499121 0.795597
C28   C     C_R   0.135727 0.338917 0.603247 -0.186637
C29   C     C_R   0.073829 0.265031 0.652946 -0.144303
C30   C     C_R   0.944689 0.264379 0.651884 -0.128962
C31   C     C_R   0.876649 0.337615 0.601125 -0.174668
C32   C     C_R   0.937495 0.414437 0.551817 0.092933
Cu1   Cu    Cu3+1 0.509250 0.507730 0.615930 0.920792
Cu2   Cu    Cu3+1 0.490750 0.492270 0.384070 0.937138
H1    H     H_    0.106591 0.614652 0.400184 0.151823
H2    H     H_    0.408125 0.037415 0.721483 0.146416
H3    H     H_    0.561099 0.158228 0.289716 0.154889
H4    H     H_    0.437326 0.188103 0.638182 0.137163
H5    H     H_    0.396878 0.393979 0.789232 0.121147
H6    H     H_    0.647887 0.645934 0.809728 0.146670
H7    H     H_    0.334625 0.334326 0.968705 0.132971
H8    H     H_    0.349430 0.352699 0.183224 0.125297
H9    H     H_    0.602992 0.605707 0.215529 0.115555
H10   H     H_    0.235760 0.334021 0.602789 0.137121
H11   H     H_    0.126261 0.207157 0.691046 0.127828
H12   H     H_    0.896876 0.205983 0.689166 0.136566
H13   H     H_    0.776436 0.331753 0.599014 0.150562
H14   H     H_    0.880864 0.613597 0.398417 0.142950
H15   H     H_    0.550589 0.814427 0.364622 0.150147
H16   H     H_    0.571069 0.967932 0.275220 0.133798
N1    N     N_R   0.523180 0.519350 0.790130 -0.203026
N2    N     N_R   0.476820 0.480650 0.209890 -0.177058
O1    O     O_R   0.506570 0.354460 0.582000 -0.598958
O2    O     O_R   0.490940 0.341410 0.386200 -0.589510
O3    O     O_R   0.327470 0.506530 0.597920 -0.586829
O4    O     O_R   0.311840 0.493480 0.402120 -0.577576
O5    O     O_R   0.509060 0.658590 0.613800 -0.604078
O6    O     O_R   0.493430 0.645540 0.418000 -0.583843
O7    O     O_R   0.688160 0.506520 0.597880 -0.583805
O8    O     O_R   0.672530 0.493470 0.402080 -0.579271
C33   C     C_3   0.688694 0.697269 0.052632 -0.427331
C34   C     C_3   0.754637 0.769800 0.985154 -0.855896
H17   H     H_    0.820257 0.725064 0.926237 0.252943
H18   H     H_    0.685766 0.810064 0.934301 0.245699
H19   H     H_    0.808939 0.830464 0.047731 0.247509
H20   H     H_    0.629520 0.746920 0.114219 0.199335
H21   H     H_    0.761054 0.661452 0.104583 0.207285
C35   C     C_3   0.398335 0.828039 0.739168 -0.347458
C36   C     C_3   0.331854 0.899974 0.833718 -0.890259
H22   H     H_    0.397103 0.960730 0.883420 0.248358
H23   H     H_    0.250988 0.937202 0.794522 0.254488
H24   H     H_    0.297087 0.853038 0.896171 0.252365
H25   H     H_    0.331956 0.763014 0.702247 0.216277
H26   H     H_    0.479900 0.795623 0.782920 0.215312

loop_
_geom_bond_atom_site_label_1
_geom_bond_atom_site_label_2
_ccdc_geom_bond_type
Cu1   O3    S    
C23   O6    A    
C6    C32   A    
C21   C26   A    
Cu2   O4    S    
C36   H24   S    
C1    C8    S    
C9    C14   A    
C34   H17   S    
C10   H3    S    
C28   C29   A    
C26   C33   S    
C27   O8    A    
C25   H6    S    
C5    C6    A    
C35   H26   S    
C24   H5    S    
C2    C32   A    
C18   C19   A    
C36   H23   S    
C1    O1    A    
C34   H18   S    
C3    C12   S    
C33   H20   S    
C31   C32   A    
C16   C17   A    
C16   C35   S    
C17   H2    S    
C9    C10   A    
C19   H8    S    
C24   N1    A    
C7    C15   A    
C4    H1    S    
Cu1   O7    S    
C31   H13   S    
C21   C22   A    
Cu2   O8    S    
C33   C34   S    
C19   N2    A    
Cu1   O1    S    
C5    H14   S    
C18   H7    S    
C35   C36   S    
C35   H25   S    
C28   H10   S    
C29   H11   S    
C11   H4    S    
C1    O2    A    
C25   N1    A    
C29   C30   A    
C33   H21   S    
C6    C27   S    
Cu1   Cu2   S    
C12   O4    A    
C7    C16   A    
Cu2   O2    S    
C22   C24   A    
C3    C4    A    
C20   H9    S    
C23   O5    A    
Cu1   O5    S    
C34   H19   S    
C18   C22   A    
C30   H12   S    
C9    H16   S    
C4    C5    A    
Cu1   N1    S    
Cu2   N2    S    
C13   C17   A    
C2    C3    A    
C25   C26   A    
C20   N2    A    
C27   O7    A    
C11   C13   A    
C30   C31   A    
C8    C11   A    
C7    C23   S    
C15   H15   S    
C36   H22   S    
C12   O3    A    
C20   C21   A    
C8    C10   A    
Cu2   O6    S    
C14   C15   A    
C2    C28   A    
C13   C14   A    
