data_mof_unit_64147.cif
_audit_creation_date              2012-12-10T17:42:36-0500
_audit_creation_method            fapswitch 2.2
_symmetry_space_group_name_H-M    P1
_symmetry_Int_Tables_number       1
_space_group_crystal_system       triclinic
_cell_length_a                    26.010176
_cell_length_b                    26.068465
_cell_length_c                    26.286081
_cell_angle_alpha                 109.066723
_cell_angle_beta                  110.314337
_cell_angle_gamma                 108.616346
_cell_volume                      13787.8549053

loop_
_atom_site_label
_atom_site_type_symbol
_atom_type_description
_atom_site_fract_x
_atom_site_fract_y
_atom_site_fract_z
_atom_type_partial_charge
C1    C     C_R   0.415355 0.915004 0.000463 0.816961
C2    C     C_R   0.197001 0.664184 0.047352 -0.187367
C3    C     C_R   0.134036 0.633587 0.999978 -0.035720
C4    C     C_R   0.586394 0.000013 0.086506 0.779299
C5    C     C_R   0.117839 0.649241 0.952634 -0.191509
C6    C     C_R   0.164019 0.694684 0.952564 -0.164789
C7    C     C_R   0.226836 0.725491 0.000174 0.132838
C8    C     C_R   0.313582 0.052127 0.838625 -0.177505
C9    C     C_R   0.359361 0.051818 0.884307 -0.196359
C10   C     C_R   0.370381 0.001204 0.868932 -0.016422
C11   C     C_R   0.336540 0.951400 0.808008 -0.198790
C12   C     C_1   0.870266 0.000074 0.370435 -0.198177
C13   C     C_R   0.290746 0.951841 0.762438 -0.177330
C14   C     C_R   0.279647 0.001920 0.778566 0.126518
C15   C     C_R   0.170142 0.975125 0.722306 0.191733
C16   C     C_R   0.585071 0.085069 0.999930 0.785035
C17   C     C_R   0.124302 0.975071 0.675793 -0.192730
C18   C     C_R   0.140133 0.000682 0.640693 -0.065965
C19   C     C_R   0.201413 0.026749 0.651529 -0.199417
C20   C     C_R   0.247210 0.026991 0.697583 -0.222799
C21   C     C_R   0.231298 0.001302 0.732226 0.087036
C22   C     C_R   0.717266 0.165039 0.977163 -0.169207
C23   C     C_R   0.278937 0.763270 0.946402 -0.170774
C24   C     C_R   0.671118 0.119090 0.976772 -0.182227
C25   C     C_R   0.633263 0.133278 0.999750 -0.027920
C26   C     C_R   0.641820 0.193908 0.022573 -0.184319
C27   C     C_R   0.687279 0.239568 0.021995 -0.169135
C28   C     C_R   0.416929 0.000334 0.916486 0.797192
C29   C     C_R   0.725412 0.225436 0.999553 0.100529
C30   C     C_R   0.758119 0.309249 0.973241 -0.167736
C31   C     C_R   0.803909 0.354821 0.972899 -0.184878
C32   C     C_R   0.866109 0.366101 0.999828 -0.033892
C33   C     C_R   0.881773 0.330832 0.026614 -0.186750
C34   C     C_R   0.325049 0.809258 0.946890 -0.260063
C35   C     C_R   0.835744 0.284577 0.026028 -0.168078
C36   C     C_R   0.773754 0.273737 0.999581 0.100950
C37   C     C_R   0.006984 0.085012 0.592077 0.840870
C38   C     C_R   0.922683 0.000061 0.422709 0.777255
C39   C     C_R   0.010165 0.914945 0.424948 0.786298
C40   C     C_1   0.638691 0.000078 0.138973 -0.198507
C41   C     C_R   0.092621 0.000218 0.592731 0.809279
C42   C     C_R   0.998345 0.585302 0.084144 0.804546
C43   C     C_R   0.085580 0.585470 0.999963 0.807269
C44   C     C_R   0.001663 0.414611 0.915919 0.811149
C45   C     C_R   0.367999 0.866835 0.001433 -0.131312
C46   C     C_R   0.914438 0.414430 0.999950 0.805003
C47   C     C_R   0.058166 0.237107 0.725654 -0.247489
C48   C     C_R   0.058759 0.191296 0.680519 -0.260544
C49   C     C_R   0.004764 0.133055 0.638385 -0.196536
C50   C     C_R   0.949072 0.121364 0.640944 0.397492
C51   C     C_R   0.949219 0.166875 0.687945 0.410206
C52   C     C_1   0.681580 0.000090 0.181917 0.004436
C53   C     C_R   0.003600 0.225472 0.729437 -0.077511
C54   C     C_R   0.958874 0.293541 0.759723 -0.093434
C55   C     C_R   0.958308 0.339336 0.804997 -0.210653
C56   C     C_R   0.365447 0.877428 0.056486 0.499542
C57   C     C_R   0.002653 0.366692 0.868235 -0.037736
C58   C     C_R   0.047947 0.347978 0.885441 -0.193306
C59   C     C_R   0.048687 0.302401 0.840050 -0.194574
C60   C     C_R   0.003856 0.274675 0.777071 0.158084
C61   C     C_R   0.027044 0.834844 0.288354 -0.168015
C62   C     C_R   0.030945 0.881257 0.337329 -0.182601
C63   C     C_R   0.008408 0.866598 0.374932 -0.029772
C64   C     C_1   0.732970 0.000092 0.233311 -0.005661
C65   C     C_R   0.982410 0.804968 0.363146 -0.182633
C66   C     C_R   0.979449 0.758815 0.314837 -0.169542
C67   C     C_R   0.318715 0.831145 0.055447 -0.247791
C68   C     C_R   0.001523 0.773430 0.277025 0.099894
C69   C     C_R   0.023987 0.687080 0.240061 -0.168665
C70   C     C_R   0.023480 0.641739 0.193361 -0.183488
C71   C     C_R   0.997659 0.632825 0.132565 -0.034584
C72   C     C_R   0.972338 0.670042 0.119159 -0.186895
C73   C     C_R   0.973809 0.716247 0.166305 -0.165554
C74   C     C_R   0.999527 0.724853 0.226969 0.100390
C75   C     C_1   0.775898 0.000091 0.276212 -0.005650
C76   C     C_1   0.827317 0.000085 0.327571 0.004274
C77   C     C_3   0.153768 0.947563 0.760470 -0.878208
C78   C     C_R   0.275477 0.773977 0.000626 0.028465
C79   C     C_3   0.859579 0.068582 0.547412 -0.243602
C80   C     C_3   0.895686 0.128579 0.730654 -0.269945
C81   C     C_3   0.458113 0.928493 0.146665 -0.303494
C82   C     C_R   0.243029 0.710038 0.047603 -0.169035
Cu1   Cu    Cu3+1 0.500810 0.955960 0.956750 0.941467
Cu2   Cu    Cu3+1 0.499190 0.044040 0.043250 0.974905
Cu3   Cu    Cu3+1 0.053200 0.044090 0.509100 0.941258
Cu4   Cu    Cu3+1 0.965100 0.955990 0.509100 0.969847
Cu5   Cu    Cu3+1 0.043250 0.499980 0.043240 0.936257
Cu6   Cu    Cu3+1 0.956750 0.499990 0.956740 0.939155
H1    H     H_    0.246210 0.719134 0.903805 0.142263
H2    H     H_    0.612999 0.205872 0.040297 0.148547
H3    H     H_    0.326586 0.800144 0.904321 0.168088
H4    H     H_    0.693262 0.286118 0.039760 0.130215
H5    H     H_    0.710342 0.301161 0.952322 0.130077
H6    H     H_    0.790808 0.381589 0.952115 0.148553
H7    H     H_    0.929433 0.338624 0.047488 0.147937
H8    H     H_    0.848600 0.257753 0.046879 0.130347
H9    H     H_    0.100294 0.281937 0.757557 0.167623
H10   H     H_    0.101761 0.201199 0.678971 0.181667
H11   H     H_    0.924364 0.272909 0.711126 0.146957
H12   H     H_    0.385897 0.090822 0.931255 0.154216
H13   H     H_    0.922999 0.353071 0.790514 0.153557
H14   H     H_    0.082765 0.368528 0.933891 0.152771
H15   H     H_    0.083589 0.288067 0.854040 0.135226
H16   H     H_    0.044784 0.846977 0.259899 0.131190
H17   H     H_    0.050797 0.928387 0.345234 0.150826
H18   H     H_    0.964711 0.792502 0.391483 0.150001
H19   H     H_    0.959425 0.711549 0.306574 0.130355
H20   H     H_    0.044402 0.693377 0.286718 0.130187
H21   H     H_    0.043093 0.613448 0.204803 0.148956
H22   H     H_    0.952335 0.664033 0.072613 0.147141
H23   H     H_    0.344762 0.912040 0.795901 0.153871
H24   H     H_    0.316085 0.840109 0.097481 0.149570
H25   H     H_    0.954451 0.744904 0.155419 0.130391
H26   H     H_    0.291399 0.733016 0.084454 0.127276
H27   H     H_    0.210653 0.652940 0.084396 0.150689
H28   H     H_    0.069589 0.626193 0.915536 0.150365
H29   H     H_    0.150633 0.706396 0.915840 0.130433
H30   H     H_    0.304057 0.090696 0.849826 0.135537
H31   H     H_    0.164474 0.908780 0.754932 0.238456
H32   H     H_    0.181575 0.983744 0.810416 0.238867
H33   H     H_    0.103173 0.929034 0.745796 0.226975
H34   H     H_    0.263526 0.913285 0.715141 0.135998
H35   H     H_    0.885974 0.078516 0.523224 0.125641
H36   H     H_    0.845008 0.104241 0.561194 0.169975
H37   H     H_    0.816274 0.023028 0.513600 0.184867
H38   H     H_    0.936556 0.161357 0.778744 0.148163
H39   H     H_    0.895608 0.083616 0.711544 0.180077
H40   H     H_    0.852443 0.119007 0.733699 0.185539
H41   H     H_    0.492211 0.973851 0.189963 0.196066
H42   H     H_    0.483073 0.917680 0.121291 0.142221
H43   H     H_    0.442619 0.892922 0.160531 0.148518
H44   H     H_    0.076639 0.955530 0.667232 0.156471
H45   H     H_    0.213750 0.046293 0.624187 0.162849
H46   H     H_    0.294898 0.046848 0.706203 0.148984
H47   H     H_    0.746147 0.153345 0.959352 0.130338
H48   H     H_    0.665505 0.072692 0.959123 0.150327
O1    O     O_R   0.436410 0.898530 0.963480 -0.595434
O2    O     O_R   0.962300 0.564250 0.026560 -0.588142
O3    O     O_R   0.100790 0.564260 0.036510 -0.589639
O4    O     O_R   0.435050 0.972920 0.036520 -0.529239
O5    O     O_R   0.027750 0.564260 0.963460 -0.590067
O6    O     O_R   0.037700 0.435720 0.973410 -0.591283
O7    O     O_R   0.964660 0.435720 0.900370 -0.589318
O8    O     O_R   0.972250 0.435710 0.036510 -0.590174
O9    O     O_R   0.899210 0.435710 0.963470 -0.588014
O10   O     O_R   0.563780 0.962800 0.026580 -0.564091
O11   O     O_R   0.562420 0.037190 0.099620 -0.557549
O12   O     O_R   0.970770 0.027100 0.572200 -0.535140
O13   O     O_R   0.564950 0.027080 0.963480 -0.585076
O14   O     O_R   0.563590 0.101470 0.036520 -0.587914
O15   O     O_R   0.437580 0.962810 0.900380 -0.591949
O16   O     O_R   0.436220 0.037200 0.973420 -0.592176
O17   O     O_R   0.045170 0.101500 0.572190 -0.593416
O18   O     O_3   0.894847 0.064686 0.599208 -0.554499
O19   O     O_3   0.895076 0.154681 0.691330 -0.578087
O20   O     O_3   0.407123 0.933616 0.110979 -0.563900
O21   O     O_R   0.983250 0.037240 0.445990 -0.564181
O22   O     O_R   0.908850 0.962840 0.446000 -0.559399
O23   O     O_R   0.047530 0.972970 0.446000 -0.586749
O24   O     O_R   0.973130 0.898570 0.446000 -0.585296
O25   O     O_R   0.109450 0.037230 0.572200 -0.590442
O26   O     O_R   0.035050 0.962830 0.572200 -0.593640
O27   O     O_R   0.035340 0.564250 0.099610 -0.589190

loop_
_geom_bond_atom_site_label_1
_geom_bond_atom_site_label_2
_ccdc_geom_bond_type
C66   C68   A    
Cu5   Cu6   S    
C63   C65   A    
C22   C29   A    
C41   O25   A    
C39   O24   A    
C27   C29   A    
Cu3   O25   S    
C73   C74   A    
Cu6   O5    S    
Cu5   O27   S    
C35   C36   A    
C37   O12   A    
C66   H19   S    
C56   O20   S    
C77   H32   S    
C81   H42   S    
C8    H30   S    
C62   H17   S    
C54   C60   A    
C35   H8    S    
C29   C36   S    
C51   O19   S    
C26   C27   A    
C81   O20   S    
Cu1   Cu2   S    
C14   C21   S    
C30   H5    S    
C39   C63   S    
Cu3   Cu4   S    
C30   C31   A    
C81   H43   S    
C46   O9    A    
C42   O2    A    
C68   C74   S    
C73   H25   S    
C18   C19   A    
C49   C50   A    
C34   H3    S    
C53   C60   S    
C4    C40   S    
C45   C56   A    
C8    C9    A    
Cu6   O9    S    
C23   H1    S    
C43   O3    A    
C70   C71   A    
C58   H14   S    
Cu5   O8    S    
C9    C10   A    
Cu6   O7    S    
C47   C53   A    
C24   H48   S    
C79   H37   S    
C4    O10   A    
C59   C60   A    
Cu5   O6    S    
C41   O26   A    
C17   H44   S    
C69   C70   A    
C67   C78   A    
Cu3   O21   S    
C33   H7    S    
C69   H20   S    
C50   C51   A    
Cu1   O15   S    
C72   H22   S    
C11   H23   S    
C37   O17   A    
C69   C74   A    
C61   H16   S    
C77   H33   S    
C24   C25   A    
C38   O22   A    
C52   C64   S    
C18   C41   S    
C42   O27   A    
C46   O8    A    
C80   H40   S    
C3    C5    A    
C25   C26   A    
C40   C52   T    
C4    O11   A    
C79   H35   S    
C51   C53   A    
C75   C76   S    
C62   C63   A    
C70   H21   S    
Cu1   O10   S    
C37   C49   S    
C2    H27   S    
C81   H41   S    
C47   C48   A    
C44   C57   S    
C23   C34   A    
C3    C43   S    
C17   C18   A    
C27   H4    S    
C34   C45   A    
Cu3   O17   S    
Cu4   O22   S    
C82   H26   S    
C16   O13   A    
C1    O4    A    
C7    C78   S    
Cu4   O26   S    
Cu2   O16   S    
C48   C49   A    
C28   O16   A    
C9    H12   S    
C55   C57   A    
C5    H28   S    
C22   C24   A    
C54   H11   S    
C2    C82   A    
C26   H2    S    
C56   C67   A    
C65   H18   S    
Cu1   O1    S    
C1    O1    A    
C80   O19   S    
Cu2   O11   S    
C10   C28   S    
C16   C25   S    
C15   C17   A    
C55   H13   S    
C54   C55   A    
C8    C14   A    
C6    H29   S    
C39   O23   A    
C15   C77   S    
C32   C46   S    
C31   C32   A    
C38   O21   A    
Cu5   O3    S    
C72   C73   A    
C77   H31   S    
Cu4   O12   S    
C6    C7    A    
C80   H39   S    
C19   H45   S    
C31   H6    S    
C48   H10   S    
C79   H36   S    
Cu6   O2    S    
C47   H9    S    
C30   C36   A    
C22   H47   S    
C59   H15   S    
C32   C33   A    
C19   C20   A    
C12   C76   T    
C2    C3    A    
C58   C59   A    
C71   C72   A    
C79   O18   S    
C13   H34   S    
C11   C13   A    
C61   C68   A    
C1    C45   S    
C57   C58   A    
C5    C6    A    
C80   H38   S    
C50   O18   S    
C44   O7    A    
C42   C71   S    
C33   C35   A    
C64   C75   T    
C23   C78   A    
C12   C38   S    
C61   C62   A    
C43   O5    A    
C10   C11   A    
C67   H24   S    
C15   C21   A    
C7    C82   A    
C20   C21   A    
Cu2   O4    S    
C28   O15   A    
C44   O6    A    
C65   C66   A    
C16   O14   A    
Cu3   O23   S    
C20   H46   S    
C13   C14   A    
Cu4   O24   S    
Cu1   O13   S    
Cu2   O14   S    
