data_mof_unit_59491.cif
_audit_creation_date              2012-10-26T20:20:46-0400
_audit_creation_method            fapswitch 2.2
_symmetry_space_group_name_H-M    P1
_symmetry_Int_Tables_number       1
_space_group_crystal_system       triclinic
_cell_length_a                    8.728651
_cell_length_b                    10.82571
_cell_length_c                    9.564468
_cell_angle_alpha                 90.087573
_cell_angle_beta                  98.437511
_cell_angle_gamma                 90.731765
_cell_volume                      893.923034476

loop_
_atom_site_label
_atom_site_type_symbol
_atom_type_description
_atom_site_fract_x
_atom_site_fract_y
_atom_site_fract_z
_atom_type_partial_charge
C1    C     C_R   0.497200 0.262336 0.499785 0.576239
C2    C     C_R   0.431197 0.061606 0.604134 0.080576
C3    C     C_R   0.504029 0.871587 0.499655 0.036234
C4    C     C_R   0.495958 0.128413 0.500358 0.038192
C5    C     C_R   0.395126 0.429288 0.059665 0.204302
C6    C     C_R   0.607524 0.568588 0.943334 0.200310
C7    C     C_R   0.394592 0.430649 0.910732 -0.001088
C8    C     C_R   0.604356 0.569528 0.090289 0.042702
C9    C     C_R   0.502773 0.737665 0.500211 0.567544
C10   C     C_R   0.203728 0.499900 0.463489 0.552898
C11   C     C_R   0.796270 0.500108 0.536512 0.543818
C12   C     C_2   0.037448 0.499963 0.443726 -0.147059
C13   C     C_2   0.962546 0.500060 0.556288 -0.153268
C14   C     C_R   0.563437 0.066567 0.396780 -0.160936
C15   C     C_R   0.436564 0.933433 0.603243 -0.162352
C16   C     C_R   0.568853 0.938396 0.395923 0.077521
Cu1   Cu    Cu3+1 0.500000 0.500020 0.640660 0.945456
Cu2   Cu    Cu3+1 0.500000 0.499980 0.359340 0.986686
H1    H     H_    0.976505 0.499973 0.336092 0.128136
H2    H     H_    0.412094 0.098233 0.808098 0.224382
H3    H     H_    0.174998 0.378055 0.072800 0.200959
H4    H     H_    0.302873 0.261240 0.087854 0.201676
H5    H     H_    0.815466 0.576279 0.871972 0.248063
H6    H     H_    0.691671 0.694421 0.812483 0.275457
H7    H     H_    0.023483 0.500049 0.663924 0.120572
H8    H     H_    0.615023 0.117746 0.317766 0.128936
H9    H     H_    0.384989 0.882256 0.682263 0.130483
H10   H     H_    0.310704 0.374781 0.842894 0.129872
H11   H     H_    0.688800 0.624312 0.158944 0.150177
H12   H     H_    0.588366 0.901851 0.192037 0.229746
H13   H     H_    0.758439 0.909169 0.302311 0.223649
H14   H     H_    0.241830 0.090795 0.698101 0.221262
N1    N     N_R   0.500040 0.500030 0.852080 -0.229393
N2    N     N_R   0.499960 0.499970 0.147920 -0.220920
N3    N     N_3   0.643894 0.876935 0.292210 -0.612420
N4    N     N_3   0.356342 0.123071 0.707976 -0.616395
N5    N     N_3   0.286397 0.352427 0.118001 -0.556831
N6    N     N_3   0.731479 0.637018 0.896497 -0.652192
O1    O     O_R   0.499990 0.319660 0.618740 -0.465035
O2    O     O_R   0.500010 0.680340 0.381260 -0.464978
O3    O     O_R   0.499990 0.319630 0.381170 -0.490536
O4    O     O_R   0.500010 0.680370 0.618830 -0.532917
O5    O     O_R   0.274840 0.500010 0.591370 -0.508760
O6    O     O_R   0.725160 0.499990 0.408630 -0.510286
O7    O     O_R   0.274830 0.499980 0.353800 -0.465830
O8    O     O_R   0.725170 0.500020 0.646200 -0.514656

loop_
_geom_bond_atom_site_label_1
_geom_bond_atom_site_label_2
_ccdc_geom_bond_type
C2    C4    A    
Cu1   O5    S    
C3    C9    S    
C5    N5    S    
H5    N6    S    
C11   C13   S    
C1    O1    A    
H6    N6    S    
C6    N1    A    
C1    C4    S    
C5    N2    A    
C7    H10   S    
C10   O7    A    
C6    N6    S    
Cu1   Cu2   S    
H3    N5    S    
C11   O6    A    
C8    N2    A    
C14   H8    S    
C2    C15   A    
Cu2   N2    S    
C13   H7    S    
C9    O4    A    
Cu1   N1    S    
H12   N3    S    
C8    H11   S    
C10   C12   S    
C12   H1    S    
C1    O3    A    
H13   N3    S    
C16   N3    S    
C4    C14   A    
C14   C16   A    
C7    N1    A    
H2    N4    S    
Cu2   O7    S    
H14   N4    S    
Cu2   O6    S    
C3    C15   A    
Cu1   O8    S    
Cu1   O1    S    
Cu2   O3    S    
C2    N4    S    
C5    C7    A    
Cu2   O2    S    
Cu1   O4    S    
C11   O8    A    
C6    C8    A    
C12   C13   D    
C10   O5    A    
H4    N5    S    
C15   H9    S    
C9    O2    A    
C3    C16   A    
