data_mof_unit_63732.cif
_audit_creation_date              2012-10-26T18:38:19-0400
_audit_creation_method            fapswitch 2.2
_symmetry_space_group_name_H-M    P1
_symmetry_Int_Tables_number       1
_space_group_crystal_system       triclinic
_cell_length_a                    27.76794
_cell_length_b                    14.655627
_cell_length_c                    15.89675
_cell_angle_alpha                 90.01912
_cell_angle_beta                  90.295125
_cell_angle_gamma                 90.086695
_cell_volume                      6469.19326958

loop_
_atom_site_label
_atom_site_type_symbol
_atom_type_description
_atom_site_fract_x
_atom_site_fract_y
_atom_site_fract_z
_atom_type_partial_charge
C1    C     C_R   0.500085 0.500004 0.660151 0.553519
C2    C     C_R   0.025070 0.547944 0.573957 -0.002491
C3    C     C_R   0.025243 0.508956 0.423239 0.029499
C4    C     C_R   0.592906 0.500053 0.498897 0.567082
C5    C     C_R   0.050639 0.528722 0.499344 -0.003152
C6    C     C_R   0.050087 0.587490 0.642850 0.075301
C7    C     C_R   0.100958 0.585377 0.645950 0.133508
C8    C     C_R   0.127218 0.552693 0.575155 0.007800
C9    C     C_R   0.101573 0.528055 0.501012 -0.059992
C10   C     C_R   0.126795 0.500631 0.428510 0.014836
C11   C     C_R   0.177067 0.497031 0.430445 0.428943
C12   C     C_R   0.720427 0.585237 0.521969 0.143609
C13   C     C_R   0.178260 0.546107 0.573528 0.429287
C14   C     C_R   0.275728 0.438953 0.538601 -0.036497
C15   C     C_R   0.325925 0.431491 0.539406 0.108109
C16   C     C_R   0.499936 0.499975 0.339973 0.553214
C17   C     C_R   0.330831 0.577449 0.466515 -0.143856
C18   C     C_R   0.280820 0.584465 0.466664 0.142261
C19   C     C_R   0.253091 0.514518 0.502161 0.212711
C20   C     C_R   0.974990 0.529070 0.575436 0.030284
C21   C     C_R   0.949513 0.522990 0.498676 0.039047
C22   C     C_R   0.974604 0.521392 0.421763 0.028348
C23   C     C_R   0.747200 0.508072 0.499277 0.221876
C24   C     C_R   0.949923 0.511444 0.650550 -0.104899
C25   C     C_R   0.898030 0.536652 0.347275 -0.088662
C26   C     C_R   0.051511 0.474613 0.353657 0.066653
C27   C     C_R   0.101543 0.473264 0.356469 -0.066281
C28   C     C_R   0.407216 0.499914 0.501499 0.552427
C29   C     C_R   0.948237 0.535616 0.347021 -0.103616
C30   C     C_3   0.493614 0.403752 0.951546 -0.029419
C31   C     C_3   0.465843 0.572695 0.952184 -0.012423
C32   C     C_3   0.459355 0.557982 0.047559 -0.038517
C33   C     C_3   0.494090 0.403079 0.048971 -0.045066
C34   C     C_R   0.898662 0.518690 0.498847 -0.024524
C35   C     C_1   0.500459 0.500002 0.250687 0.036648
C36   C     C_3   0.503468 0.502506 0.916893 -0.008054
C37   C     C_3   0.503199 0.501844 0.083448 -0.005118
C38   C     C_3   0.553099 0.541850 0.050119 0.212424
C39   C     C_3   0.554838 0.533639 0.949299 0.147669
C40   C     C_1   0.501392 0.500571 0.175372 0.036620
C41   C     C_1   0.501900 0.500955 0.824772 0.043457
C42   C     C_R   0.823342 0.503213 0.573730 0.428370
C43   C     C_1   0.500870 0.500144 0.749432 0.039631
C44   C     C_3   0.491715 0.946722 0.409982 0.021137
C45   C     C_R   0.873802 0.508140 0.575162 0.029493
C46   C     C_3   0.490966 0.054290 0.410917 0.016516
C47   C     C_3   0.544936 0.945678 0.537847 -0.002743
C48   C     C_3   0.546370 0.053872 0.534747 0.008289
C49   C     C_3   0.495206 0.907825 0.502831 0.003798
C50   C     C_3   0.495932 0.092454 0.503888 0.018680
C51   C     C_3   0.453654 0.055682 0.565663 0.354124
C52   C     C_3   0.451181 0.943091 0.559991 0.335506
C53   C     C_1   0.497989 0.195355 0.500209 0.133560
C54   C     C_1   0.497668 0.804633 0.499795 0.130522
C55   C     C_R   0.822368 0.521621 0.424385 0.419036
C56   C     C_R   0.899973 0.501568 0.650551 -0.086975
C57   C     C_R   0.723539 0.427988 0.474679 -0.065586
C58   C     C_R   0.673130 0.423858 0.472138 0.109424
C59   C     C_R   0.670303 0.581246 0.521197 -0.142127
C60   C     C_3   0.609377 0.884809 0.630609 -0.279444
C61   C     C_3   0.602454 0.166528 0.599673 -0.300393
C62   C     C_3   0.372016 0.936172 0.464131 -0.249262
C63   C     C_3   0.366574 0.090714 0.600441 -0.276396
C64   C     C_3   0.418518 0.908138 0.705992 -0.281377
C65   C     C_3   0.465102 0.179793 0.678743 -0.274807
C66   C     C_3   0.461516 0.904308 0.268807 -0.255489
C67   C     C_R   0.872841 0.524973 0.422691 0.028053
C68   C     C_3   0.464958 0.158936 0.296330 -0.295319
C69   C     C_3   0.361333 0.372852 0.667353 -0.257182
C70   C     C_3   0.635164 0.345515 0.355996 -0.242894
C71   C     C_R   0.646053 0.501015 0.497157 0.012894
C72   C     C_R   0.354091 0.501306 0.501926 -0.005732
Cu1   Cu    Cu3+1 0.500060 0.410080 0.500090 0.964921
Cu2   Cu    Cu3+1 0.500060 0.589920 0.500090 1.010536
H1    H     H_    0.650307 0.641256 0.539918 0.152357
H2    H     H_    0.521956 0.356895 0.929076 0.196467
H3    H     H_    0.524897 0.073940 0.378145 0.104417
H4    H     H_    0.526099 0.926279 0.379076 0.103868
H5    H     H_    0.572443 0.922428 0.491558 0.119752
H6    H     H_    0.572931 0.069633 0.484276 0.106247
H7    H     H_    0.881976 0.489783 0.709857 0.183325
H8    H     H_    0.254048 0.385853 0.567048 0.151480
H9    H     H_    0.968954 0.503015 0.709552 0.159498
H10   H     H_    0.541751 0.927061 0.671826 0.274584
H11   H     H_    0.614789 0.851660 0.692748 0.181954
H12   H     H_    0.744558 0.369229 0.455961 0.132268
H13   H     H_    0.631015 0.948531 0.628472 0.160034
H14   H     H_    0.622071 0.836957 0.581275 0.168861
H15   H     H_    0.568642 0.063106 0.665394 0.269821
H16   H     H_    0.607552 0.205536 0.658955 0.170916
H17   H     H_    0.592979 0.215499 0.549030 0.185767
H18   H     H_    0.636749 0.131838 0.583693 0.145296
H19   H     H_    0.401649 0.833885 0.538582 0.251707
H20   H     H_    0.337580 0.955253 0.494188 0.157229
H21   H     H_    0.363108 0.880664 0.419055 0.152087
H22   H     H_    0.386033 0.993530 0.428019 0.216519
H23   H     H_    0.879108 0.546224 0.288190 0.184028
H24   H     H_    0.409176 0.162676 0.519690 0.226374
H25   H     H_    0.333706 0.116954 0.568621 0.146809
H26   H     H_    0.372534 0.132277 0.657762 0.158677
H27   H     H_    0.359223 0.019634 0.619017 0.179433
H28   H     H_    0.471469 0.838180 0.645887 0.269073
H29   H     H_    0.430016 0.873510 0.764908 0.166017
H30   H     H_    0.385699 0.872875 0.682545 0.165519
H31   H     H_    0.410016 0.979255 0.723359 0.181870
H32   H     H_    0.489684 0.046480 0.686527 0.272583
H33   H     H_    0.452593 0.183898 0.744805 0.167723
H34   H     H_    0.351598 0.632070 0.438447 0.150423
H35   H     H_    0.440957 0.222468 0.639714 0.153294
H36   H     H_    0.501915 0.208987 0.676274 0.188288
H37   H     H_    0.441555 0.843434 0.378890 0.265208
H38   H     H_    0.427516 0.885649 0.235978 0.184403
H39   H     H_    0.489358 0.852560 0.253514 0.169543
H40   H     H_    0.473464 0.971640 0.245223 0.185097
H41   H     H_    0.421738 0.115458 0.392886 0.264360
H42   H     H_    0.432726 0.176308 0.257963 0.171741
H43   H     H_    0.492417 0.129340 0.253788 0.170102
H44   H     H_    0.479394 0.222476 0.325021 0.169556
H45   H     H_    0.120713 0.446694 0.302595 0.197401
H46   H     H_    0.371147 0.318450 0.547087 0.270471
H47   H     H_    0.372140 0.307897 0.697837 0.151481
H48   H     H_    0.330986 0.402256 0.703681 0.199491
H49   H     H_    0.392388 0.420704 0.668999 0.167740
H50   H     H_    0.669130 0.283887 0.457098 0.242302
H51   H     H_    0.614913 0.282299 0.340344 0.153023
H52   H     H_    0.667099 0.350316 0.314350 0.174174
H53   H     H_    0.611173 0.404779 0.344151 0.180480
H54   H     H_    0.966162 0.549683 0.288350 0.165584
H55   H     H_    0.457907 0.380960 0.070759 0.168690
H56   H     H_    0.426028 0.516817 0.055840 0.180998
H57   H     H_    0.479985 0.642784 0.943202 0.189704
I1    I     I_    0.021874 0.397893 0.251324 -0.295769
I2    I     I_    0.615151 0.483859 0.115541 -0.194522
I3    I     I_    0.564069 0.679828 0.098053 -0.222985
I4    I     I_    0.134810 0.633852 0.759978 -0.113347
I5    I     I_    0.012297 0.677716 0.727136 -0.239704
I6    I     I_    0.248826 0.703029 0.414698 -0.264883
I7    I     I_    0.429971 0.336430 0.902629 -0.386820
I8    I     I_    0.396955 0.579859 0.887882 -0.280521
I9    I     I_    0.754054 0.709850 0.556086 -0.259466
I10   I     I_    0.436215 0.680458 0.112160 -0.321010
I11   I     I_    0.536018 0.291401 0.099321 -0.354091
I12   I     I_    0.610093 0.441270 0.900741 -0.216068
I13   I     I_    0.577632 0.657749 0.883477 -0.252597
N1    N     N_R   0.798790 0.511006 0.499171 -0.390273
N2    N     N_2   0.465460 0.084594 0.652586 -0.491799
N3    N     N_2   0.453358 0.906354 0.358773 -0.493559
N4    N     N_2   0.451674 0.094292 0.361345 -0.501155
N5    N     N_2   0.346606 0.355295 0.581451 -0.535178
N6    N     N_2   0.650233 0.342612 0.443256 -0.514513
N7    N     N_R   0.201512 0.519778 0.501930 -0.391705
N8    N     N_1   0.499020 0.275030 0.498610 -0.217125
N9    N     N_1   0.499020 0.724970 0.498610 -0.194026
N10   N     N_2   0.558770 0.904943 0.618391 -0.518950
N11   N     N_2   0.564598 0.099459 0.610699 -0.525081
N12   N     N_2   0.405799 0.902770 0.526988 -0.504119
N13   N     N_2   0.407077 0.097261 0.542945 -0.512772
N14   N     N_2   0.457274 0.903093 0.644915 -0.531725
O1    O     O_R   0.500050 0.424030 0.620640 -0.504083
O2    O     O_2   0.205026 0.565012 0.642092 -0.436547
O3    O     O_2   0.797005 0.529097 0.352082 -0.463876
O4    O     O_2   0.201556 0.470316 0.361547 -0.459802
O5    O     O_R   0.500050 0.575970 0.620640 -0.479036
O6    O     O_R   0.569790 0.424080 0.500060 -0.462366
O7    O     O_R   0.569790 0.575920 0.500060 -0.499937
O8    O     O_R   0.500050 0.424100 0.379510 -0.501969
O9    O     O_R   0.500050 0.575900 0.379510 -0.477155
O10   O     O_R   0.430320 0.424060 0.500090 -0.503975
O11   O     O_R   0.430320 0.575940 0.500090 -0.501671
O12   O     O_2   0.798946 0.491240 0.646097 -0.453257

loop_
_geom_bond_atom_site_label_1
_geom_bond_atom_site_label_2
_ccdc_geom_bond_type
C44   C49   S    
C10   C27   A    
C64   H29   S    
C8    C13   A    
C30   I7    S    
C66   H39   S    
C62   H22   S    
Cu1   Cu2   S    
C70   N6    S    
C47   H5    S    
C24   C56   A    
C63   H27   S    
H28   N14   S    
C54   N9    T    
C32   H56   S    
C60   H14   S    
C7    C8    A    
C47   C49   S    
C28   C72   S    
C57   H12   S    
C7    I4    S    
C15   C72   A    
C23   N1    S    
C12   C23   A    
H46   N5    S    
C63   H26   S    
C36   C39   S    
C22   C29   A    
C24   H9    S    
Cu1   O6    S    
C16   C35   S    
Cu2   O5    S    
C58   C71   A    
H15   N11   S    
C69   H49   S    
C16   O9    A    
C33   H55   S    
C49   C54   S    
C44   N3    S    
C4    O7    A    
C23   C57   A    
C18   C19   A    
C38   I2    S    
C63   H25   S    
Cu2   O11   S    
C31   H57   S    
C42   O12   S    
C68   H44   S    
C12   C59   A    
H10   N10   S    
C1    C43   S    
C46   N4    S    
C20   C24   A    
C45   C56   A    
C16   O8    A    
C8    C9    A    
C25   C67   A    
C53   N8    T    
C6    I5    S    
C4    O6    A    
C9    C10   A    
C13   O2    S    
C68   N4    S    
C61   H18   S    
C70   H52   S    
C48   C50   S    
C62   H21   S    
C52   N14   S    
C41   C43   T    
C36   C41   S    
C2    C6    A    
Cu1   O10   S    
C61   N11   S    
Cu2   O9    S    
C60   H13   S    
C44   C46   S    
C46   C50   S    
C50   C51   S    
C3    C26   A    
C25   C29   A    
C50   C53   S    
C2    C20   A    
C51   C52   S    
C47   C48   S    
C1    O1    A    
C13   N7    A    
C17   H34   S    
C56   H7    S    
C21   C34   A    
C51   N2    S    
H41   N4    S    
C51   N13   S    
C11   O4    S    
C33   C37   S    
Cu2   N9    S    
C42   C45   A    
C18   I6    S    
C5    C9    A    
C37   C38   S    
H37   N3    S    
C68   H43   S    
C30   H2    S    
C19   N7    S    
C31   C32   S    
H24   N13   S    
C69   H47   S    
C49   C52   S    
C65   H35   S    
C12   I9    S    
C17   C18   A    
C66   N3    S    
C34   C45   A    
C32   C37   S    
C39   I13   S    
C55   O3    S    
C32   I10   S    
C68   H42   S    
C70   H51   S    
C25   H23   S    
C48   N11   S    
C39   I12   S    
C62   H20   S    
Cu1   N8    S    
C26   C27   A    
C2    C5    A    
C52   N12   S    
C63   N13   S    
C31   I8    S    
C59   H1    S    
C15   N5    S    
C26   I1    S    
C61   H16   S    
C11   N7    A    
C64   H30   S    
H50   N6    S    
C66   H40   S    
C30   C33   S    
C64   H31   S    
C14   C15   A    
C14   C19   A    
H19   N12   S    
Cu1   O8    S    
C3    C5    A    
C34   C67   A    
C46   H3    S    
C55   C67   A    
C60   H11   S    
C6    C7    A    
C47   N10   S    
C27   H45   S    
C33   I11   S    
C37   C40   S    
Cu1   O1    S    
H32   N2    S    
C30   C36   S    
C69   N5    S    
C48   H6    S    
C44   H4    S    
C35   C40   T    
C70   H53   S    
C4    C71   S    
C57   C58   A    
C38   C39   S    
C69   H48   S    
C62   N12   S    
C38   I3    S    
C60   N10   S    
C65   H36   S    
C55   N1    A    
C10   C11   A    
C28   O10   A    
C58   N6    S    
C28   O11   A    
C20   C21   A    
C1    O5    A    
C17   C72   A    
C29   H54   S    
C64   N14   S    
C14   H8    S    
C31   C36   S    
C3    C22   A    
C66   H38   S    
C65   N2    S    
C21   C22   A    
C42   N1    A    
C65   H33   S    
Cu2   O7    S    
C61   H17   S    
C59   C71   A    
