data_mof_unit_26575.cif
_audit_creation_date              2012-12-10T20:04:49-0500
_audit_creation_method            fapswitch 2.2
_symmetry_space_group_name_H-M    P1
_symmetry_Int_Tables_number       1
_space_group_crystal_system       triclinic
_cell_length_a                    10.67884
_cell_length_b                    19.315624
_cell_length_c                    18.654092
_cell_angle_alpha                 89.315591
_cell_angle_beta                  102.951651
_cell_angle_gamma                 91.053282
_cell_volume                      3749.10775758

loop_
_atom_site_label
_atom_site_type_symbol
_atom_type_description
_atom_site_fract_x
_atom_site_fract_y
_atom_site_fract_z
_atom_type_partial_charge
C1    C     C_R   0.499410 0.366201 0.500454 0.964146
C2    C     C_R   0.499725 0.634139 0.499695 0.953891
C3    C     C_R   0.491965 0.709312 0.498689 -0.372996
C4    C     C_R   0.495429 0.291466 0.501764 -0.367724
C5    C     C_R   0.361397 0.964029 0.485639 0.440692
C6    C     C_R   0.596986 0.037155 0.510124 0.436224
C7    C     C_R   0.362876 0.035826 0.492600 0.326982
C8    C     C_R   0.596440 0.965108 0.512095 0.329365
C9    C     C_R   0.480901 0.072450 0.503888 -0.217678
C10   C     C_R   0.478265 0.928550 0.498538 -0.222030
C11   C     C_R   0.500826 0.560930 0.727072 0.409303
C12   C     C_R   0.386452 0.503903 0.258296 0.396356
C13   C     C_R   0.487555 0.561209 0.800977 0.332341
C14   C     C_R   0.385681 0.509993 0.182278 0.340037
C15   C     C_R   0.498495 0.499380 0.842096 -0.192952
C16   C     C_R   0.498409 0.498598 0.157465 -0.189841
C17   C     C_R   0.508169 0.437305 0.805373 0.292714
C18   C     C_R   0.613106 0.489541 0.210579 0.303035
C19   C     C_R   0.497162 0.438350 0.727741 0.451169
C20   C     C_R   0.613085 0.497036 0.286532 0.419986
C21   C     C_R   0.410759 0.458055 0.950724 -0.381146
C22   C     C_R   0.583391 0.541262 0.048351 -0.376835
C23   C     C_R   0.258369 0.499015 0.469675 0.749235
C24   C     C_R   0.741513 0.498225 0.530288 0.764063
C25   C     C_R   0.412249 0.455105 0.026482 0.584153
C26   C     C_R   0.588231 0.540375 0.973439 0.582563
C27   C     C_R   0.497647 0.498099 0.076398 0.082552
C28   C     C_R   0.499501 0.499419 0.923135 0.089668
C29   C     C_2   0.119116 0.492306 0.453013 0.368331
C30   C     C_2   0.879973 0.490016 0.546582 0.353843
C31   C     C_2   0.066933 0.459988 0.503334 -0.255144
C32   C     C_2   0.930123 0.458831 0.496092 -0.233300
C33   C     C_R   0.557352 0.748975 0.454506 0.463574
C34   C     C_R   0.410318 0.255710 0.445523 0.450826
C35   C     C_R   0.543420 0.820294 0.451120 -0.298666
C36   C     C_R   0.409129 0.183951 0.446210 -0.298116
C37   C     C_R   0.477606 0.853181 0.497462 -0.029864
C38   C     C_R   0.482979 0.147824 0.505785 -0.035630
C39   C     C_R   0.418223 0.814389 0.545119 0.482474
C40   C     C_R   0.561082 0.183632 0.565170 0.488023
C41   C     C_R   0.419252 0.742284 0.542662 0.334460
C42   C     C_R   0.572835 0.255485 0.561015 0.340777
N1    N     N_R   0.500020 0.499980 0.689440 -0.221012
N2    N     N_R   0.499980 0.500020 0.310560 -0.214860
O1    O     O_R   0.500000 0.398180 0.560840 -0.542349
O2    O     O_R   0.500000 0.601820 0.439160 -0.606309
O3    O     O_R   0.499950 0.398180 0.439200 -0.584089
O4    O     O_R   0.500050 0.601820 0.560800 -0.523851
O5    O     O_R   0.317830 0.500010 0.538110 -0.651164
O6    O     O_R   0.682170 0.499990 0.461890 -0.599337
O7    O     O_R   0.317770 0.500000 0.416470 -0.540415
O8    O     O_R   0.682230 0.500000 0.583530 -0.586579
Zn1   Zn    Zn3+2 0.500040 0.500000 0.581220 1.013459
Zn2   Zn    Zn3+2 0.499960 0.500000 0.418780 1.000902
H1    H     H_    0.870577 0.440090 0.444759 0.220042
H2    H     H_    0.125104 0.442596 0.555574 0.160539
O9    O     O_3   0.472989 0.623285 0.834068 -0.540526
C43   C     C_3   0.341046 0.638556 0.818511 -0.258941
H3    H     H_    0.284921 0.597657 0.840696 0.141337
H4    H     H_    0.302114 0.645825 0.758383 0.186898
H5    H     H_    0.328565 0.687850 0.845800 0.181263
O10   O     O_3   0.271689 0.522668 0.132163 -0.541951
C44   C     C_3   0.255609 0.594877 0.125611 -0.283572
H6    H     H_    0.335360 0.620417 0.105146 0.148719
H7    H     H_    0.247401 0.617968 0.178731 0.169961
H8    H     H_    0.164901 0.605280 0.084831 0.181177
O11   O     O_3   0.552499 0.379222 0.847438 -0.561707
C45   C     C_3   0.457542 0.326442 0.839615 -0.225511
H9    H     H_    0.466975 0.290575 0.795193 0.200036
H10   H     H_    0.357994 0.346164 0.830379 0.112751
H11   H     H_    0.474522 0.295671 0.891371 0.162773
O12   O     O_3   0.717403 0.462170 0.188100 -0.580372
C46   C     C_3   0.823295 0.508563 0.200147 -0.212238
H12   H     H_    0.886240 0.498993 0.255001 0.248458
H13   H     H_    0.795572 0.563843 0.193113 0.108546
H14   H     H_    0.881081 0.497916 0.159083 0.170564
O13   O     O_3   0.488970 0.375976 0.692040 -0.507606
C47   C     C_3   0.357466 0.359469 0.664302 -0.282923
H15   H     H_    0.313430 0.395610 0.619782 0.179719
H16   H     H_    0.300272 0.360025 0.707141 0.107032
H17   H     H_    0.349722 0.306617 0.640885 0.162624
O14   O     O_3   0.728878 0.505115 0.335609 -0.570498
C48   C     C_3   0.748350 0.576756 0.349602 -0.203772
H18   H     H_    0.662269 0.601899 0.360841 0.220681
H19   H     H_    0.776842 0.604403 0.303262 0.105931
H20   H     H_    0.826112 0.583501 0.399429 0.194231
H21   H     H_    0.338991 0.427836 0.913433 0.180401
H22   H     H_    0.647153 0.576348 0.084532 0.179096
O15   O     O_3   0.325760 0.411811 0.050738 -0.567870
C49   C     C_3   0.382642 0.346571 0.067041 -0.311664
H23   H     H_    0.471939 0.350240 0.111220 0.177445
H24   H     H_    0.403132 0.322534 0.017029 0.155355
H25   H     H_    0.314134 0.311859 0.087446 0.192900
O16   O     O_3   0.676952 0.582196 0.949287 -0.576589
C50   C     C_3   0.792790 0.545813 0.958810 -0.306024
H26   H     H_    0.779233 0.496987 0.926621 0.184732
H27   H     H_    0.834030 0.534647 0.017993 0.165300
H28   H     H_    0.863535 0.578654 0.938068 0.186645
O17   O     O_3   0.957860 0.512470 0.612379 -0.590528
C51   C     C_3   0.949738 0.585072 0.616390 -0.341179
H29   H     H_    0.855146 0.600425 0.625826 0.157147
H30   H     H_    0.967366 0.611186 0.565914 0.131853
H31   H     H_    0.024764 0.603665 0.663733 0.187107
O18   O     O_3   0.043274 0.513658 0.386029 -0.594782
C52   C     C_3   0.069874 0.583948 0.372454 -0.322794
H32   H     H_    0.006995 0.599966 0.319460 0.175612
H33   H     H_    0.169903 0.593072 0.366544 0.208312
H34   H     H_    0.048282 0.617570 0.415964 0.115933
O19   O     O_3   0.636269 0.718569 0.414973 -0.601324
C53   C     C_3   0.764517 0.725738 0.455335 -0.375219
H35   H     H_    0.780129 0.694294 0.506853 0.143713
H36   H     H_    0.792422 0.780821 0.468179 0.204329
H37   H     H_    0.829618 0.706546 0.421609 0.168529
O20   O     O_3   0.328852 0.290654 0.389256 -0.592906
C54   C     C_3   0.210149 0.298444 0.409384 -0.316363
H38   H     H_    0.165326 0.247352 0.417790 0.179264
H39   H     H_    0.143108 0.325438 0.364165 0.183636
H40   H     H_    0.221263 0.330647 0.459606 0.132874
H41   H     H_    0.589447 0.850367 0.414536 0.208096
H42   H     H_    0.349080 0.156467 0.400454 0.211788
O21   O     O_3   0.351272 0.846283 0.590685 -0.549013
C55   C     C_3   0.435608 0.858425 0.659268 -0.292059
H43   H     H_    0.506675 0.899992 0.654555 0.130300
H44   H     H_    0.485309 0.810471 0.683273 0.180075
H45   H     H_    0.378687 0.876651 0.698117 0.187621
O22   O     O_3   0.634911 0.148699 0.624527 -0.546699
C56   C     C_3   0.560545 0.136703 0.677146 -0.290852
H46   H     H_    0.485645 0.096268 0.657929 0.130794
H47   H     H_    0.516373 0.185040 0.691363 0.166150
H48   H     H_    0.624342 0.116966 0.728321 0.190685
O23   O     O_3   0.355405 0.704708 0.587333 -0.517992
C57   C     C_3   0.231679 0.687439 0.546297 -0.218884
H49   H     H_    0.236499 0.655611 0.497823 0.107283
H50   H     H_    0.173940 0.734582 0.528814 0.162943
H51   H     H_    0.182094 0.655878 0.581779 0.175705
O24   O     O_3   0.655927 0.290505 0.616955 -0.521504
C58   C     C_3   0.775347 0.298987 0.597280 -0.192973
H52   H     H_    0.819083 0.248055 0.591514 0.170160
H53   H     H_    0.766302 0.329985 0.545727 0.102576
H54   H     H_    0.841820 0.327706 0.641675 0.190115
O25   O     O_3   0.245011 0.928447 0.469742 -0.531334
C59   C     C_3   0.205937 0.921344 0.392812 -0.271686
H55   H     H_    0.275987 0.890834 0.370615 0.137672
H56   H     H_    0.191215 0.972738 0.364816 0.174557
H57   H     H_    0.112642 0.892781 0.379928 0.182819
O26   O     O_3   0.712647 0.072916 0.517853 -0.539964
C60   C     C_3   0.736626 0.084450 0.447349 -0.266975
H58   H     H_    0.660605 0.116579 0.412497 0.140386
H59   H     H_    0.745854 0.034756 0.419505 0.181815
H60   H     H_    0.829143 0.113313 0.453476 0.183115
O27   O     O_3   0.247443 0.070174 0.481479 -0.585469
C61   C     C_3   0.214888 0.078670 0.549947 -0.237264
H61   H     H_    0.278743 0.118037 0.583365 0.126134
H62   H     H_    0.217137 0.028884 0.580990 0.183730
H63   H     H_    0.115307 0.098102 0.539973 0.186511
O28   O     O_3   0.711767 0.930940 0.520950 -0.580573
C62   C     C_3   0.759041 0.916877 0.596369 -0.249445
H64   H     H_    0.700090 0.875822 0.615813 0.126930
H65   H     H_    0.764280 0.964256 0.630487 0.181424
H66   H     H_    0.858041 0.897046 0.604155 0.185623
O29   O     O_3   0.509037 0.623527 0.692486 -0.505200
C63   C     C_3   0.636926 0.648499 0.713162 -0.196862
H67   H     H_    0.706502 0.609550 0.703140 0.129232
H68   H     H_    0.661341 0.664517 0.771767 0.183747
H69   H     H_    0.647103 0.694908 0.679169 0.149447
O30   O     O_3   0.270919 0.505824 0.279268 -0.568877
C64   C     C_3   0.209808 0.440345 0.265516 -0.185562
H70   H     H_    0.122313 0.439440 0.288116 0.197477
H71   H     H_    0.272947 0.398109 0.293032 0.187784
H72   H     H_    0.178424 0.430170 0.205598 0.186633

loop_
_geom_bond_atom_site_label_1
_geom_bond_atom_site_label_2
_ccdc_geom_bond_type
C24   O8    A    
C38   C40   A    
C44   H7    S    
C26   O16   S    
O22   C56   S    
C20   O14   S    
C46   H12   S    
C35   H41   S    
C50   H26   S    
C6    C9    A    
C21   H21   S    
O20   C54   S    
O9    C43   S    
C50   H28   S    
C39   C41   A    
O13   C47   S    
C2    O2    A    
C52   H33   S    
O6    Zn2   S    
C10   C37   S    
C23   C29   S    
O28   C62   S    
C35   C37   A    
O26   C60   S    
C45   H11   S    
C12   O30   S    
C6    O26   S    
C47   H16   S    
C23   O5    A    
C13   O9    S    
C3    C33   A    
C43   H4    S    
C54   H38   S    
C14   O10   S    
C11   O29   S    
C42   O24   S    
C19   O13   S    
C53   H35   S    
C9    C38   S    
C53   H36   S    
C33   C35   A    
C5    O25   S    
N1    Zn1   S    
C62   H64   S    
C23   O7    A    
C60   H58   S    
C45   H9    S    
C54   H39   S    
O27   C61   S    
C11   N1    A    
C22   H22   S    
C31   H2    S    
C32   H1    S    
C18   C20   A    
O12   C46   S    
C43   H5    S    
C40   C42   A    
C44   H8    S    
O1    Zn1   S    
C62   H65   S    
C18   O12   S    
C46   H13   S    
C59   H57   S    
C36   H42   S    
O18   C52   S    
C20   N2    A    
C19   N1    A    
O29   C63   S    
C64   H72   S    
C63   H68   S    
C24   O6    A    
O4    Zn1   S    
C58   H54   S    
C4    C34   A    
C17   O11   S    
O11   C45   S    
C60   H60   S    
C64   H71   S    
C64   H70   S    
C5    C7    A    
C47   H15   S    
C1    O3    A    
C6    C8    A    
C2    O4    A    
C43   H3    S    
C30   O17   S    
C51   H31   S    
C29   O18   S    
C56   H47   S    
O10   C44   S    
C63   H69   S    
C58   H53   S    
C49   H24   S    
C48   H18   S    
C61   H63   S    
C29   C31   D    
C54   H40   S    
C40   O22   S    
O2    Zn2   S    
C51   H30   S    
C16   C18   A    
C52   H34   S    
C53   H37   S    
O21   C55   S    
O3    Zn2   S    
C7    O27   S    
C45   H10   S    
C48   H19   S    
C21   C28   A    
C61   H62   S    
C62   H66   S    
C22   C27   A    
C13   C15   A    
O30   C64   S    
C46   H14   S    
C14   C16   A    
C8    C10   A    
C34   O20   S    
C55   H44   S    
C56   H46   S    
C59   H56   S    
O8    Zn1   S    
C49   H25   S    
C41   O23   S    
C63   H67   S    
C52   H32   S    
C7    C9    A    
C21   C25   A    
C3    C41   A    
C60   H59   S    
C25   O15   S    
C31   C32   S    
C12   C14   A    
O24   C58   S    
C50   H27   S    
C15   C17   A    
C25   C27   A    
C58   H52   S    
C26   C28   A    
C39   O21   S    
O17   C51   S    
C1    C4    S    
O7    Zn2   S    
C55   H45   S    
C36   C38   A    
C2    C3    S    
C55   H43   S    
C56   H48   S    
C5    C10   A    
C37   C39   A    
O19   C53   S    
C30   C32   D    
C11   C13   A    
C47   H17   S    
C1    O1    A    
C49   H23   S    
C4    C42   A    
C16   C27   S    
C57   H51   S    
O5    Zn1   S    
C51   H29   S    
C17   C19   A    
C57   H49   S    
C34   C36   A    
O16   C50   S    
C8    O28   S    
C24   C30   S    
C44   H6    S    
C15   C28   S    
N2    Zn2   S    
C48   H20   S    
C33   O19   S    
C61   H61   S    
C57   H50   S    
O14   C48   S    
C22   C26   A    
C59   H55   S    
C12   N2    A    
O15   C49   S    
O25   C59   S    
O23   C57   S    
