data_mof_unit_34350.cif
_audit_creation_date              2013-03-05T15:51:13-0500
_audit_creation_method            fapswitch 2.2
_symmetry_space_group_name_H-M    P1
_symmetry_Int_Tables_number       1
_space_group_crystal_system       triclinic
_cell_length_a                    23.005793
_cell_length_b                    6.951509
_cell_length_c                    20.720916
_cell_angle_alpha                 90.002454
_cell_angle_beta                  93.072783
_cell_angle_gamma                 89.997241
_cell_volume                      3309.0275941

loop_
_atom_site_label
_atom_site_type_symbol
_atom_site_description
_atom_site_fract_x
_atom_site_fract_y
_atom_site_fract_z
_atom_type_partial_charge
O1    O     O_R   0.188030 0.379840 0.189340 -0.591799
O2    O     O_R   0.811970 0.620160 0.810660 -0.591762
O3    O     O_R   0.311970 0.879840 0.310660 -0.591978
O4    O     O_R   0.688030 0.120160 0.689340 -0.591970
O5    O     O_R   0.307090 0.708420 0.185790 -0.585839
O6    O     O_R   0.692910 0.291580 0.814210 -0.585876
O7    O     O_R   0.192910 0.208420 0.314210 -0.585657
O8    O     O_R   0.807090 0.791580 0.685790 -0.585663
C1    C     C_R   0.326735 0.540746 0.170642 0.996723
C2    C     C_R   0.673265 0.459254 0.829358 0.996708
C3    C     C_R   0.173263 0.040757 0.329359 0.996958
C4    C     C_R   0.826737 0.959243 0.670641 0.996970
O9    O     O_R   0.188180 0.709480 0.181650 -0.568724
O10   O     O_R   0.811820 0.290520 0.818350 -0.568738
O11   O     O_R   0.311820 0.209480 0.318350 -0.568718
O12   O     O_R   0.688180 0.790520 0.681650 -0.568707
O13   O     O_R   0.192210 0.880960 0.306500 -0.600166
O14   O     O_R   0.807790 0.119040 0.693500 -0.600162
O15   O     O_R   0.307790 0.380960 0.193500 -0.600168
O16   O     O_R   0.692210 0.619040 0.806500 -0.600162
C5    C     C_R   0.168423 0.540657 0.164532 1.005988
C6    C     C_R   0.831583 0.459345 0.835462 1.005941
C7    C     C_R   0.331564 0.040655 0.335479 1.006321
C8    C     C_R   0.668435 0.959345 0.664522 1.006309
O17   O     O_3   0.251460 0.546730 0.290970 -0.254441
O18   O     O_3   0.748540 0.453270 0.709030 -0.254437
O19   O     O_3   0.248540 0.046730 0.209030 -0.254390
O20   O     O_3   0.751460 0.953270 0.790970 -0.254388
V1    V     V_3+5 0.249730 0.821120 0.242400 1.242298
V2    V     V_3+5 0.750270 0.178880 0.757600 1.242296
V3    V     V_3+5 0.250270 0.321120 0.257600 1.242382
V4    V     V_3+5 0.749730 0.678880 0.742400 1.242402
C9    C     C_R   0.580095 0.122275 0.615795 -0.193273
C10   C     C_R   0.419900 0.877718 0.384211 -0.193259
C11   C     C_R   0.919950 0.622278 0.884159 -0.193428
C12   C     C_R   0.080076 0.377697 0.115804 -0.193316
C13   C     C_R   0.619879 0.969242 0.614054 -0.308939
C14   C     C_R   0.380119 0.030759 0.385949 -0.308957
C15   C     C_R   0.880174 0.469233 0.885892 -0.308984
C16   C     C_R   0.119846 0.530771 0.114086 -0.309022
C17   C     C_R   0.611942 0.826441 0.565391 0.293936
C18   C     C_R   0.388055 0.173559 0.434612 0.293927
C19   C     C_R   0.888124 0.326437 0.934539 0.294299
C20   C     C_R   0.111895 0.673588 0.065442 0.294214
C21   C     C_R   0.563470 0.836914 0.520176 -0.028956
C22   C     C_R   0.436525 0.163079 0.479830 -0.028946
C23   C     C_R   0.936591 0.336831 0.979744 -0.029092
C24   C     C_R   0.063438 0.663154 0.020221 -0.029060
C25   C     C_R   0.524046 0.992916 0.522794 0.024226
C26   C     C_R   0.475948 0.007077 0.477214 0.024218
C27   C     C_R   0.975983 0.492899 0.977177 0.024328
C28   C     C_R   0.024048 0.507075 0.022786 0.024294
C29   C     C_R   0.532757 0.135665 0.570624 0.163551
C30   C     C_R   0.467236 0.864324 0.429384 0.163560
C31   C     C_R   0.967269 0.635698 0.929361 0.163219
C32   C     C_R   0.032763 0.364265 0.070598 0.163254
C33   C     C_R   0.553951 0.697131 0.471483 -0.136372
C34   C     C_R   0.446041 0.302852 0.528528 -0.136355
C35   C     C_R   0.946126 0.196883 0.028375 -0.136523
C36   C     C_R   0.053907 0.803068 0.971578 -0.136465
C37   C     C_R   0.506311 0.710245 0.427042 -0.196629
C38   C     C_R   0.493680 0.289735 0.572971 -0.196658
C39   C     C_R   0.993730 0.210059 0.072866 -0.196546
C40   C     C_R   0.006307 0.789882 0.927085 -0.196687
H1    H     H_    0.585659 0.231072 0.653135 0.156645
H2    H     H_    0.414337 0.768916 0.346873 0.156641
H3    H     H_    0.914379 0.731096 0.846831 0.156893
H4    H     H_    0.085647 0.268865 0.153128 0.156901
C41   C     C_3   0.050086 0.047983 0.532255 -0.136970
C42   C     C_3   0.949914 0.952017 0.467745 -0.136966
C43   C     C_3   0.450387 0.554956 0.968159 -0.137252
C44   C     C_3   0.549613 0.445044 0.031841 -0.137240
C45   C     C_3   0.013431 0.865990 0.545018 -0.162440
C46   C     C_3   0.986569 0.134010 0.454982 -0.162438
C47   C     C_3   0.485590 0.371146 0.953598 -0.162849
C48   C     C_3   0.514410 0.628855 0.046402 -0.162844
H5    H     H_    0.091617 0.087653 0.558655 0.132926
H6    H     H_    0.908383 0.912347 0.441346 0.132929
H7    H     H_    0.409245 0.600376 0.942102 0.132861
H8    H     H_    0.590755 0.399624 0.057898 0.132877
H9    H     H_    0.011444 0.687102 0.447424 0.121703
H10   H     H_    0.988556 0.312898 0.552576 0.121702
H11   H     H_    0.485907 0.183733 0.049294 0.122252
H12   H     H_    0.514092 0.816267 0.950706 0.122250
C49   C     C_1   0.872234 0.968865 0.624810 -0.259533
C50   C     C_1   0.127766 0.031135 0.375190 -0.259524
C51   C     C_1   0.627769 0.468897 0.875188 -0.259484
C52   C     C_1   0.372231 0.531103 0.124812 -0.259487
C53   C     C_3   0.993841 0.171366 0.528751 -0.159751
C54   C     C_3   0.006159 0.828634 0.471250 -0.159750
C55   C     C_3   0.507612 0.673216 0.973047 -0.160216
C56   C     C_3   0.492388 0.326784 0.026953 -0.160219
C57   C     C_3   0.957807 0.989512 0.540906 0.213594
C58   C     C_3   0.042193 0.010488 0.459094 0.213596
C59   C     C_3   0.542193 0.489544 0.959094 0.214036
C60   C     C_3   0.457807 0.510457 0.040905 0.214038
C61   C     C_1   0.910654 0.977861 0.586869 -0.023342
C62   C     C_1   0.089346 0.022139 0.413131 -0.023343
C63   C     C_1   0.589347 0.477902 0.913130 -0.023575
C64   C     C_1   0.410653 0.522098 0.086870 -0.023585
N1    N     N_R   0.654418 0.676963 0.560008 0.234789
O21   O     O_R   0.707724 0.720154 0.547691 -0.398984
O22   O     O_R   0.640828 0.499015 0.571318 -0.419919
N2    N     N_R   0.345578 0.323037 0.439995 0.234793
O23   O     O_R   0.292270 0.279845 0.452302 -0.398983
O24   O     O_R   0.359174 0.500996 0.428710 -0.419934
N3    N     N_R   0.845627 0.177112 0.939959 0.234740
O25   O     O_R   0.792497 0.220317 0.953003 -0.399057
O26   O     O_R   0.859011 0.999380 0.928025 -0.419620
N4    N     N_R   0.154375 0.822991 0.060048 0.234758
O27   O     O_R   0.207545 0.779861 0.047146 -0.399031
O28   O     O_R   0.140931 0.000742 0.071872 -0.419746
H13   H     H_    0.583182 0.576578 0.467093 0.182682
H14   H     H_    0.416808 0.423395 0.532923 0.182694
H15   H     H_    0.916942 0.076145 0.032657 0.182444
H16   H     H_    0.083096 0.923786 0.967284 0.182486
H17   H     H_    0.500146 0.599468 0.390502 0.135812
H18   H     H_    0.499842 0.400504 0.609513 0.135814
H19   H     H_    0.999901 0.099219 0.109379 0.135918
H20   H     H_    0.000138 0.900706 0.890566 0.135920
H21   H     H_    0.024267 0.755155 0.582315 0.120833
H22   H     H_    0.975733 0.244845 0.417685 0.120836
H23   H     H_    0.473946 0.264573 0.915150 0.121298
H24   H     H_    0.526054 0.735427 0.084850 0.121302

loop_
_geom_bond_atom_site_label_1
_geom_bond_atom_site_label_2
_geom_bond_distance
_ccdc_geom_bond_type
C34   C38   1.396180 A    
O1    C5    1.300999 A    
N1    O21   1.301072 A    
C54   C58   1.539896 S    
O19   V1    1.713644 S    
O13   V1    1.968913 S    
C46   C58   1.539601 S    
O3    C7    1.300975 A    
C45   C57   1.539601 S    
C44   C48   1.551023 S    
O15   V3    1.968964 S    
C10   H2    1.084599 S    
N2    O24   1.300305 A    
C47   C59   1.539579 S    
O7    C3    1.294815 A    
H11   C56   1.110340 S    
C21   C33   1.409409 A    
C26   C30   1.409183 A    
H10   C53   1.110348 S    
C4    C49   1.452053 S    
C47   H23   1.110132 S    
C46   C53   1.550621 S    
O9    V1    2.000209 S    
C45   C54   1.550621 S    
C14   C18   1.419750 A    
C24   C28   1.416501 A    
C1    C52   1.452038 S    
C44   C56   1.550832 S    
C59   C63   1.483661 S    
C42   H6    1.110031 S    
C58   C62   1.483631 S    
C3    C50   1.452053 S    
C56   C60   1.539893 S    
O2    V4    2.000081 S    
C18   C22   1.419378 A    
O3    V1    2.000086 S    
C42   C46   1.551010 S    
C33   H13   1.081334 S    
N4    O27   1.301032 A    
C44   C59   1.539310 S    
C41   H5    1.110029 S    
C1    O15   1.292396 A    
C2    O16   1.292394 A    
O2    C6    1.300980 A    
N3    O25   1.301027 A    
C41   C45   1.551011 S    
O14   V2    1.968913 S    
H12   C55   1.110340 S    
C21   C25   1.416599 A    
C9    H1    1.084598 S    
C51   C63   1.215650 T    
O11   C7    1.300889 A    
O12   C8    1.300893 A    
C22   C34   1.409417 A    
O17   V1    2.156060 S    
N3    O26   1.300204 A    
C42   C54   1.550835 S    
O10   V2    2.000211 S    
C41   C53   1.550835 S    
C43   H7    1.110080 S    
N2    O23   1.301066 A    
C24   C36   1.409377 A    
O5    V1    1.974050 S    
O1    V3    2.000081 S    
C9    C29   1.400525 A    
C2    C51   1.452039 S    
O7    V3    1.974141 S    
C37   H17   1.083887 S    
C27   C28   1.419001 A    
O8    V4    1.974142 S    
C12   C16   1.405085 A    
C42   C57   1.539317 S    
C41   C58   1.539316 S    
O18   V4    1.713593 S    
C15   C19   1.419578 A    
C43   C60   1.539310 S    
C11   C31   1.400616 A    
C53   C57   1.539897 S    
C9    C13   1.405037 A    
C48   H24   1.110132 S    
C11   C15   1.405054 A    
O5    C1    1.294794 A    
C12   C32   1.400570 A    
C39   H19   1.083871 S    
C29   C38   1.400797 A    
O20   V4    2.155986 S    
O8    C4    1.294814 A    
C31   C40   1.400792 A    
C8    C13   1.490277 S    
C32   C39   1.400825 A    
O9    C5    1.300929 A    
C19   N3    1.434510 S    
C33   C37   1.396185 A    
C52   C64   1.215651 T    
C47   C56   1.550626 S    
H9    C54   1.110347 S    
C35   H15   1.081454 S    
C46   H22   1.110146 S    
C10   C30   1.400517 A    
C45   H21   1.110146 S    
O19   V3    2.155986 S    
C36   H16   1.081436 S    
C57   C61   1.483628 S    
O16   V4    1.968964 S    
C3    O13   1.292413 A    
O6    V2    1.974049 S    
C10   C14   1.405042 A    
O17   V3    1.713593 S    
C18   N2    1.434808 S    
O6    C2    1.294795 A    
C23   C27   1.416482 A    
C12   H4    1.084584 S    
O11   V3    2.000200 S    
C30   C37   1.400797 A    
O12   V4    2.000204 S    
C7    C14   1.490274 S    
C22   C26   1.416594 A    
C35   C39   1.396208 A    
C40   H20   1.083877 S    
C36   C40   1.396191 A    
O10   C6    1.300954 A    
O20   V2    1.713645 S    
C44   H8    1.110081 S    
C48   C60   1.539577 S    
C43   C47   1.551021 S    
C5    C16   1.490326 S    
O4    C8    1.300975 A    
C25   C29   1.409179 A    
C6    C15   1.490324 S    
C60   C64   1.483662 S    
C17   N1    1.434803 S    
C27   C31   1.409250 A    
C13   C17   1.419746 A    
C50   C62   1.215628 T    
N4    O28   1.300217 A    
C38   H18   1.083891 S    
C49   C61   1.215628 T    
C11   H3    1.084584 S    
C48   C55   1.550626 S    
C23   C35   1.409378 A    
C28   C32   1.409265 A    
C16   C20   1.419621 A    
C43   C55   1.550830 S    
C55   C59   1.539894 S    
N1    O22   1.300299 A    
C25   C26   1.419163 A    
C4    O14   1.292413 A    
C34   H14   1.081328 S    
C17   C21   1.419368 A    
C19   C23   1.419124 A    
O4    V2    2.000084 S    
C20   C24   1.419167 A    
O18   V2    2.156059 S    
C20   N4    1.434581 S    
