data_mof_unit_22761.cif
_audit_creation_date              2013-03-05T16:46:55-0500
_audit_creation_method            fapswitch 2.2
_symmetry_space_group_name_H-M    P1
_symmetry_Int_Tables_number       1
_space_group_crystal_system       triclinic
_cell_length_a                    18.199907
_cell_length_b                    18.239816
_cell_length_c                    18.442435
_cell_angle_alpha                 120.10693
_cell_angle_beta                  89.92922
_cell_angle_gamma                 119.85164
_cell_volume                      4334.40228225

loop_
_atom_site_label
_atom_site_type_symbol
_atom_site_description
_atom_site_fract_x
_atom_site_fract_y
_atom_site_fract_z
_atom_type_partial_charge
Zn1   Zn    Zn3+2 0.456040 0.586770 0.543190 1.000321
Zn2   Zn    Zn3+2 0.456820 0.413240 0.543960 1.001291
Zn3   Zn    Zn3+2 0.631110 0.586750 0.543190 1.018125
Zn4   Zn    Zn3+2 0.456040 0.413240 0.369660 1.042006
O1    O     O_3   0.500000 0.500000 0.500000 -0.501417
O2    O     O_R   0.383400 0.268380 0.323710 -0.640908
O3    O     O_R   0.555060 0.731630 0.615290 -0.631897
O4    O     O_R   0.383950 0.439280 0.616600 -0.639956
O5    O     O_R   0.677590 0.560710 0.444390 -0.636076
O6    O     O_R   0.556370 0.439260 0.616600 -0.638886
O7    O     O_R   0.382640 0.439290 0.322940 -0.637746
O8    O     O_R   0.678360 0.560700 0.616060 -0.648832
O9    O     O_R   0.382640 0.560750 0.444390 -0.639703
O10   O     O_R   0.383400 0.560740 0.616060 -0.648569
O11   O     O_R   0.555060 0.439270 0.322940 -0.627350
O12   O     O_R   0.383950 0.268380 0.445700 -0.638047
O13   O     O_R   0.677590 0.731610 0.615290 -0.650500
C1    C     C_R   0.357610 0.220131 0.361091 0.814382
C2    C     C_R   0.640769 0.780951 0.640228 0.813711
C3    C     C_R   0.359356 0.500825 0.640743 0.799652
C4    C     C_R   0.640723 0.500660 0.359710 0.900064
C5    C     C_R   0.641890 0.500762 0.640730 0.834925
C6    C     C_R   0.358197 0.500430 0.359878 0.861308
C7    C     C_3   0.343780 0.515146 0.233583 0.075887
H1    H     H_    0.339685 0.443041 0.187156 0.193009
C8    C     C_3   0.288508 0.525740 0.180045 0.100660
H2    H     H_    0.327811 0.607050 0.201539 0.192054
H3    H     H_    0.215848 0.332515 0.210450 0.212114
C9    C     C_3   0.207717 0.396488 0.251177 -0.476142
C10   C     C_3   0.286840 0.588511 0.361132 -0.391003
C11   C     C_3   0.301215 0.501793 0.303302 -0.086849
H4    H     H_    0.256088 0.576404 0.409680 0.197342
H5    H     H_    0.352048 0.665570 0.401571 0.262600
C12   C     C_3   0.198425 0.500864 0.201038 -0.137234
C13   C     C_3   0.145793 0.395008 0.191539 -0.082681
C14   C     C_3   0.223488 0.585852 0.302750 0.080213
H6    H     H_    0.160147 0.560846 0.319290 0.177516
H7    H     H_    0.175707 0.382716 0.298579 0.178712
H8    H     H_    0.088393 0.387554 0.216704 0.140281
C15   C     C_3   0.639270 0.939517 0.726102 -0.369447
H9    H     H_    0.604259 0.915280 0.767422 0.176154
H10   H     H_    0.585674 0.906442 0.667982 0.230193
C16   C     C_3   0.697454 0.058405 0.780559 -0.352106
H11   H     H_    0.678785 0.082243 0.743223 0.227830
H12   H     H_    0.682075 0.089431 0.843378 0.211561
H13   H     H_    0.723087 0.906007 0.819842 0.192697
H14   H     H_    0.799993 0.083115 0.909780 0.210623
C17   C     C_3   0.762217 0.939207 0.785225 -0.472313
C18   C     C_3   0.757111 0.940927 0.649501 0.083704
C19   C     C_3   0.698144 0.897424 0.698100 0.026428
H15   H     H_    0.801141 0.912905 0.635545 0.098959
C20   C     C_3   0.799058 0.102707 0.801493 0.034400
C21   C     C_3   0.817641 0.059099 0.847782 -0.463102
C22   C     C_3   0.820868 0.062257 0.712590 0.095745
H16   H     H_    0.890250 0.083881 0.731217 0.071279
H17   H     H_    0.808612 0.914939 0.769671 0.180042
H18   H     H_    0.890294 0.091277 0.867337 0.193274
C23   C     C_3   0.677532 0.389442 0.240828 0.023002
H19   H     H_    0.608194 0.337988 0.193181 0.168127
C24   C     C_3   0.744024 0.391435 0.187363 0.096154
H20   H     H_    0.793321 0.385087 0.214987 0.158270
H21   H     H_    0.605881 0.467064 0.196913 0.205769
H22   H     H_    0.692962 0.468125 0.109003 0.230972
C25   C     C_3   0.677490 0.527470 0.240500 -0.107338
C26   C     C_3   0.799796 0.580797 0.359668 -0.358341
C27   C     C_3   0.698379 0.500308 0.302445 -0.040941
H23   H     H_    0.815603 0.659644 0.405666 0.195649
H24   H     H_    0.817608 0.562723 0.403066 0.251129
C28   C     C_3   0.799313 0.498332 0.200039 -0.028452
C29   C     C_3   0.736643 0.525045 0.179689 -0.407401
C30   C     C_3   0.858445 0.582694 0.299881 -0.405147
H25   H     H_    0.907333 0.569809 0.317634 0.243323
H26   H     H_    0.897933 0.660827 0.313041 0.206993
H27   H     H_    0.778148 0.601062 0.189097 0.178845
H28   H     H_    0.287766 0.216393 0.685403 0.170355
C31   C     C_R   0.337090 0.147897 0.582598 0.377347
C32   C     C_R   0.329290 0.104494 0.492555 -0.176398
H29   H     H_    0.369657 0.076388 0.465006 0.197153
C33   C     C_R   0.269965 0.098048 0.437666 0.076622
C34   C     C_R   0.216796 0.133354 0.472293 -0.108584
H30   H     H_    0.169981 0.127613 0.430111 0.133791
C35   C     C_R   0.223389 0.175415 0.561388 -0.198620
H31   H     H_    0.181594 0.201647 0.587690 0.158909
C36   C     C_R   0.283608 0.183416 0.616546 -0.158666
C37   C     C_R   0.210553 0.943807 0.287172 -0.204708
H32   H     H_    0.185867 0.900860 0.316352 0.199151
C38   C     C_R   0.189164 0.892246 0.195211 -0.059207
C39   C     C_R   0.216853 0.949238 0.157736 -0.002266
C40   C     C_R   0.272887 0.056202 0.213763 -0.218920
H33   H     H_    0.296203 0.099171 0.184550 0.186202
C41   C     C_R   0.296651 0.107751 0.305973 -0.054351
C42   C     C_R   0.260907 0.050677 0.342792 0.009172
C43   C     C_R   0.238373 0.886892 0.009062 -0.108599
H34   H     H_    0.303884 0.909601 0.038645 0.154121
C44   C     C_R   0.207389 0.841926 0.918022 0.154455
C45   C     C_R   0.122135 0.812278 0.879933 -0.105831
H35   H     H_    0.096886 0.777320 0.809796 0.148492
C46   C     C_R   0.069100 0.828213 0.932551 -0.141755
H36   H     H_    0.003893 0.806159 0.903180 0.157540
C47   C     C_R   0.100044 0.872593 0.023039 -0.114112
H37   H     H_    0.058187 0.884246 0.063085 0.136043
C48   C     C_R   0.184647 0.901739 0.061673 0.099379
H38   H     H_    0.983641 0.826673 0.634211 0.230068
C49   C     C_R   0.934038 0.677461 0.607524 0.206433
C50   C     C_R   0.883159 0.608863 0.631278 0.198651
C51   C     C_R   0.844539 0.637511 0.698252 -0.044132
C52   C     C_R   0.859952 0.735882 0.743806 0.104899
C53   C     C_R   0.910294 0.802759 0.719555 -0.173632
H39   H     H_    0.921893 0.877984 0.753100 0.181798
C54   C     C_R   0.946198 0.773635 0.652052 -0.204418
C55   C     C_R   0.842220 0.563402 0.778391 -0.191402
H40   H     H_    0.914777 0.611290 0.797487 0.167680
C56   C     C_R   0.799439 0.498466 0.805910 -0.030471
C57   C     C_R   0.704724 0.435336 0.779887 0.066615
C58   C     C_R   0.655421 0.438958 0.726574 -0.151491
H41   H     H_    0.582758 0.389676 0.706294 0.196490
C59   C     C_R   0.698295 0.503477 0.698458 -0.051120
C60   C     C_R   0.793135 0.567240 0.725220 0.093765
C61   C     C_R   0.634641 0.261642 0.747393 -0.101930
H42   H     H_    0.657828 0.241588 0.690697 0.195711
C62   C     C_R   0.584399 0.186800 0.763234 -0.053031
H43   H     H_    0.568725 0.109894 0.718441 0.159468
C63   C     C_R   0.551941 0.209542 0.834652 0.182437
C64   C     C_R   0.572050 0.309452 0.891744 -0.096021
H44   H     H_    0.547553 0.327023 0.947587 0.197727
C65   C     C_R   0.623268 0.386568 0.877308 0.309815
C66   C     C_R   0.654109 0.361255 0.803157 -0.012952
H45   H     H_    0.353600 0.839932 0.647487 0.193556
C67   C     C_R   0.397078 0.809823 0.730933 -0.216392
H46   H     H_    0.459584 0.886106 0.770152 0.159549
C68   C     C_R   0.376756 0.738727 0.750753 -0.075574
H47   H     H_    0.424124 0.760388 0.805214 0.145934
C69   C     C_R   0.295125 0.640399 0.700933 0.090983
C70   C     C_R   0.233790 0.614074 0.631515 -0.225429
H48   H     H_    0.170436 0.538386 0.594049 0.192224
C71   C     C_R   0.253884 0.685252 0.611020 0.324070
C72   C     C_R   0.336328 0.783366 0.661401 -0.178718
C73   C     C_R   0.217178 0.561716 0.776345 -0.216187
H49   H     H_    0.193561 0.610883 0.796383 0.192184
C74   C     C_R   0.193865 0.496328 0.803873 -0.046143
C75   C     C_R   0.226056 0.432962 0.777312 0.085094
C76   C     C_R   0.279101 0.436710 0.723514 -0.205838
H50   H     H_    0.303077 0.387952 0.703180 0.175415
C77   C     C_R   0.302932 0.502449 0.696915 -0.053917
C78   C     C_R   0.271940 0.566548 0.724115 0.012452
C79   C     C_R   0.279348 0.371949 0.847743 0.207851
C80   C     C_R   0.261969 0.293314 0.857898 0.197140
C81   C     C_R   0.173056 0.204495 0.822814 0.273058
C82   C     C_R   0.103942 0.193563 0.775494 -0.252722
H51   H     H_    0.036126 0.124985 0.746830 0.187363
C83   C     C_R   0.121051 0.270234 0.764741 -0.207724
H52   H     H_    0.066562 0.258180 0.725783 0.196305
C84   C     C_R   0.207762 0.360878 0.802118 -0.024985
Zn5   Zn    Zn3+2 0.041710 0.413240 0.959030 1.034650
Zn6   Zn    Zn3+2 0.866640 0.413270 0.959030 1.029988
Zn7   Zn    Zn3+2 0.040930 0.586780 0.958260 1.005497
Zn8   Zn    Zn3+2 0.041710 0.586770 0.132560 1.032669
O14   O     O_3   0.997750 0.500010 0.002220 -0.512284
O15   O     O_R   0.942690 0.560750 0.179280 -0.647464
O16   O     O_R   0.114340 0.439270 0.886160 -0.616643
O17   O     O_R   0.820160 0.268410 0.886930 -0.610212
O18   O     O_R   0.113800 0.731630 0.056520 -0.642150
O19   O     O_R   0.819390 0.439310 0.886160 -0.646809
O20   O     O_R   0.115110 0.560720 0.179280 -0.610138
O21   O     O_R   0.941380 0.560750 0.885620 -0.648437
O22   O     O_R   0.115110 0.439270 0.057830 -0.596428
O23   O     O_R   0.942690 0.268390 0.886930 -0.662358
O24   O     O_R   0.114340 0.731630 0.178520 -0.621530
O25   O     O_R   0.820160 0.439310 0.057830 -0.603864
O26   O     O_R   0.113800 0.560730 0.885620 -0.642717
C85   C     C_R   0.857082 0.499205 0.142720 0.802883
C86   C     C_R   0.138294 0.498966 0.861184 0.841081
C87   C     C_R   0.856845 0.219101 0.862280 0.840590
C88   C     C_R   0.136875 0.779879 0.140952 0.805282
C89   C     C_R   0.855882 0.499455 0.861770 0.843363
C90   C     C_R   0.139969 0.500172 0.142949 0.804170
N1    N     N_R   0.439322 0.601507 0.273342 0.213380
O27   O     O_R   0.465824 0.696991 0.329064 -0.293147
O28   O     O_R   0.498866 0.582649 0.250910 -0.344366
N2    N     N_R   0.702236 0.901086 0.563479 0.247706
O29   O     O_R   0.707829 0.839108 0.490305 -0.337367
O30   O     O_R   0.649489 0.928316 0.558791 -0.304577
N3    N     N_R   0.822500 0.110628 0.667682 0.239185
O31   O     O_R   0.859162 0.100016 0.605722 -0.336911
O32   O     O_R   0.792601 0.168054 0.690902 -0.395460
N4    N     N_R   0.677863 0.345898 0.289645 0.205149
O33   O     O_R   0.751878 0.383212 0.344144 -0.320294
O34   O     O_R   0.603350 0.265615 0.275554 -0.351044
N5    N     N_R   0.696346 0.302606 0.093676 0.223724
O35   O     O_R   0.630032 0.285581 0.045638 -0.434164
O36   O     O_R   0.718352 0.237450 0.058577 -0.392340
N6    N     N_3   0.688990 0.627556 0.291522 -0.368762
H53   H     H_    0.664133 0.635551 0.246789 0.273730
H54   H     H_    0.757174 0.688274 0.322966 0.213069
N7    N     N_R   0.398491 0.155152 0.638913 0.198484
O37   O     O_R   0.414377 0.206778 0.724253 -0.370440
O38   O     O_R   0.438777 0.109841 0.605271 -0.388687
N8    N     N_R   0.275219 0.463506 0.084967 0.234391
O39   O     O_R   0.244310 0.366252 0.042149 -0.339621
O40   O     O_R   0.299241 0.507693 0.043521 -0.334382
N9    N     N_3   0.262946 0.826336 0.865278 -0.460039
H55   H     H_    0.319537 0.899338 0.887198 0.205827
H56   H     H_    0.229605 0.789733 0.798834 0.199756
N10   N     N_R   0.972557 0.650616 0.538069 0.224216
O41   O     O_R   0.036769 0.722507 0.532883 -0.329911
O42   O     O_R   0.938681 0.554361 0.474856 -0.268729
N11   N     N_R   0.874052 0.512727 0.590982 0.246362
O43   O     O_R   0.945060 0.512829 0.599662 -0.326243
O44   O     O_R   0.794825 0.425770 0.551920 -0.317034
N12   N     N_3   0.825654 0.767803 0.815575 -0.436714
H57   H     H_    0.756276 0.726708 0.788043 0.193742
H58   H     H_    0.851561 0.846190 0.848596 0.182625
N13   N     N_3   0.498287 0.130122 0.847966 -0.418594
H59   H     H_    0.439899 0.070855 0.792524 0.213668
H60   H     H_    0.477528 0.158099 0.902583 0.242173
N14   N     N_3   0.107688 0.303805 0.099402 -0.329497
H61   H     H_    0.050802 0.290554 0.067139 0.187079
H62   H     H_    0.082817 0.238328 0.099465 0.198415
N15   N     N_R   0.642616 0.488319 0.938018 0.215449
O45   O     O_R   0.708578 0.568754 0.943916 -0.393359
O46   O     O_R   0.598182 0.502640 0.993046 -0.301248
N16   N     N_R   0.190720 0.658511 0.540210 0.201810
O47   O     O_R   0.115648 0.566696 0.491670 -0.338923
O48   O     O_R   0.208304 0.725227 0.522704 -0.314196
N17   N     N_R   0.370142 0.459675 0.878793 0.250225
O49   O     O_R   0.432354 0.445826 0.856544 -0.319457
O50   O     O_R   0.389376 0.552827 0.922732 -0.305872
N18   N     N_R   0.334622 0.302598 0.901672 0.270871
O51   O     O_R   0.395399 0.389237 0.976142 -0.236169
O52   O     O_R   0.341079 0.224751 0.866584 -0.326307
N19   N     N_R   0.151593 0.125780 0.836035 0.243435
O53   O     O_R   0.189079 0.150821 0.912144 -0.298856
O54   O     O_R   0.086369 0.029777 0.775948 -0.436130
N20   N     N_R   0.260803 0.690410 0.325798 0.238840
O55   O     O_R   0.216918 0.731725 0.356207 -0.289288
O56   O     O_R   0.341781 0.748158 0.328192 -0.330458

loop_
_geom_bond_atom_site_label_1
_geom_bond_atom_site_label_2
_geom_bond_distance
_ccdc_geom_bond_type
C5    C59   1.445328 S    
C10   H4    1.112541 S    
C38   C39   1.417970 A    
C65   C66   1.421623 A    
C4    C27   1.487834 S    
C23   N4    1.470875 S    
N9    H56   1.045618 S    
N9    H55   1.045448 S    
C3    C77   1.457902 S    
C44   C45   1.407003 A    
C7    N1    1.469760 S    
N3    O31   1.301251 A    
O19   C89   1.271189 A    
C31   C36   1.406583 A    
C18   H15   1.115736 S    
N18   O52   1.301101 A    
C57   C58   1.379346 A    
C63   C64   1.405543 A    
C55   C56   1.396674 A    
C52   N12   1.437765 S    
C37   H32   1.084915 S    
O6    C5    1.281287 A    
O24   C88   1.293987 A    
C22   N3    1.473819 S    
C8    H2    1.105939 S    
C43   H34   1.083539 S    
O15   C85   1.282345 A    
C55   C60   1.377607 A    
Zn1   O1    1.942596 S    
C1    C41   1.454061 S    
C49   N10   1.443003 S    
H3    C9    1.113532 S    
C7    C8    1.552916 S    
C67   H46   1.081633 S    
N3    O32   1.301329 A    
C10   C11   1.557767 S    
C16   C20   1.556504 S    
C51   C52   1.411087 A    
C73   C78   1.387198 A    
C23   C24   1.557960 S    
C58   H41   1.085042 S    
O8    C5    1.272270 A    
C53   H39   1.081809 S    
O9    C6    1.277397 A    
N5    O36   1.301230 A    
C12   C13   1.579910 S    
C28   C85   1.490168 S    
O7    C6    1.279281 A    
C28   C30   1.558935 S    
C49   C50   1.417885 A    
C35   C36   1.397080 A    
H21   C25   1.114996 S    
Zn3   O8    1.954882 S    
N17   O50   1.301294 A    
C56   C57   1.413990 A    
C65   N15   1.444898 S    
C75   C76   1.386019 A    
C8    C12   1.574111 S    
C15   C16   1.537572 S    
C80   C81   1.415265 A    
C80   N18   1.439226 S    
C20   C22   1.570527 S    
C24   N5    1.469369 S    
C58   C59   1.399881 A    
C45   C46   1.397099 A    
C9    H7    1.113599 S    
C29   H27   1.113322 S    
C83   H52   1.083609 S    
O20   C90   1.275778 A    
N8    O39   1.299660 A    
C25   C29   1.553513 S    
C40   C41   1.398541 A    
Zn2   O12   1.933394 S    
C13   N14   1.467738 S    
C10   H5    1.109130 S    
O23   C87   1.284272 A    
C18   N2    1.472134 S    
C17   C19   1.553671 S    
Zn7   O18   1.933292 S    
Zn8   O15   1.941740 S    
C51   C60   1.486631 S    
Zn6   O14   1.952841 S    
Zn8   O14   1.962308 S    
N10   O41   1.301668 A    
O25   C85   1.285300 A    
C82   C83   1.391606 A    
C83   C84   1.400367 A    
N5    O35   1.300571 A    
N20   O56   1.300604 A    
C8    N8    1.467164 S    
Zn8   O24   1.930303 S    
N18   O51   1.301258 A    
C25   N6    1.469239 S    
C37   C42   1.381941 A    
C23   C27   1.567285 S    
C50   N11   1.434631 S    
C31   C32   1.405108 A    
N13   H60   1.045499 S    
C17   C21   1.551292 S    
O2    C1    1.291012 A    
H13   C17   1.113047 S    
O11   C4    1.283458 A    
C37   C38   1.396204 A    
N11   O43   1.301389 A    
O10   C3    1.271037 A    
C7    H1    1.114110 S    
C34   C35   1.395360 A    
C41   C42   1.414891 A    
C30   H26   1.113648 S    
C21   H18   1.113192 S    
C34   H30   1.083153 S    
C70   C71   1.407638 A    
C26   H23   1.111515 S    
C23   H19   1.114369 S    
C32   H29   1.083240 S    
C35   H31   1.082314 S    
Zn6   O17   1.928207 S    
N7    O37   1.300244 A    
C24   H20   1.114292 S    
N6    H54   1.045018 S    
C44   N9    1.433790 S    
Zn1   O9    1.958874 S    
C13   H8    1.116211 S    
C16   H11   1.107532 S    
Zn5   O16   1.946728 S    
Zn3   O5    1.946595 S    
C31   N7    1.436228 S    
N15   O46   1.301713 A    
O17   C87   1.283815 A    
Zn6   O25   1.946595 S    
C15   H10   1.110130 S    
H22   C29   1.110137 S    
N13   H59   1.045705 S    
C52   C53   1.400405 A    
C26   H24   1.107280 S    
C45   H35   1.083159 S    
C47   C48   1.403212 A    
N17   O49   1.301448 A    
O16   C86   1.271983 A    
C32   C33   1.400448 A    
C71   N16   1.439216 S    
N19   O54   1.300232 A    
C81   N19   1.437386 S    
O4    C3    1.287264 A    
C74   C75   1.422832 A    
Zn4   O7    1.948895 S    
N16   O48   1.301407 A    
O5    C4    1.282077 A    
C16   H12   1.113520 S    
Zn8   O20   1.948891 S    
C25   C27   1.565732 S    
C62   H43   1.082209 S    
C61   C62   1.393476 A    
C73   C74   1.401207 A    
N1    O27   1.300519 A    
H45   C72   1.082441 S    
Zn4   O2    1.930349 S    
C15   H9    1.112874 S    
N10   O42   1.300918 A    
C46   H36   1.082281 S    
O3    C2    1.282102 A    
H38   C54   1.082126 S    
C63   N13   1.435375 S    
C69   C70   1.403170 A    
C18   C19   1.564622 S    
C76   C77   1.392241 A    
Zn5   O23   1.933309 S    
Zn2   O1    1.956179 S    
C69   C78   1.478769 S    
N20   O55   1.301699 A    
N4    O34   1.301207 A    
C68   H47   1.083073 S    
Zn2   O6    1.953117 S    
Zn3   O1    1.952841 S    
N15   O45   1.300903 A    
C20   C21   1.557423 S    
C64   C65   1.409977 A    
C79   C80   1.417747 A    
C17   H17   1.111431 S    
C38   C88   1.452850 S    
C22   H16   1.112393 S    
C33   C42   1.475613 S    
N2    O30   1.301406 A    
C55   H40   1.083993 S    
Zn1   O3    1.933411 S    
O22   C90   1.286449 A    
O12   C1    1.281927 A    
Zn2   O4    1.939974 S    
N14   H62   1.046149 S    
C71   C72   1.406935 A    
C68   C69   1.402004 A    
C43   C48   1.403044 A    
C39   C48   1.479878 S    
C61   H42   1.083551 S    
C53   C54   1.392527 A    
Zn5   O14   1.942596 S    
C70   H48   1.083106 S    
O18   C88   1.278447 A    
C79   N17   1.438648 S    
C10   C14   1.544693 S    
O21   C89   1.281091 A    
C50   C51   1.417299 A    
C9    C13   1.556788 S    
N12   H58   1.045688 S    
C56   C89   1.443038 S    
C77   C78   1.415676 A    
Zn6   O19   1.954738 S    
N6    H53   1.045861 S    
Zn4   O11   1.941744 S    
Zn7   O14   1.956326 S    
C40   H33   1.084693 S    
C7    C11   1.560930 S    
C30   H25   1.113641 S    
C9    C11   1.551420 S    
C26   C30   1.534573 S    
C82   H51   1.081083 S    
C49   C54   1.403321 A    
C57   C66   1.483321 S    
C2    C19   1.504124 S    
C75   C84   1.488664 S    
C43   C44   1.403603 A    
C79   C84   1.420068 A    
O26   C86   1.288822 A    
C24   C28   1.568129 S    
C15   C19   1.556949 S    
H14   C21   1.113147 S    
C20   C87   1.504142 S    
Zn7   O26   1.940019 S    
C47   H37   1.083175 S    
O13   C2    1.286446 A    
N1    O28   1.300409 A    
Zn3   O13   1.928208 S    
C12   C14   1.584540 S    
C81   C82   1.400732 A    
C26   C27   1.558462 S    
C28   C29   1.554651 S    
H28   C36   1.081093 S    
C46   C47   1.396647 A    
Zn7   O21   1.953016 S    
C62   C63   1.396325 A    
C12   C90   1.501858 S    
C73   H49   1.084620 S    
C74   C86   1.461896 S    
C33   C34   1.401844 A    
N14   H61   1.045209 S    
Zn4   O1    1.962308 S    
C67   C72   1.396880 A    
C39   C40   1.383304 A    
C14   H6    1.115928 S    
N12   H57   1.044777 S    
N19   O53   1.301234 A    
N11   O44   1.301259 A    
C76   H50   1.083202 S    
Zn5   O22   1.958772 S    
N8    O40   1.300527 A    
Zn1   O10   1.946830 S    
C67   C68   1.396343 A    
N4    O33   1.300920 A    
C59   C60   1.415398 A    
C14   N20   1.475489 S    
N16   O47   1.301494 A    
N2    O29   1.301225 A    
C18   C22   1.568901 S    
C6    C11   1.489703 S    
C64   H44   1.082652 S    
N7    O38   1.301251 A    
C61   C66   1.403508 A    
