data_mof_unit_38938.cif
_audit_creation_date              2012-12-10T16:56:31-0500
_audit_creation_method            fapswitch 2.2
_symmetry_space_group_name_H-M    P1
_symmetry_Int_Tables_number       1
_space_group_crystal_system       triclinic
_cell_length_a                    7.835314
_cell_length_b                    8.563974
_cell_length_c                    15.684649
_cell_angle_alpha                 91.823183
_cell_angle_beta                  85.112227
_cell_angle_gamma                 93.413526
_cell_volume                      1046.39610054

loop_
_atom_site_label
_atom_site_type_symbol
_atom_type_description
_atom_site_fract_x
_atom_site_fract_y
_atom_site_fract_z
_atom_type_partial_charge
C1    C     C_R   0.545350 0.794418 0.497904 0.964482
C2    C     C_3   0.401236 0.376490 0.029706 -0.164338
C3    C     C_1   0.502899 0.500298 0.750829 -0.167544
C4    C     C_1   0.497101 0.499702 0.249171 -0.167545
C5    C     C_3   0.338983 0.509862 0.978025 -0.163802
C6    C     C_3   0.661017 0.490138 0.021975 -0.163802
C7    C     C_3   0.501809 0.500117 0.917252 0.209110
C8    C     C_3   0.498191 0.499883 0.082748 0.209110
C9    C     C_1   0.503124 0.500236 0.826244 -0.080718
C10   C     C_1   0.496876 0.499764 0.173756 -0.080717
C11   C     C_1   0.025967 0.349622 0.420861 0.403655
C12   C     C_R   0.454650 0.205582 0.502096 0.964481
C13   C     C_1   0.974033 0.650378 0.579139 0.403655
C14   C     C_R   0.501011 0.500360 0.661873 0.906677
C15   C     C_R   0.498989 0.499640 0.338127 0.906677
C16   C     C_2   0.569253 0.957873 0.496694 -0.370034
C17   C     C_2   0.430747 0.042126 0.503306 -0.370034
C18   C     C_3   0.435935 0.633254 0.032890 -0.165034
C19   C     C_3   0.564065 0.366746 0.967110 -0.165034
C20   C     C_3   0.598764 0.623510 0.970293 -0.164338
H1    H     H_    0.679530 0.724359 0.943755 0.135124
H2    H     H_    0.320470 0.275641 0.056245 0.135124
H3    H     H_    0.383513 0.742080 0.062022 0.134515
H4    H     H_    0.616487 0.257920 0.937978 0.134515
H5    H     H_    0.792570 0.482090 0.042163 0.133587
H6    H     H_    0.207430 0.517910 0.957837 0.133586
H7    H     H_    0.700318 0.008336 0.490368 0.183760
H8    H     H_    0.299682 0.991664 0.509632 0.183760
N1    N     N_2   0.950320 0.457950 0.477300 -0.155906
N2    N     N_2   0.049680 0.542050 0.522700 -0.155906
N3    N     N_1   0.087174 0.258527 0.373370 -0.255556
N4    N     N_1   0.912826 0.741473 0.626630 -0.255556
O1    O     O_R   0.389250 0.738570 0.505570 -0.623978
O2    O     O_R   0.610750 0.261430 0.494430 -0.623978
O3    O     O_R   0.678390 0.711630 0.491020 -0.631312
O4    O     O_R   0.321610 0.288370 0.508980 -0.631312
O5    O     O_R   0.355460 0.513480 0.630490 -0.622526
O6    O     O_R   0.644540 0.486520 0.369510 -0.622526
O7    O     O_R   0.644600 0.486540 0.615950 -0.622737
O8    O     O_R   0.355400 0.513460 0.384050 -0.622736
Zn1   Zn    Zn3+2 0.306940 0.517990 0.509710 0.952575
Zn2   Zn    Zn3+2 0.693060 0.482010 0.490290 0.952575

loop_
_geom_bond_atom_site_label_1
_geom_bond_atom_site_label_2
_ccdc_geom_bond_type
C12   C17   S    
C2    H2    S    
C5    C7    S    
N2    Zn1   S    
N1    N2    D    
C3    C9    T    
N1    Zn2   S    
C12   O4    A    
C6    C20   S    
C13   N4    T    
C18   C20   S    
O2    Zn2   S    
O1    Zn1   S    
C16   H7    S    
C19   H4    S    
C14   O7    A    
C11   N3    T    
C15   O6    A    
C1    C16   S    
C14   O5    A    
C6    C19   S    
C11   N1    S    
O4    Zn1   S    
C3    C14   S    
C4    C15   S    
O8    Zn1   S    
O6    Zn2   S    
O7    Zn2   S    
C7    C19   S    
O5    Zn1   S    
C2    C8    S    
C15   O8    A    
C2    C5    S    
C1    O1    A    
C5    H6    S    
C6    H5    S    
C13   N2    S    
C20   H1    S    
C1    O3    A    
C8    C10   S    
C7    C20   S    
C7    C9    S    
O3    Zn2   S    
C6    C8    S    
C5    C18   S    
C12   O2    A    
C2    C19   S    
C17   H8    S    
C4    C10   T    
C8    C18   S    
C18   H3    S    
C16   C17   D    
