data_mof_unit_13013.cif
_audit_creation_date              2013-03-05T16:31:43-0500
_audit_creation_method            fapswitch 2.2
_symmetry_space_group_name_H-M    P1
_symmetry_Int_Tables_number       1
_space_group_crystal_system       triclinic
_cell_length_a                    14.214276
_cell_length_b                    14.980635
_cell_length_c                    15.135188
_cell_angle_alpha                 90.429808
_cell_angle_beta                  67.527639
_cell_angle_gamma                 88.730782
_cell_volume                      2976.96275637

loop_
_atom_site_label
_atom_site_type_symbol
_atom_site_description
_atom_site_fract_x
_atom_site_fract_y
_atom_site_fract_z
_atom_type_partial_charge
O1    O     O_R   0.420530 0.630930 0.499990 -0.588162
O2    O     O_R   0.579470 0.369070 0.500010 -0.581596
O3    O     O_R   0.579480 0.630940 0.499990 -0.638472
O4    O     O_R   0.420520 0.369060 0.500010 -0.632893
C1    C     C_R   0.500500 0.672503 0.497473 0.849479
C2    C     C_R   0.501301 0.328038 0.499006 0.881252
O5    O     O_R   0.375120 0.499990 0.632240 -0.585532
O6    O     O_R   0.624880 0.500010 0.367760 -0.570587
O7    O     O_R   0.534080 0.500000 0.632240 -0.600175
O8    O     O_R   0.465920 0.500000 0.367760 -0.610719
C3    C     C_R   0.436070 0.496980 0.677901 0.895815
C4    C     C_R   0.564152 0.498508 0.322113 0.900434
Zn1   Zn    Zn3+2 0.393860 0.499990 0.500000 0.969634
Zn2   Zn    Zn3+2 0.606140 0.500010 0.500000 0.985695
C5    C     C_R   0.397555 0.475594 0.781012 -0.179997
C6    C     C_R   0.606263 0.482513 0.217539 -0.173497
C7    C     C_R   0.271488 0.417792 0.928663 0.176822
C8    C     C_R   0.746864 0.459376 0.062824 0.172442
C9    C     C_R   0.296809 0.449236 0.834615 0.174826
C10   C     C_R   0.711493 0.484879 0.160484 0.184888
C11   C     C_R   0.470330 0.468584 0.821853 -0.219065
C12   C     C_R   0.538543 0.456019 0.176381 -0.226646
C13   C     C_R   0.450667 0.425159 0.907966 0.083994
C14   C     C_R   0.571955 0.427368 0.081158 0.089073
C15   C     C_R   0.349079 0.404490 0.965020 0.009359
C16   C     C_R   0.676189 0.434661 0.022014 0.012724
C17   C     C_R   0.529329 0.409633 0.942196 -0.062561
C18   C     C_R   0.501240 0.400798 0.041417 -0.059883
C19   C     C_R   0.402343 0.369836 0.096421 0.311159
C20   C     C_R   0.634704 0.405667 0.882467 0.300599
C21   C     C_R   0.328043 0.370941 0.056806 -0.287602
C22   C     C_R   0.706772 0.417395 0.923521 -0.295703
H1    H     H_    0.253682 0.346271 0.099149 0.191489
H2    H     H_    0.786448 0.414875 0.877086 0.195078
H3    H     H_    0.457853 0.460205 0.219035 0.198217
H4    H     H_    0.544721 0.495770 0.784497 0.186629
C23   C     C_R   0.429662 0.909678 0.472121 -0.175680
C24   C     C_R   0.556653 0.091603 0.534661 -0.164496
H5    H     H_    0.364148 0.947290 0.471081 0.133664
H6    H     H_    0.587971 0.053772 0.578229 0.142180
C25   C     C_R   0.424702 0.817846 0.479161 -0.203370
C26   C     C_R   0.551785 0.183603 0.542763 -0.195459
H7    H     H_    0.357513 0.786143 0.479185 0.169793
H8    H     H_    0.580784 0.216230 0.590965 0.184451
C27   C     C_R   0.505626 0.768507 0.487055 -0.027937
C28   C     C_R   0.506594 0.232787 0.490945 -0.047447
C29   C     C_R   0.594515 0.811243 0.481608 -0.193901
C30   C     C_R   0.468379 0.190974 0.429302 -0.165071
H9    H     H_    0.659396 0.774379 0.485098 0.156601
H10   H     H_    0.434591 0.229499 0.388117 0.196151
C31   C     C_R   0.600540 0.902682 0.472196 -0.179570
C32   C     C_R   0.475227 0.099059 0.419494 -0.160512
H11   H     H_    0.669525 0.934712 0.468448 0.132313
H12   H     H_    0.446510 0.067089 0.370772 0.149287
C33   C     C_R   0.517071 0.952405 0.470119 0.123249
C34   C     C_R   0.518148 0.049053 0.473149 0.096427
C35   C     C_R   0.868071 0.553947 0.563041 -0.223773
C36   C     C_R   0.115075 0.418076 0.482585 -0.223757
H13   H     H_    0.882373 0.597569 0.613583 0.136264
H14   H     H_    0.087523 0.354534 0.469554 0.161440
C37   C     C_R   0.770093 0.555297 0.560605 0.014138
C38   C     C_R   0.214433 0.421714 0.482315 0.011366
H15   H     H_    0.711585 0.600089 0.608150 0.124190
H16   H     H_    0.260807 0.361116 0.467743 0.167318
N1    N     N_R   0.747530 0.500020 0.500000 -0.096382
N2    N     N_R   0.252470 0.499980 0.500000 -0.105619
C39   C     C_R   0.820361 0.441755 0.440812 0.377588
C40   C     C_R   0.192266 0.576547 0.517531 0.371168
C41   C     C_R   0.920164 0.439946 0.439915 -0.317794
C42   C     C_R   0.093330 0.575026 0.517380 -0.347109
H17   H     H_    0.977397 0.395445 0.390264 0.150807
H18   H     H_    0.049318 0.637043 0.529222 0.139300
C43   C     C_R   0.945538 0.495843 0.501886 0.137080
C44   C     C_R   0.052244 0.495679 0.500973 0.106897
N3    N     N_2   0.795468 0.383329 0.379305 -0.268699
H19   H     H_    0.839206 0.393350 0.308230 0.200376
C45   C     C_3   0.795453 0.289914 0.403021 -0.730255
H20   H     H_    0.874554 0.264151 0.385513 0.214811
H21   H     H_    0.760887 0.250892 0.361033 0.239823
H22   H     H_    0.750239 0.280248 0.480299 0.269268
N4    N     N_2   0.229008 0.659821 0.533110 -0.280685
H23   H     H_    0.206787 0.711715 0.500315 0.194634
C46   C     C_3   0.207415 0.680717 0.632412 -0.792872
H24   H     H_    0.124187 0.679145 0.675350 0.221358
H25   H     H_    0.234219 0.748529 0.639063 0.229708
H26   H     H_    0.248829 0.632788 0.660542 0.280191
N5    N     N_2   0.781291 0.515707 0.200210 -0.290240
H27   H     H_    0.852537 0.485379 0.172176 0.231045
C47   C     C_3   0.786059 0.611861 0.205275 -0.755836
H28   H     H_    0.816744 0.639601 0.132093 0.233638
H29   H     H_    0.837009 0.629888 0.242496 0.232523
H30   H     H_    0.709337 0.642055 0.246112 0.238457
N6    N     N_2   0.223194 0.447933 0.792020 -0.272876
H31   H     H_    0.187080 0.387907 0.798881 0.231612
C48   C     C_3   0.152454 0.523548 0.815610 -0.771755
H32   H     H_    0.119236 0.529267 0.760349 0.241971
H33   H     H_    0.191153 0.586427 0.818812 0.233403
H34   H     H_    0.088970 0.513844 0.885217 0.252019
N7    N     N_2   0.167901 0.399880 0.985042 -0.318927
H35   H     H_    0.156125 0.336056 0.011345 0.223165
C49   C     C_3   0.115482 0.468233 0.056249 -0.797833
H36   H     H_    0.033392 0.453478 0.089415 0.242429
H37   H     H_    0.123573 0.534982 0.023133 0.254645
H38   H     H_    0.146138 0.470387 0.113503 0.243961
N8    N     N_2   0.853247 0.461185 0.006633 -0.324423
H39   H     H_    0.872269 0.495912 0.943908 0.225373
C50   C     C_3   0.905226 0.375089 0.994930 -0.808223
H40   H     H_    0.874958 0.327232 0.956582 0.253697
H41   H     H_    0.895666 0.347692 0.065814 0.245430
H42   H     H_    0.987699 0.382374 0.952550 0.259019
N9    N     N_R   0.379711 0.327783 0.187220 0.193416
O9    O     O_R   0.448703 0.278331 0.201761 -0.413689
O10   O     O_R   0.287251 0.330201 0.251437 -0.443861
N10   N     N_R   0.669798 0.379884 0.782919 0.199369
O11   O     O_R   0.620075 0.321911 0.754413 -0.402985
O12   O     O_R   0.758283 0.404516 0.723057 -0.422495

loop_
_geom_bond_atom_site_label_1
_geom_bond_atom_site_label_2
_geom_bond_distance
_ccdc_geom_bond_type
C36   C38   1.413008 A    
O5    Zn1   1.915539 S    
N2    C40   1.377231 A    
N5    H27   1.029691 S    
C16   C22   1.404252 A    
C49   H36   1.108020 S    
C50   H41   1.111545 S    
C43   C44   1.511475 S    
C48   H32   1.109506 S    
C8    C16   1.419569 A    
C33   C34   1.448846 S    
N10   O11   1.301766 A    
C48   H34   1.107549 S    
C29   H9    1.083246 S    
C11   H4    1.081278 S    
C45   H20   1.111233 S    
C5    C9    1.416514 A    
C12   H3    1.079980 S    
N8    C50   1.447437 S    
N6    H31   1.031504 S    
C46   H24   1.111824 S    
O1    C1    1.296165 A    
C40   N4    1.415344 S    
C18   C19   1.422794 A    
C24   H6    1.083056 S    
C14   C16   1.415334 A    
C24   C26   1.380608 A    
C35   H13   1.082039 S    
C36   H14   1.082191 S    
C10   N5    1.425240 S    
C37   H15   1.081790 S    
C26   C28   1.394067 A    
C35   C43   1.411802 A    
O4    Zn1   1.989440 S    
C41   H17   1.082612 S    
C38   H16   1.080082 S    
C3    C5    1.483232 S    
C4    C6    1.478013 S    
N1    C39   1.369434 A    
C42   C44   1.397438 A    
C6    C12   1.394199 A    
C50   H40   1.110994 S    
C21   H1    1.080521 S    
C41   C43   1.404009 A    
C13   C17   1.416283 A    
C47   H29   1.110434 S    
C8    C10   1.413656 A    
C9    N6    1.423852 S    
C6    C10   1.414093 A    
C45   H21   1.110327 S    
C49   H37   1.110352 S    
C17   C20   1.422803 A    
C25   H7    1.075872 S    
O2    C2    1.286730 A    
C26   H8    1.083746 S    
N4    C46   1.444674 S    
C32   H12   1.083164 S    
N4    H23   1.032114 S    
Zn1   N2    2.009760 S    
C27   C29   1.403585 A    
C28   C30   1.397001 A    
C38   N2    1.368458 A    
O4    C2    1.285147 A    
O7    Zn2   1.867576 S    
C29   C31   1.379422 A    
C1    C27   1.448404 S    
C39   C41   1.413140 A    
C22   H2    1.080384 S    
O1    Zn1   2.006080 S    
O5    C3    1.298718 A    
N3    H19   1.030311 S    
C7    N7    1.424286 S    
N7    H35   1.030793 S    
C30   C32   1.381105 A    
O6    C4    1.295941 A    
N9    O10   1.301567 A    
C47   H30   1.111115 S    
O7    C3    1.299127 A    
O3    Zn2   1.989440 S    
O8    C4    1.299373 A    
C40   C42   1.407867 A    
N7    C49   1.449468 S    
C49   H38   1.109372 S    
C11   C13   1.393655 A    
C50   H42   1.108819 S    
C12   C14   1.394734 A    
C39   N3    1.418176 S    
C36   C44   1.409158 A    
C20   N10   1.440922 S    
C45   H22   1.110873 S    
O6    Zn2   1.915540 S    
C2    C28   1.429083 S    
N9    O9    1.301624 A    
C46   H25   1.110057 S    
C15   C21   1.404073 A    
C19   N9    1.439768 S    
C14   C18   1.416646 A    
O3    C1    1.285124 A    
O8    Zn1   1.867576 S    
N10   O12   1.301309 A    
C48   H33   1.111254 S    
C35   C37   1.406892 A    
N8    H39   1.030752 S    
C7    C15   1.419417 A    
N5    C47   1.446361 S    
C8    N8    1.424665 S    
C19   C21   1.399521 A    
C20   C22   1.399740 A    
N6    C48   1.445929 S    
C30   H10   1.083638 S    
C7    C9    1.415449 A    
Zn2   N1    2.009760 S    
C31   C33   1.397576 A    
C13   C15   1.413240 A    
C23   C25   1.381892 A    
O2    Zn2   2.006077 S    
C23   C33   1.400368 A    
C37   N1    1.362071 A    
C5    C11   1.395773 A    
C46   H26   1.104896 S    
C24   C34   1.403097 A    
C23   H5    1.083064 S    
N3    C45   1.447310 S    
C17   C18   1.406796 A    
C25   C27   1.397292 A    
C42   H18   1.082902 S    
C31   H11   1.083382 S    
C47   H28   1.111476 S    
C32   C34   1.400179 A    
