data_mof_unit_58639.cif
_audit_creation_date              2012-12-10T16:58:28-0500
_audit_creation_method            fapswitch 2.2
_symmetry_space_group_name_H-M    P1
_symmetry_Int_Tables_number       1
_space_group_crystal_system       triclinic
_cell_length_a                    7.832772
_cell_length_b                    8.542482
_cell_length_c                    23.402751
_cell_angle_alpha                 92.465938
_cell_angle_beta                  85.190347
_cell_angle_gamma                 92.490834
_cell_volume                      1557.70036419

loop_
_atom_site_label
_atom_site_type_symbol
_atom_type_description
_atom_site_fract_x
_atom_site_fract_y
_atom_site_fract_z
_atom_type_partial_charge
C1    C     C_R   0.543479 0.794074 0.498115 0.939150
C2    C     C_R   0.456521 0.205926 0.501894 0.940560
C3    C     C_R   0.645802 0.465696 0.757525 -0.090610
C4    C     C_R   0.351234 0.539703 0.243194 -0.059561
C5    C     C_R   0.646909 0.462116 0.698303 -0.129165
C6    C     C_R   0.350768 0.539173 0.302305 -0.137844
C7    C     C_R   0.502612 0.507238 0.672731 -0.063556
C8    C     C_R   0.497409 0.497209 0.327259 -0.061062
C9    C     C_R   0.358544 0.559053 0.706836 -0.205155
C10   C     C_R   0.643759 0.453580 0.292538 -0.208370
C11   C     C_R   0.356007 0.565129 0.766604 0.000243
C12   C     C_R   0.646016 0.452016 0.232698 -0.009243
C13   C     C_R   0.501795 0.515760 0.791624 0.223773
C14   C     C_R   0.497040 0.497157 0.208438 0.222632
C15   C     C_2   0.558152 0.952975 0.486483 0.013319
C16   C     C_2   0.441854 0.047022 0.513531 0.012944
C17   C     C_R   0.501082 0.501566 0.610517 0.891512
C18   C     C_R   0.498965 0.499086 0.389471 0.893566
C19   C     C_R   0.417216 0.380479 0.119291 0.600368
C20   C     C_R   0.575740 0.635236 0.881046 0.587539
C21   C     C_R   0.562233 0.632532 0.121049 0.583799
C22   C     C_R   0.432044 0.382646 0.879202 0.575083
C23   C     C_R   0.557878 0.642722 0.061264 -0.084635
C24   C     C_R   0.434664 0.373048 0.939072 -0.083875
C25   C     C_R   0.492524 0.509516 0.030345 -0.005513
C26   C     C_R   0.499592 0.506400 0.970005 -0.009413
C27   C     C_R   0.419941 0.378963 0.059708 -0.036150
C28   C     C_R   0.571959 0.637059 0.940649 -0.024021
C29   C     C_R   0.622698 0.776308 0.030852 -0.059271
C30   C     C_R   0.369189 0.239642 0.969489 -0.053883
C31   C     C_R   0.633932 0.769064 0.971063 -0.169745
C32   C     C_R   0.357341 0.247136 0.029298 -0.187486
H1    H     H_    0.685406 0.870696 0.948190 0.230858
H2    H     H_    0.305756 0.145548 0.052176 0.229707
H3    H     H_    0.756475 0.427916 0.777260 0.170299
H4    H     H_    0.238305 0.574541 0.224028 0.179070
H5    H     H_    0.759345 0.421979 0.672653 0.191006
H6    H     H_    0.236598 0.573452 0.328365 0.190909
H7    H     H_    0.248488 0.596325 0.686617 0.228584
H8    H     H_    0.756094 0.419432 0.312252 0.219956
N1    N     N_R   0.491626 0.503764 0.148031 -0.347675
N2    N     N_R   0.504245 0.510724 0.852180 -0.350690
N3    N     N_2   0.950330 0.457950 0.484560 0.077924
N4    N     N_2   0.049670 0.542050 0.515440 0.078351
O1    O     O_R   0.389250 0.738570 0.503790 -0.588070
O2    O     O_R   0.610750 0.261430 0.496210 -0.587762
O3    O     O_R   0.678390 0.711620 0.493890 -0.573814
O4    O     O_R   0.321610 0.288380 0.506110 -0.573225
O5    O     O_R   0.355400 0.513520 0.588790 -0.600278
O6    O     O_R   0.644600 0.486480 0.411210 -0.600568
O7    O     O_R   0.644550 0.486570 0.578900 -0.609212
O8    O     O_R   0.355450 0.513430 0.421100 -0.610121
O9    O     O_2   0.344713 0.258290 0.148496 -0.480382
O10   O     O_2   0.646070 0.758417 0.851940 -0.512706
O11   O     O_2   0.641759 0.745818 0.152156 -0.501460
O12   O     O_2   0.352878 0.269320 0.848006 -0.500388
Zn1   Zn    Zn3+2 0.306930 0.518000 0.506610 1.108894
Zn2   Zn    Zn3+2 0.693070 0.482000 0.493390 1.108747
C33   C     C_2   0.670929 0.929564 0.058437 0.989571
O13   O     O_2   0.574718 0.989533 0.096218 -0.545128
O14   O     O_R   0.821787 0.010109 0.038380 -0.756933
H9    H     H_    0.838754 0.115347 0.059217 0.364616
C34   C     C_2   0.322025 0.086082 0.941846 0.987869
O15   O     O_2   0.419277 0.026354 0.904321 -0.542920
O16   O     O_R   0.170978 0.005059 0.961466 -0.756297
H10   H     H_    0.154573 0.899967 0.940406 0.379402
C35   C     C_2   0.200683 0.623075 0.801027 0.966936
O17   O     O_2   0.199550 0.645781 0.852984 -0.626149
O18   O     O_R   0.054473 0.653668 0.773551 -0.791288
H11   H     H_    0.957951 0.693429 0.801185 0.380696
C36   C     C_2   0.804080 0.403412 0.197292 0.978582
O19   O     O_2   0.934419 0.380479 0.220572 -0.606246
O20   O     O_R   0.805678 0.382318 0.137693 -0.808212
H12   H     H_    0.921871 0.352156 0.119109 0.351571
Br1   Br    Br    0.705393 0.004132 0.418588 -0.385158
Br2   Br    Br    0.294626 0.995840 0.581429 -0.386012
Br3   Br    Br    0.043954 0.314366 0.428884 -0.290125
Br4   Br    Br    0.956045 0.685548 0.571151 -0.288658

loop_
_geom_bond_atom_site_label_1
_geom_bond_atom_site_label_2
_ccdc_geom_bond_type
C15   Br1   S    
C34   O16   S    
C5    H5    S    
O20   H12   S    
C17   O7    A    
C4    H4    S    
C18   O8    A    
O4    Zn1   S    
C2    O2    A    
O1    Zn1   S    
C6    C8    A    
C23   C29   A    
C24   C26   A    
C15   C16   D    
C9    H7    S    
O5    Zn1   S    
C10   H8    S    
N3    Zn2   S    
C29   C33   S    
C7    C17   S    
C31   H1    S    
C1    C15   S    
C2    C16   S    
C3    C13   A    
C19   O9    S    
C33   O13   D    
C30   C34   S    
O2    Zn2   S    
O14   H9    S    
C13   N2    S    
C11   C35   S    
C33   O14   S    
C35   O17   D    
O6    Zn2   S    
C20   O10   S    
C17   O5    A    
C36   O20   S    
C1    O3    A    
C22   O12   S    
C20   C28   A    
C2    O4    A    
C25   C26   A    
C8    C18   S    
C35   O18   S    
C32   H2    S    
N3    N4    D    
C3    H3    S    
N4    Zn1   S    
C6    H6    S    
O7    Zn2   S    
C9    C11   A    
C10   C12   A    
C14   N1    S    
C21   N1    A    
C4    C6    A    
C12   C36   S    
C12   C14   A    
C21   C23   A    
C22   C24   A    
C25   C27   A    
C19   C27   A    
C18   O6    A    
C5    C7    A    
C7    C9    A    
C21   O11   S    
C27   C32   A    
C16   Br2   S    
C28   C31   A    
C3    C5    A    
C20   N2    A    
N3    Br3   S    
C26   C28   A    
N4    Br4   S    
C36   O19   D    
C29   C31   A    
O3    Zn2   S    
C30   C32   A    
C11   C13   A    
C1    O1    A    
C22   N2    A    
C23   C25   A    
C4    C14   A    
O18   H11   S    
C24   C30   A    
O8    Zn1   S    
C34   O15   D    
C8    C10   A    
O16   H10   S    
C19   N1    A    
