data_mof_unit_64315.cif
_audit_creation_date              2012-12-10T19:08:58-0500
_audit_creation_method            fapswitch 2.2
_symmetry_space_group_name_H-M    P1
_symmetry_Int_Tables_number       1
_space_group_crystal_system       monoclinic
_cell_length_a                    30.272394
_cell_length_b                    30.272394
_cell_length_c                    18.231557
_cell_angle_alpha                 90.000022
_cell_angle_beta                  90.0
_cell_angle_gamma                 90.0
_cell_volume                      16707.7240583

loop_
_atom_site_label
_atom_site_type_symbol
_atom_type_description
_atom_site_fract_x
_atom_site_fract_y
_atom_site_fract_z
_atom_type_partial_charge
C1    C     C_R   0.226390 1.000000 0.500000 0.088516
C2    C     C_R   0.000000 0.226390 0.500000 0.088516
C3    C     C_R   0.773610 0.000000 0.500000 0.088517
C4    C     C_R   1.000000 0.773610 0.500000 0.088517
C5    C     C_R   0.726390 0.500000 0.000000 0.088516
C6    C     C_R   0.500000 0.726390 0.000000 0.088517
C7    C     C_R   0.273610 0.500000 0.000000 0.088517
C8    C     C_R   0.500000 0.273610 1.000000 0.088516
C9    C     C_R   0.203911 0.035601 0.469988 -0.110850
C10   C     C_R   0.964399 0.203911 0.469988 -0.110849
C11   C     C_R   0.796089 0.964399 0.469988 -0.110850
C12   C     C_R   0.035601 0.796089 0.469989 -0.110850
C13   C     C_R   0.796089 0.035601 0.530012 -0.110848
C14   C     C_R   0.035601 0.203911 0.530011 -0.110849
C15   C     C_R   0.203911 0.964399 0.530012 -0.110849
C16   C     C_R   0.964399 0.796089 0.530011 -0.110849
C17   C     C_R   0.703911 0.535601 0.969989 -0.110849
C18   C     C_R   0.464399 0.703911 0.969988 -0.110850
C19   C     C_R   0.296089 0.464399 0.969988 -0.110850
C20   C     C_R   0.535601 0.296089 0.969988 -0.110849
C21   C     C_R   0.296089 0.535601 0.030012 -0.110850
C22   C     C_R   0.535601 0.703911 0.030011 -0.110849
C23   C     C_R   0.703911 0.464399 0.030011 -0.110850
C24   C     C_R   0.464399 0.296089 0.030011 -0.110849
C25   C     C_R   0.157885 0.036592 0.469392 -0.060243
C26   C     C_R   0.963408 0.157885 0.469392 -0.060242
C27   C     C_R   0.842115 0.963408 0.469392 -0.060245
C28   C     C_R   0.036592 0.842115 0.469392 -0.060242
C29   C     C_R   0.842115 0.036592 0.530608 -0.060242
C30   C     C_R   0.036592 0.157885 0.530608 -0.060243
C31   C     C_R   0.157885 0.963408 0.530608 -0.060242
C32   C     C_R   0.963408 0.842115 0.530607 -0.060240
C33   C     C_R   0.657885 0.536592 0.969392 -0.060243
C34   C     C_R   0.463408 0.657885 0.969392 -0.060242
C35   C     C_R   0.342115 0.463408 0.969392 -0.060242
C36   C     C_R   0.536592 0.342115 0.969392 -0.060242
C37   C     C_R   0.342115 0.536592 0.030608 -0.060243
C38   C     C_R   0.536592 0.657885 0.030608 -0.060242
C39   C     C_R   0.657885 0.463408 0.030607 -0.060242
C40   C     C_R   0.463408 0.342115 0.030607 -0.060242
C41   C     C_R   0.134436 1.000000 0.500000 -0.160121
C42   C     C_R   1.000000 0.134436 0.500000 -0.160121
C43   C     C_R   0.865564 1.000000 0.500000 -0.160121
C44   C     C_R   0.000000 0.865564 0.500000 -0.160121
C45   C     C_R   0.634436 0.500000 0.000000 -0.160120
C46   C     C_R   0.500000 0.634436 0.000000 -0.160120
C47   C     C_R   0.365564 0.500000 0.000000 -0.160120
C48   C     C_R   0.500000 0.365564 1.000000 -0.160121
C49   C     C_R   0.413926 1.000000 0.500000 0.924728
C50   C     C_R   0.000000 0.413926 0.500000 0.924728
C51   C     C_R   0.586074 1.000000 0.500000 0.924728
C52   C     C_R   0.000000 0.586074 0.500000 0.924728
C53   C     C_R   0.913925 0.500000 0.000000 0.924728
C54   C     C_R   0.500000 0.913925 0.000000 0.924728
C55   C     C_R   0.086074 0.500000 0.000000 0.924728
C56   C     C_R   0.500000 0.086074 0.000000 0.924728
C57   C     C_R   0.500000 0.000000 0.358973 0.937953
C58   C     C_R   0.000000 0.500000 0.358973 0.937953
C59   C     C_R   0.500000 0.000000 0.641027 0.937953
C60   C     C_R   0.000000 0.500000 0.641027 0.937954
C61   C     C_R   0.000000 0.500000 0.858973 0.937953
C62   C     C_R   0.500000 1.000000 0.858973 0.937953
C63   C     C_R   0.000000 0.500000 0.141027 0.937953
C64   C     C_R   0.500000 0.000000 0.141027 0.937953
C65   C     C_R   1.000000 0.913613 0.500000 0.992334
C66   C     C_R   0.086387 0.000000 0.500000 0.992333
C67   C     C_R   0.000000 0.086387 0.500000 0.992333
C68   C     C_R   0.913613 1.000000 0.500000 0.992333
C69   C     C_R   0.500000 0.413613 1.000000 0.992334
C70   C     C_R   0.586387 0.500000 0.000000 0.992333
C71   C     C_R   0.500000 0.586387 0.000000 0.992333
C72   C     C_R   0.413613 0.500000 0.000000 0.992334
C73   C     C_1   0.500000 1.000000 0.282427 -0.096306
C74   C     C_1   0.000000 0.500000 0.282427 -0.096306
C75   C     C_1   0.500000 0.000000 0.717573 -0.096306
C76   C     C_1   0.000000 0.500000 0.717573 -0.096306
C77   C     C_1   0.000000 0.500000 0.782427 -0.096306
C78   C     C_1   0.500000 0.000000 0.782427 -0.096306
C79   C     C_1   0.000000 0.500000 0.217573 -0.096306
C80   C     C_1   0.500000 1.000000 0.217573 -0.096306
C81   C     C_R   0.297328 0.011141 0.564913 -0.040938
C82   C     C_R   0.988859 0.297328 0.564914 -0.040938
C83   C     C_R   0.702672 0.988859 0.564913 -0.040938
C84   C     C_R   0.011141 0.702672 0.564914 -0.040938
C85   C     C_R   0.702672 0.011141 0.435086 -0.040938
C86   C     C_R   0.011141 0.297328 0.435086 -0.040938
C87   C     C_R   0.297328 0.988859 0.435086 -0.040938
C88   C     C_R   0.988859 0.702672 0.435086 -0.040938
C89   C     C_R   0.797328 0.511141 0.064914 -0.040938
C90   C     C_R   0.488859 0.797328 0.064914 -0.040938
C91   C     C_R   0.202672 0.488859 0.064914 -0.040938
C92   C     C_R   0.511141 0.202672 0.064914 -0.040938
C93   C     C_R   0.202672 0.511141 0.935086 -0.040938
C94   C     C_R   0.511141 0.797328 0.935086 -0.040938
C95   C     C_R   0.797328 0.488859 0.935086 -0.040938
C96   C     C_R   0.488859 0.202672 0.935086 -0.040939
C97   C     C_R   0.343569 0.011565 0.564501 0.072135
C98   C     C_R   0.988435 0.343569 0.564501 0.072134
C99   C     C_R   0.656431 0.988435 0.564501 0.072134
C100  C     C_R   0.011565 0.656431 0.564501 0.072134
C101  C     C_R   0.656431 0.011565 0.435499 0.072134
C102  C     C_R   0.011565 0.343569 0.435499 0.072134
C103  C     C_R   0.343569 0.988435 0.435499 0.072135
C104  C     C_R   0.988435 0.656431 0.435499 0.072134
C105  C     C_R   0.843569 0.511565 0.064501 0.072134
C106  C     C_R   0.488435 0.843569 0.064501 0.072134
C107  C     C_R   0.156431 0.488435 0.064501 0.072135
C108  C     C_R   0.511565 0.156431 0.064501 0.072134
C109  C     C_R   0.156431 0.511565 0.935499 0.072135
C110  C     C_R   0.511565 0.843569 0.935499 0.072135
C111  C     C_R   0.843569 0.488435 0.935499 0.072135
C112  C     C_R   0.488435 0.156431 0.935499 0.072135
C113  C     C_R   0.366228 1.000000 0.500000 -0.143158
C114  C     C_R   0.000000 0.366228 0.500000 -0.143158
C115  C     C_R   0.633772 0.000000 0.500000 -0.143158
C116  C     C_R   1.000000 0.633772 0.500000 -0.143158
C117  C     C_R   0.866228 0.500000 0.000000 -0.143158
C118  C     C_R   0.500000 0.866228 0.000000 -0.143158
C119  C     C_R   0.133772 0.500000 0.000000 -0.143158
C120  C     C_R   0.500000 0.133772 1.000000 -0.143158
C121  C     C_R   0.274501 1.000000 0.500000 -0.134461
C122  C     C_R   0.000000 0.274501 0.500000 -0.134460
C123  C     C_R   0.725499 0.000000 0.500000 -0.134461
C124  C     C_R   1.000000 0.725499 0.500000 -0.134460
C125  C     C_R   0.774501 0.500000 0.000000 -0.134461
C126  C     C_R   0.500000 0.774501 0.000000 -0.134461
C127  C     C_R   0.225499 0.500000 0.000000 -0.134460
C128  C     C_R   0.500000 0.225499 1.000000 -0.134460
H1    H     H_    0.222870 0.062645 0.446980 0.195388
H2    H     H_    0.937355 0.222870 0.446980 0.195388
H3    H     H_    0.777130 0.937356 0.446979 0.195389
H4    H     H_    0.062645 0.777130 0.446980 0.195388
H5    H     H_    0.777130 0.062645 0.553021 0.195388
H6    H     H_    0.062645 0.222870 0.553020 0.195388
H7    H     H_    0.222870 0.937355 0.553020 0.195388
H8    H     H_    0.937355 0.777130 0.553020 0.195386
H9    H     H_    0.722870 0.562645 0.946980 0.195388
H10   H     H_    0.437355 0.722870 0.946980 0.195388
H11   H     H_    0.277130 0.437355 0.946980 0.195388
H12   H     H_    0.562645 0.277130 0.946980 0.195388
H13   H     H_    0.277130 0.562645 0.053020 0.195388
H14   H     H_    0.562645 0.722870 0.053020 0.195388
H15   H     H_    0.722870 0.437355 0.053020 0.195388
H16   H     H_    0.437355 0.277130 0.053020 0.195388
O1    O     O_R   0.434530 0.036970 0.500000 -0.600649
O2    O     O_R   0.963030 0.434530 0.500000 -0.600648
O3    O     O_R   0.565470 0.963030 0.500000 -0.600649
O4    O     O_R   0.036970 0.565470 0.500000 -0.600649
O5    O     O_R   0.565470 0.036970 0.500000 -0.600649
O6    O     O_R   0.036970 0.434530 0.500000 -0.600649
O7    O     O_R   0.434530 0.963030 0.500000 -0.600648
O8    O     O_R   0.963030 0.565470 0.500000 -0.600649
O9    O     O_R   0.934530 0.536970 0.000000 -0.600649
O10   O     O_R   0.463030 0.934530 0.000000 -0.600648
O11   O     O_R   0.065470 0.463030 0.000000 -0.600649
O12   O     O_R   0.536970 0.065470 0.000000 -0.600649
O13   O     O_R   0.065470 0.536970 0.000000 -0.600649
O14   O     O_R   0.536970 0.934530 0.000000 -0.600649
O15   O     O_R   0.934530 0.463030 0.000000 -0.600648
O16   O     O_R   0.463030 0.065470 0.000000 -0.600649
O17   O     O_R   0.500010 0.036970 0.392670 -0.601746
O18   O     O_R   0.963030 0.500010 0.392670 -0.601745
O19   O     O_R   0.499990 0.963030 0.392670 -0.601745
O20   O     O_R   0.036970 0.499990 0.392670 -0.601746
O21   O     O_R   0.499990 0.036970 0.607330 -0.601746
O22   O     O_R   0.036970 0.500010 0.607330 -0.601746
O23   O     O_R   0.500010 0.963030 0.607330 -0.601745
O24   O     O_R   0.963030 0.499990 0.607330 -0.601745
O25   O     O_R   0.000010 0.536970 0.892670 -0.601746
O26   O     O_R   0.463030 0.000010 0.892670 -0.601745
O27   O     O_R   0.999990 0.463030 0.892670 -0.601745
O28   O     O_R   0.536970 0.999990 0.892670 -0.601746
O29   O     O_R   0.999990 0.536970 0.107330 -0.601746
O30   O     O_R   0.536970 0.000010 0.107330 -0.601746
O31   O     O_R   0.000010 0.463030 0.107330 -0.601745
O32   O     O_R   0.463030 0.999990 0.107330 -0.601745
O33   O     O_R   0.999990 0.934550 0.439420 -0.569331
O34   O     O_R   0.065450 0.999990 0.439420 -0.569331
O35   O     O_R   0.000010 0.065450 0.439420 -0.569331
O36   O     O_R   0.934550 0.000010 0.439420 -0.569332
O37   O     O_R   0.000010 0.934550 0.560580 -0.569331
O38   O     O_R   0.934550 0.999990 0.560580 -0.569331
O39   O     O_R   0.999990 0.065450 0.560580 -0.569331
O40   O     O_R   0.065450 0.000010 0.560580 -0.569331
O41   O     O_R   0.499990 0.434550 0.939420 -0.569331
O42   O     O_R   0.565450 0.499990 0.939420 -0.569331
O43   O     O_R   0.500010 0.565450 0.939420 -0.569331
O44   O     O_R   0.434550 0.500010 0.939420 -0.569331
O45   O     O_R   0.500010 0.434550 0.060580 -0.569331
O46   O     O_R   0.434550 0.499990 0.060580 -0.569331
O47   O     O_R   0.499990 0.565450 0.060580 -0.569331
O48   O     O_R   0.565450 0.500010 0.060580 -0.569332
Zn1   Zn    Zn3+2 0.500000 0.049360 0.500000 1.080923
Zn2   Zn    Zn3+2 0.950640 0.500000 0.500000 1.080923
Zn3   Zn    Zn3+2 0.500000 0.950640 0.500000 1.080923
Zn4   Zn    Zn3+2 0.049360 0.500000 0.500000 1.080923
Zn5   Zn    Zn3+2 1.000000 0.549360 0.000000 1.080923
Zn6   Zn    Zn3+2 0.450640 0.000000 0.000000 1.080923
Zn7   Zn    Zn3+2 0.000000 0.450640 0.000000 1.080923
Zn8   Zn    Zn3+2 0.549360 0.000000 0.000000 1.080923
Zn9   Zn    Zn3+2 0.000000 1.000000 0.419090 1.159777
Zn10  Zn    Zn3+2 0.000000 1.000000 0.580910 1.159779
Zn11  Zn    Zn3+2 0.500000 0.500000 0.919090 1.159778
Zn12  Zn    Zn3+2 0.500000 0.500000 0.080910 1.159778
C129  C     C_2   0.272814 0.022476 0.632882 0.963815
O49   O     O_2   0.245053 0.051819 0.632010 -0.592037
O50   O     O_R   0.280970 0.999022 0.697516 -0.756545
H17   H     H_    0.262078 0.009606 0.739935 0.363262
C130  C     C_2   0.977525 0.272814 0.632882 0.963816
O51   O     O_2   0.948182 0.245053 0.632011 -0.592037
O52   O     O_R   0.000978 0.280970 0.697516 -0.756546
H18   H     H_    0.990395 0.262078 0.739935 0.363263
C131  C     C_2   0.727186 0.977525 0.632882 0.963816
O53   O     O_2   0.754947 0.948182 0.632010 -0.592039
O54   O     O_R   0.719030 0.000978 0.697516 -0.756545
H19   H     H_    0.737922 0.990394 0.739935 0.363263
C132  C     C_2   0.022475 0.727186 0.632882 0.963815
O55   O     O_2   0.051818 0.754947 0.632011 -0.592036
O56   O     O_R   0.999021 0.719030 0.697516 -0.756546
H20   H     H_    0.009605 0.737923 0.739935 0.363263
C133  C     C_2   0.727186 0.022476 0.367118 0.963815
O57   O     O_2   0.754947 0.051818 0.367990 -0.592036
O58   O     O_R   0.719030 0.999022 0.302483 -0.756546
H21   H     H_    0.737922 0.009606 0.260065 0.363263
C134  C     C_2   0.022475 0.272814 0.367118 0.963815
O59   O     O_2   0.051818 0.245053 0.367989 -0.592037
O60   O     O_R   0.999021 0.280970 0.302483 -0.756546
H22   H     H_    0.009605 0.262078 0.260065 0.363263
C135  C     C_2   0.272814 0.977524 0.367118 0.963815
O61   O     O_2   0.245053 0.948181 0.367990 -0.592037
O62   O     O_R   0.280970 0.000978 0.302483 -0.756546
H23   H     H_    0.262078 0.990394 0.260065 0.363263
C136  C     C_2   0.977525 0.727186 0.367118 0.963815
O63   O     O_2   0.948182 0.754947 0.367989 -0.592037
O64   O     O_R   0.000979 0.719030 0.302483 -0.756545
H24   H     H_    0.990395 0.737922 0.260065 0.363262
C137  C     C_2   0.772814 0.522475 0.132882 0.963815
O65   O     O_2   0.745053 0.551818 0.132010 -0.592037
O66   O     O_R   0.780970 0.499022 0.197517 -0.756545
H25   H     H_    0.762078 0.509606 0.239935 0.363262
C138  C     C_2   0.477525 0.772814 0.132882 0.963815
O67   O     O_2   0.448182 0.745053 0.132011 -0.592036
O68   O     O_R   0.500978 0.780970 0.197517 -0.756546
H26   H     H_    0.490395 0.762078 0.239935 0.363263
C139  C     C_2   0.227186 0.477525 0.132882 0.963816
O69   O     O_2   0.254947 0.448182 0.132011 -0.592038
O70   O     O_R   0.219030 0.500978 0.197517 -0.756546
H27   H     H_    0.237922 0.490395 0.239935 0.363263
C140  C     C_2   0.522475 0.227186 0.132882 0.963815
O71   O     O_2   0.551818 0.254947 0.132010 -0.592037
O72   O     O_R   0.499022 0.219030 0.197517 -0.756545
H28   H     H_    0.509605 0.237923 0.239935 0.363262
C141  C     C_2   0.227186 0.522475 0.867118 0.963815
O73   O     O_2   0.254947 0.551818 0.867989 -0.592037
O74   O     O_R   0.219030 0.499021 0.802483 -0.756546
H29   H     H_    0.237922 0.509605 0.760065 0.363262
C142  C     C_2   0.522475 0.772814 0.867118 0.963815
O75   O     O_2   0.551818 0.745053 0.867989 -0.592037
O76   O     O_R   0.499022 0.780970 0.802483 -0.756546
H30   H     H_    0.509605 0.762078 0.760065 0.363262
C143  C     C_2   0.772814 0.477524 0.867118 0.963815
O77   O     O_2   0.745053 0.448182 0.867989 -0.592037
O78   O     O_R   0.780970 0.500978 0.802483 -0.756546
H31   H     H_    0.762078 0.490395 0.760065 0.363263
C144  C     C_2   0.477525 0.227186 0.867118 0.963815
O79   O     O_2   0.448182 0.254947 0.867989 -0.592037
O80   O     O_R   0.500978 0.219030 0.802483 -0.756545
H32   H     H_    0.490395 0.237922 0.760065 0.363263
I1    I     I_    0.379561 0.031146 0.660541 -0.213273
I2    I     I_    0.968855 0.379561 0.660541 -0.213274
I3    I     I_    0.620440 0.968855 0.660541 -0.213275
I4    I     I_    0.031145 0.620440 0.660541 -0.213275
I5    I     I_    0.620439 0.031145 0.339459 -0.213274
I6    I     I_    0.031145 0.379560 0.339459 -0.213274
I7    I     I_    0.379561 0.968854 0.339459 -0.213273
I8    I     I_    0.968855 0.620439 0.339459 -0.213274
I9    I     I_    0.879560 0.531145 0.160541 -0.213274
I10   I     I_    0.468855 0.879560 0.160541 -0.213274
I11   I     I_    0.120439 0.468855 0.160541 -0.213275
I12   I     I_    0.531145 0.120440 0.160541 -0.213275
I13   I     I_    0.120439 0.531145 0.839459 -0.213275
I14   I     I_    0.531145 0.879560 0.839459 -0.213274
I15   I     I_    0.879560 0.468855 0.839459 -0.213274
I16   I     I_    0.468855 0.120439 0.839459 -0.213274
C145  C     C_2   0.136771 0.077198 0.438220 0.921892
O81   O     O_2   0.098358 0.077275 0.417933 -0.615595
O82   O     O_R   0.161674 0.115924 0.431073 -0.768369
H33   H     H_    0.144045 0.141271 0.409486 0.377935
C146  C     C_2   0.922801 0.136771 0.438221 0.921891
O83   O     O_2   0.922725 0.098358 0.417933 -0.615595
O84   O     O_R   0.884075 0.161674 0.431074 -0.768369
H34   H     H_    0.858729 0.144045 0.409487 0.377935
C147  C     C_2   0.863229 0.922802 0.438220 0.921891
O85   O     O_2   0.901643 0.922725 0.417936 -0.615598
O86   O     O_R   0.838326 0.884076 0.431069 -0.768369
H35   H     H_    0.855954 0.858729 0.409482 0.377937
C148  C     C_2   0.077199 0.863229 0.438221 0.921892
O87   O     O_2   0.077275 0.901642 0.417933 -0.615594
O88   O     O_R   0.115925 0.838326 0.431075 -0.768370
H36   H     H_    0.141271 0.855955 0.409487 0.377935
C149  C     C_2   0.863229 0.077198 0.561780 0.921891
O89   O     O_2   0.901642 0.077275 0.582067 -0.615594
O90   O     O_R   0.838326 0.115924 0.568927 -0.768370
H37   H     H_    0.855955 0.141271 0.590514 0.377935
C150  C     C_2   0.077198 0.136771 0.561779 0.921891
O91   O     O_2   0.077275 0.098358 0.582067 -0.615594
O92   O     O_R   0.115925 0.161674 0.568926 -0.768369
H38   H     H_    0.141271 0.144045 0.590513 0.377935
C151  C     C_2   0.136771 0.922802 0.561780 0.921891
O93   O     O_2   0.098358 0.922725 0.582067 -0.615594
O94   O     O_R   0.161674 0.884076 0.568927 -0.768370
H39   H     H_    0.144045 0.858729 0.590514 0.377936
C152  C     C_2   0.922801 0.863229 0.561779 0.921891
O95   O     O_2   0.922726 0.901642 0.582069 -0.615590
O96   O     O_R   0.884075 0.838327 0.568922 -0.768371
H40   H     H_    0.858728 0.855955 0.590510 0.377935
C153  C     C_2   0.636771 0.577198 0.938220 0.921891
O97   O     O_2   0.598357 0.577275 0.917933 -0.615594
O98   O     O_R   0.661674 0.615924 0.931074 -0.768370
H41   H     H_    0.644045 0.641271 0.909486 0.377936
C154  C     C_2   0.422801 0.636771 0.938220 0.921892
O99   O     O_2   0.422725 0.598358 0.917933 -0.615594
O100  O     O_R   0.384075 0.661674 0.931074 -0.768370
H42   H     H_    0.358729 0.644045 0.909486 0.377936
C155  C     C_2   0.363229 0.422802 0.938220 0.921892
O101  O     O_2   0.401642 0.422725 0.917933 -0.615594
O102  O     O_R   0.338326 0.384076 0.931073 -0.768370
H43   H     H_    0.355955 0.358729 0.909486 0.377935
C156  C     C_2   0.577198 0.363229 0.938220 0.921892
O103  O     O_2   0.577275 0.401642 0.917933 -0.615594
O104  O     O_R   0.615924 0.338326 0.931074 -0.768370
H44   H     H_    0.641271 0.355955 0.909486 0.377935
C157  C     C_2   0.363229 0.577198 0.061780 0.921891
O105  O     O_2   0.401642 0.577275 0.082067 -0.615594
O106  O     O_R   0.338326 0.615924 0.068926 -0.768370
H45   H     H_    0.355955 0.641271 0.090514 0.377936
C158  C     C_2   0.577198 0.636771 0.061780 0.921892
O107  O     O_2   0.577275 0.598358 0.082067 -0.615594
O108  O     O_R   0.615924 0.661674 0.068926 -0.768370
H46   H     H_    0.641271 0.644045 0.090514 0.377935
C159  C     C_2   0.636771 0.422801 0.061780 0.921892
O109  O     O_2   0.598358 0.422725 0.082067 -0.615594
O110  O     O_R   0.661674 0.384075 0.068926 -0.768370
H47   H     H_    0.644045 0.358729 0.090514 0.377936
C160  C     C_2   0.422801 0.363229 0.061779 0.921892
O111  O     O_2   0.422725 0.401642 0.082067 -0.615594
O112  O     O_R   0.384075 0.338326 0.068926 -0.768370
H48   H     H_    0.358729 0.355955 0.090513 0.377936

loop_
_geom_bond_atom_site_label_1
_geom_bond_atom_site_label_2
_ccdc_geom_bond_type
C49   C113  S    
C33   C45   A    
C108  C120  A    
O58   H21   S    
C58   O20   A    
C110  C118  A    
C158  O107  D    
C70   O48   A    
C89   C125  A    
C157  O105  D    
C68   O38   A    
C91   C127  A    
C98   C114  A    
C94   C142  S    
C22   C38   A    
O112  H48   S    
C104  C116  A    
O84   H34   S    
C43   C68   S    
O14   Zn8   S    
C1    C15   A    
C4    C12   A    
C3    C13   A    
C82   C130  S    
C129  O50   S    
C35   C47   A    
C139  O69   D    
C106  C118  A    
C82   C98   A    
C23   H15   S    
O23   Zn3   S    
C3    C123  S    
C63   O29   A    
C131  O54   S    
C62   O26   A    
C53   O15   A    
C49   O7    A    
O100  H42   S    
C84   C100  A    
C91   C107  A    
O72   H28   S    
O36   Zn9   S    
C25   C41   A    
C112  C120  A    
C55   C119  S    
C87   C135  S    
C28   C44   A    
C81   C121  A    
C50   C114  S    
O54   H19   S    
C135  O61   D    
C102  C114  A    
C109  I13   S    
O60   H22   S    
C11   C27   A    
O48   Zn12  S    
C102  I6    S    
C87   C103  A    
O28   Zn8   S    
C7    C19   A    
C74   C79   T    
C101  C115  A    
C61   O25   A    
C64   O30   A    
C58   O18   A    
C69   O41   A    
C59   O23   A    
C141  O74   S    
C40   C48   A    
C12   H4    S    
C13   H5    S    
C71   O43   A    
C54   O10   A    
O8    Zn2   S    
C145  O82   S    
C19   C35   A    
O41   Zn11  S    
C34   C154  S    
C85   C123  A    
C2    C14   A    
C3    C11   A    
O106  H45   S    
C95   C143  S    
C57   O17   A    
C19   H11   S    
C154  O99   D    
C17   H9    S    
C142  O76   S    
C37   C157  S    
C82   C122  A    
C53   O9    A    
C88   C124  A    
O46   Zn12  S    
C55   O11   A    
C88   C136  S    
C140  O71   D    
C133  O57   D    
O22   Zn4   S    
C143  O77   D    
O10   Zn6   S    
C152  O96   S    
C4    C124  S    
C18   H10   S    
C138  O67   D    
C112  I16   S    
C57   C73   S    
C155  O102  S    
C95   C125  A    
O5    Zn1   S    
C8    C128  S    
C61   C77   S    
C150  O92   S    
C5    C23   A    
C34   C46   A    
C64   O32   A    
C136  O63   D    
C104  I8    S    
C59   O21   A    
C39   C45   A    
C52   O4    A    
C137  O65   D    
C92   C140  S    
C148  O88   S    
C44   C65   S    
C27   C147  S    
C72   O46   A    
C88   C104  A    
C146  O83   D    
C157  O106  S    
C159  O110  S    
C32   C44   A    
C134  O60   S    
O15   Zn7   S    
O29   Zn5   S    
C132  O55   D    
C4    C16   A    
C147  O85   D    
C136  O64   S    
C57   O19   A    
C22   H14   S    
C130  O51   D    
O17   Zn1   S    
C144  O80   S    
O31   Zn7   S    
C67   O39   A    
C106  I10   S    
C42   C67   S    
O33   Zn9   S    
O2    Zn2   S    
C16   H8    S    
O11   Zn7   S    
C58   C74   S    
O25   Zn5   S    
C31   C41   A    
C111  I15   S    
C62   C78   S    
O32   Zn6   S    
O80   H32   S    
O20   Zn4   S    
C15   C31   A    
C41   C66   S    
C110  I14   S    
C16   C32   A    
C111  C117  A    
C137  O66   S    
C103  I7    S    
C97   I1    S    
C65   O33   A    
C99   I3    S    
C8    C24   A    
O42   Zn11  S    
C36   C48   A    
C25   C145  S    
C1    C121  S    
C38   C46   A    
C70   O42   A    
C35   C155  S    
O34   Zn9   S    
C5    C125  S    
C86   C134  S    
C7    C127  S    
C85   C133  S    
O76   H30   S    
C93   C109  A    
C86   C102  A    
O66   H25   S    
C100  C116  A    
O110  H47   S    
C9    C25   A    
O78   H31   S    
C131  O53   D    
C31   C151  S    
C26   C42   A    
C12   C28   A    
C13   C29   A    
C99   C115  A    
C93   C141  S    
C5    C17   A    
O68   H26   S    
C6    C22   A    
O43   Zn11  S    
C96   C128  A    
C156  O103  D    
O7    Zn3   S    
C153  O98   S    
O35   Zn9   S    
C86   C122  A    
C2    C122  S    
O64   H24   S    
C160  O112  S    
O1    Zn1   S    
C56   O12   A    
C50   O2    A    
C52   C116  S    
O96   H40   S    
C83   C99   A    
C29   C43   A    
C64   C80   S    
C105  C117  A    
C17   C33   A    
C107  C119  A    
C158  O108  S    
C149  O90   S    
O45   Zn12  S    
C36   C156  S    
O50   H17   S    
C89   C137  S    
C1    C9    A    
C6    C126  S    
C33   C153  S    
O56   H20   S    
C87   C121  A    
C63   C79   S    
C151  O93   D    
C94   C110  A    
C51   C115  S    
O92   H38   S    
O21   Zn1   S    
O88   H36   S    
C10   H2    S    
C145  O81   D    
C66   O34   A    
O108  H46   S    
O19   Zn3   S    
C52   O8    A    
C49   O1    A    
C8    C20   A    
C90   C106  A    
C46   C71   S    
C139  O70   S    
C132  O56   S    
O47   Zn12  S    
O86   H35   S    
C109  C119  A    
C100  I4    S    
C96   C144  S    
C24   C40   A    
C45   C70   S    
O38   Zn10  S    
O39   Zn10  S    
C149  O89   D    
O16   Zn6   S    
O30   Zn8   S    
C20   H12   S    
C21   H13   S    
O102  H43   S    
C135  O62   S    
C67   O35   A    
C7    C21   A    
C152  O95   D    
C141  O73   D    
C32   C152  S    
C24   H16   S    
C60   C76   S    
O13   Zn5   S    
C155  O101  D    
C60   O22   A    
C47   C72   S    
C84   C132  S    
O98   H41   S    
C20   C36   A    
C27   C43   A    
C55   O13   A    
C21   C37   A    
C51   O5    A    
C56   O16   A    
C150  O91   D    
C30   C42   A    
C83   C123  A    
C29   C149  S    
O94   H39   S    
C91   C139  S    
C105  I9    S    
C148  O87   D    
C26   C146  S    
O37   Zn10  S    
C48   C69   S    
O104  H44   S    
C107  I11   S    
C65   O37   A    
C129  O49   D    
C98   I2    S    
C96   C112  A    
C60   O24   A    
C103  C113  A    
C30   C150  S    
C142  O75   D    
C38   C158  S    
C53   C117  S    
C15   H7    S    
C39   C159  S    
C72   O44   A    
O27   Zn7   S    
C130  O52   S    
O4    Zn4   S    
O52   H18   S    
C97   C113  A    
C154  O100  S    
O3    Zn3   S    
C144  O79   D    
C147  O86   S    
C10   C26   A    
O90   H37   S    
O24   Zn2   S    
C56   C120  S    
C101  I5    S    
O12   Zn8   S    
C14   C30   A    
C92   C128  A    
C83   C131  S    
C92   C108  A    
C94   C126  A    
C90   C126  A    
C6    C18   A    
C140  O72   S    
O40   Zn10  S    
C76   C77   T    
C69   O45   A    
C143  O78   S    
C14   H6    S    
C68   O36   A    
C138  O68   S    
C93   C127  A    
C54   O14   A    
C50   O6    A    
C51   O3    A    
O18   Zn2   S    
C134  O59   D    
C156  O104  S    
C18   C34   A    
O6    Zn4   S    
C61   O27   A    
C54   C118  S    
O82   H33   S    
C37   C47   A    
C89   C105  A    
O74   H29   S    
C2    C10   A    
C59   C75   S    
C28   C148  S    
O26   Zn6   S    
C85   C101  A    
C81   C129  S    
C66   O40   A    
C11   H3    S    
O70   H27   S    
C63   O31   A    
C9    H1    S    
C40   C160  S    
C84   C124  A    
C62   O28   A    
O44   Zn11  S    
C71   O47   A    
C133  O58   S    
C95   C111  A    
C151  O94   S    
C81   C97   A    
C23   C39   A    
C146  O84   S    
C73   C80   T    
C153  O97   D    
C75   C78   T    
C90   C138  S    
O62   H23   S    
C159  O109  D    
C160  O111  D    
C108  I12   S    
O9    Zn5   S    
