data_mof_unit_41972.cif
_audit_creation_date              2013-03-05T15:50:31-0500
_audit_creation_method            fapswitch 2.2
_symmetry_space_group_name_H-M    P1
_symmetry_Int_Tables_number       1
_space_group_crystal_system       triclinic
_cell_length_a                    18.67972
_cell_length_b                    7.335434
_cell_length_c                    18.307498
_cell_angle_alpha                 90.11143
_cell_angle_beta                  108.346369
_cell_angle_gamma                 91.678912
_cell_volume                      2379.86924335

loop_
_atom_site_label
_atom_site_type_symbol
_atom_site_description
_atom_site_fract_x
_atom_site_fract_y
_atom_site_fract_z
_atom_type_partial_charge
O1    O     O_R   0.562310 0.505770 0.439670 -0.587730
O2    O     O_R   0.437690 0.005770 0.560330 -0.591387
O3    O     O_R   0.411650 0.169150 0.405330 -0.582531
O4    O     O_R   0.588350 0.669150 0.594670 -0.580502
C1    C     C_R   0.384852 0.344147 0.384300 0.890050
C2    C     C_R   0.614025 0.848890 0.615901 0.905903
O5    O     O_R   0.560140 0.175610 0.430010 -0.566678
O6    O     O_R   0.439860 0.675610 0.569990 -0.584105
O7    O     O_R   0.587240 0.012100 0.585200 -0.591323
O8    O     O_R   0.412760 0.512100 0.414800 -0.591592
C3    C     C_R   0.581621 0.345454 0.416598 0.912288
C4    C     C_R   0.418585 0.842618 0.583599 0.909164
O9    O     O_3   0.508720 0.341420 0.550890 -0.285192
O10   O     O_3   0.491280 0.841420 0.449110 -0.280388
V1    V     V_3+5 0.498380 0.063930 0.490560 1.193414
V2    V     V_3+5 0.501620 0.563930 0.509440 1.187142
C5    C     C_R   0.188035 0.054628 0.866182 0.479202
C6    C     C_R   0.806281 0.523363 0.121117 0.527602
C7    C     C_R   0.131100 0.919468 0.863979 -0.337751
C8    C     C_R   0.871960 0.418498 0.137916 -0.299389
C9    C     C_R   0.122900 0.770641 0.812809 -0.071918
C10   C     C_R   0.890969 0.310893 0.204170 -0.160118
C11   C     C_R   0.169027 0.756875 0.765242 0.185795
C12   C     C_R   0.844543 0.301993 0.251550 0.196313
C13   C     C_R   0.231127 0.879387 0.776195 -0.047800
C14   C     C_R   0.781844 0.415754 0.236988 -0.023222
C15   C     C_R   0.245252 0.016705 0.832975 -0.242135
C16   C     C_R   0.766706 0.540633 0.175777 -0.228671
C17   C     C_R   0.155539 0.619940 0.708320 -0.085672
C18   C     C_R   0.859132 0.178632 0.312674 -0.072938
C19   C     C_R   0.202841 0.605575 0.662548 -0.223663
C20   C     C_R   0.810386 0.161764 0.356935 -0.195446
C21   C     C_R   0.264374 0.728431 0.672544 0.200495
C22   C     C_R   0.746767 0.270160 0.341825 0.213223
C23   C     C_R   0.279075 0.865149 0.730244 0.067364
C24   C     C_R   0.733362 0.401244 0.282813 0.075136
C25   C     C_R   0.340804 0.989943 0.741080 -0.071522
C26   C     C_R   0.670053 0.512826 0.267961 -0.071904
C27   C     C_R   0.359942 0.112442 0.804256 0.151322
C28   C     C_R   0.659426 0.650229 0.212121 0.170247
C29   C     C_R   0.316174 0.111295 0.854405 0.461975
C30   C     C_R   0.711687 0.674664 0.171243 0.428119
C31   C     C_R   0.311154 0.718139 0.625678 -0.196001
C32   C     C_R   0.696147 0.249027 0.384384 -0.159768
C33   C     C_R   0.370080 0.848203 0.633580 -0.147823
C34   C     C_R   0.632814 0.358707 0.369345 -0.150319
C35   C     C_R   0.383613 0.984492 0.690288 -0.115971
C36   C     C_R   0.619936 0.488195 0.311005 -0.094762
H1    H     H_    0.078130 0.670042 0.807286 0.226956
H2    H     H_    0.939948 0.227165 0.216892 0.216258
H3    H     H_    0.108158 0.524360 0.698888 0.144404
H4    H     H_    0.907179 0.091263 0.324888 0.154680
H5    H     H_    0.190896 0.499170 0.618854 0.144695
H6    H     H_    0.821940 0.062033 0.402431 0.141968
H7    H     H_    0.300415 0.612707 0.581616 0.127235
H8    H     H_    0.706568 0.149497 0.429972 0.121276
H9    H     H_    0.429100 0.083422 0.695410 0.169098
H10   H     H_    0.569996 0.568470 0.299520 0.168215
C37   C     C_3   0.764820 0.722201 0.805653 0.558710
C38   C     C_3   0.210160 0.210803 0.205535 0.459736
H11   H     H_    0.757541 0.706956 0.862787 0.161699
H12   H     H_    0.215533 0.159959 0.150407 0.125296
C39   C     C_3   0.685545 0.728269 0.743428 -0.375661
C40   C     C_3   0.288658 0.189288 0.267055 -0.478865
H13   H     H_    0.641100 0.751892 0.770362 0.166070
H14   H     H_    0.331233 0.158642 0.238138 0.160185
H15   H     H_    0.666138 0.596974 0.712630 0.246022
H16   H     H_    0.289043 0.071088 0.304852 0.229884
H17   H     H_    0.759179 0.748627 0.629175 0.241317
H18   H     H_    0.229835 0.311784 0.374591 0.246558
C41   C     C_3   0.830589 0.917933 0.729024 0.294799
C42   C     C_3   0.176499 0.486956 0.272626 0.260213
C43   C     C_3   0.756370 0.050863 0.807834 0.273512
C44   C     C_3   0.255678 0.542362 0.189511 0.257000
C45   C     C_3   0.813073 0.899810 0.808168 -0.548574
C46   C     C_3   0.185917 0.418136 0.193959 -0.440728
H19   H     H_    0.795114 0.164373 0.811611 0.190551
H20   H     H_    0.241058 0.686955 0.191588 0.140444
C47   C     C_3   0.684899 0.875956 0.685130 -0.138529
C48   C     C_3   0.312810 0.365419 0.315336 -0.026939
C49   C     C_3   0.756884 0.877670 0.659563 -0.396584
C50   C     C_3   0.245503 0.426099 0.342530 -0.455430
C51   C     C_3   0.689046 0.056019 0.730261 -0.407219
C52   C     C_3   0.326903 0.514057 0.260576 -0.476489
H21   H     H_    0.634377 0.076700 0.740910 0.211910
H22   H     H_    0.376541 0.476270 0.243207 0.191549
H23   H     H_    0.697263 0.172737 0.694823 0.207107
H24   H     H_    0.342595 0.646923 0.291872 0.193056
H25   H     H_    0.848419 0.062063 0.724510 0.036697
H26   H     H_    0.180514 0.638085 0.274530 0.124829
H27   H     H_    0.752412 0.985641 0.615826 0.130119
H28   H     H_    0.264042 0.542048 0.384179 0.150401
O11   O     O_R   0.087220 0.271820 0.085230 -0.566145
O12   O     O_R   0.912780 0.771820 0.914770 -0.554963
O13   O     O_R   0.939860 0.595540 0.069990 -0.570817
O14   O     O_R   0.060140 0.095540 0.930010 -0.538520
C53   C     C_R   0.921406 0.425607 0.087184 1.001015
C54   C     C_R   0.080799 0.928042 0.914481 0.999576
O15   O     O_R   0.088340 0.601930 0.094680 -0.534458
O16   O     O_R   0.911660 0.101930 0.905320 -0.564936
O17   O     O_R   0.062310 0.765410 0.939660 -0.542319
O18   O     O_R   0.937690 0.265410 0.060340 -0.565881
C55   C     C_R   0.114725 0.433829 0.119687 1.041531
C56   C     C_R   0.884876 0.927874 0.881356 0.990663
O19   O     O_3   0.991270 0.429630 0.949130 -0.224083
O20   O     O_3   0.008730 0.929630 0.050870 -0.239183
V3    V     V_3+5 0.001620 0.707150 0.009440 1.401257
V4    V     V_3+5 0.998380 0.207150 0.990560 1.394379
S1    S     S_3+6 0.170657 0.285795 0.880077 0.027600
O21   O     O_2   0.175641 0.313692 0.962395 -0.154889
O22   O     O_2   0.225210 0.414690 0.859825 -0.252280
O23   O     O_3   0.082642 0.330535 0.824298 -0.526253
H29   H     H_    0.077109 0.270916 0.774157 0.314143
S2    S     S_3+6 0.763423 0.585537 0.024515 0.065868
O24   O     O_2   0.679080 0.588873 0.004780 -0.144543
O25   O     O_2   0.794929 0.768367 0.012776 -0.254246
O26   O     O_3   0.783704 0.438604 0.964861 -0.450624
H30   H     H_    0.826904 0.495100 0.952446 0.350801
N1    N     N_R   0.892546 0.809042 0.720906 0.270377
O27   O     O_R   0.908734 0.816826 0.656824 -0.399723
O28   O     O_R   0.939082 0.729090 0.779102 -0.377524
N2    N     N_R   0.102708 0.442964 0.281819 0.263522
O29   O     O_R   0.096975 0.353719 0.341227 -0.355579
O30   O     O_R   0.044328 0.529097 0.240073 -0.423868
S3    S     S_3+6 0.719791 0.062202 0.889470 0.075771
O31   O     O_2   0.784603 0.089813 0.962062 -0.213076
O32   O     O_2   0.668649 0.220671 0.881105 -0.121688
O33   O     O_3   0.668611 0.875713 0.897938 -0.456000
H31   H     H_    0.615090 0.908083 0.875374 0.387805
S4    S     S_3+6 0.280771 0.535272 0.103478 0.027975
O34   O     O_2   0.219023 0.612875 0.038258 -0.196956
O35   O     O_2   0.351434 0.649990 0.113831 -0.231795
O36   O     O_3   0.296897 0.319283 0.085611 -0.452854
H32   H     H_    0.347856 0.295720 0.121290 0.352949
N3    N     N_R   0.426186 0.229946 0.820896 0.262447
O37   O     O_R   0.492240 0.161342 0.832356 -0.330312
O38   O     O_R   0.421601 0.403120 0.833596 -0.306058
N4    N     N_R   0.597409 0.770905 0.198770 0.266119
O39   O     O_R   0.552302 0.793222 0.129186 -0.249696
O40   O     O_R   0.591382 0.874542 0.254209 -0.369600
S5    S     S_3+6 0.363005 0.163165 0.952858 0.114850
O41   O     O_2   0.325040 0.058874 0.001679 -0.214252
O42   O     O_2   0.443513 0.105305 0.973878 -0.190879
O43   O     O_3   0.362451 0.388858 0.969076 -0.370960
H33   H     H_    0.408336 0.416146 0.013225 0.398101
S6    S     S_3+6 0.723736 0.899481 0.139517 0.067018
O44   O     O_2   0.673667 0.925424 0.058357 -0.101995
O45   O     O_2   0.702939 0.036054 0.189890 -0.274830
O46   O     O_3   0.814625 0.938190 0.146030 -0.538110
H34   H     H_    0.813882 0.039472 0.110257 0.401260
S7    S     S_3+6 0.797965 0.513172 0.787801 -0.069185
O47   O     O_2   0.872048 0.461778 0.842325 -0.249699
O48   O     O_2   0.735360 0.404611 0.802429 -0.355624
O49   O     O_3   0.796720 0.479133 0.696642 -0.549658
H35   H     H_    0.808953 0.349834 0.693661 0.347793
S8    S     S_3+6 0.141668 0.055447 0.227176 -0.027138
O50   O     O_2   0.063423 0.127215 0.204194 -0.262321
O51   O     O_2   0.138907 0.885034 0.181675 -0.320309
O52   O     O_3   0.167191 0.003293 0.321189 -0.559929
H36   H     H_    0.127508 0.915793 0.325923 0.386976

loop_
_geom_bond_atom_site_label_1
_geom_bond_atom_site_label_2
_geom_bond_distance
_ccdc_geom_bond_type
O17   V3    1.996322 S    
C51   H23   1.111157 S    
C39   H13   1.108272 S    
C37   C45   1.554590 S    
C40   C48   1.537678 S    
O15   C55   1.367037 A    
O1    C3    1.345480 A    
C48   C52   1.554588 S    
O2    C4    1.346778 A    
O33   H31   0.990380 S    
C6    S2    1.763487 S    
C2    O7    1.363910 A    
C9    H1    1.079101 S    
S2    O24   1.502442 D    
O46   H34   0.988856 S    
N3    O37   1.301356 A    
C27   C29   1.408399 A    
C27   N3    1.437415 S    
O5    C3    1.344409 A    
C44   C46   1.591422 S    
C11   C17   1.405074 A    
S8    O50   1.499743 D    
C7    C9    1.410234 A    
C52   H22   1.112653 S    
S1    O22   1.500878 D    
O11   V4    2.030498 S    
O20   V3    1.781960 S    
O16   C56   1.376651 A    
C50   H28   1.112983 S    
C6    C8    1.417807 A    
C38   H12   1.110086 S    
S7    O49   1.679777 S    
C15   C29   1.417167 A    
C5    C7    1.423635 A    
C8    C53   1.501950 S    
C47   C51   1.543622 S    
O14   C54   1.354571 A    
S3    O33   1.681338 S    
S7    O47   1.488633 D    
C19   C21   1.404661 A    
O18   V4    2.009433 S    
C25   C35   1.405539 A    
C26   C36   1.408948 A    
C53   O18   1.351946 A    
C42   C46   1.588015 S    
C10   H2    1.080670 S    
C42   N2    1.467184 S    
C46   C55   1.581732 S    
O5    V1    1.996021 S    
O14   V4    2.021613 S    
O12   C56   1.339125 A    
O6    V2    2.021824 S    
C41   C45   1.587703 S    
C43   C45   1.553830 S    
O11   C55   1.353327 A    
C20   H6    1.083512 S    
O23   H29   0.990263 S    
C7    C54   1.513868 S    
C32   C34   1.405082 A    
S6    O45   1.499934 D    
C33   C35   1.398977 A    
O19   V4    1.791762 S    
C39   H15   1.107086 S    
O12   V3    2.054647 S    
O16   V4    1.996436 S    
C37   H11   1.101896 S    
C5    C15   1.419542 A    
C6    C16   1.426383 A    
C48   C50   1.566114 S    
C45   C56   1.577357 S    
S1    O23   1.682140 S    
C47   C49   1.556474 S    
C4    C33   1.477776 S    
C39   C47   1.519884 S    
C38   C46   1.595072 S    
C28   N4    1.438060 S    
S5    O42   1.504518 D    
C20   C22   1.403675 A    
O4    V2    1.996444 S    
S4    O35   1.504384 D    
C38   S8    1.824270 S    
C29   S5    1.773133 S    
C18   C20   1.399747 A    
C35   H9    1.082050 S    
S6    O46   1.679732 S    
C42   H26   1.108675 S    
C32   H8    1.084396 S    
C28   C30   1.412593 A    
O52   H36   0.990824 S    
C41   H25   1.110215 S    
O6    C4    1.345546 A    
C22   C32   1.407436 A    
O1    V2    2.009122 S    
C19   H5    1.083463 S    
C1    C48   1.540406 S    
O2    V1    1.996022 S    
C31   C33   1.407297 A    
O49   H35   0.987485 S    
N1    O28   1.297689 A    
O13   V3    1.995814 S    
C13   C23   1.414303 A    
O4    C2    1.401092 A    
C51   H21   1.112727 S    
C8    C10   1.403349 A    
C31   H7    1.084295 S    
C9    C11   1.410000 A    
O36   H32   0.990604 S    
C10   C12   1.406839 A    
S5    O43   1.682312 S    
S4    O36   1.672112 S    
N2    O30   1.300055 A    
C24   C26   1.413346 A    
C30   S6    1.780990 S    
C44   S4    1.780187 S    
C40   H16   1.109157 S    
O3    V1    2.035115 S    
S6    O44   1.501782 D    
C17   H3    1.082451 S    
C14   C24   1.417143 A    
N3    O38   1.301085 A    
C18   H4    1.083584 S    
C23   C25   1.414358 A    
C37   C39   1.560357 S    
S8    O52   1.683059 S    
C52   H24   1.113307 S    
C44   C52   1.559955 S    
O43   H33   0.990555 S    
O3    C1    1.401748 A    
C5    S1    1.768632 S    
S2    O25   1.491872 D    
N1    O27   1.301390 A    
O13   C53   1.347741 A    
C36   H10   1.081841 S    
N4    O40   1.301812 A    
C37   S7    1.738466 S    
C13   C15   1.404459 A    
C54   O17   1.353948 A    
O15   V3    2.035105 S    
C14   C16   1.412295 A    
C41   N1    1.470208 S    
C38   C40   1.555019 S    
S8    O51   1.491416 D    
S4    O34   1.501421 D    
O7    V1    2.032437 S    
C1    O8    1.370340 A    
C17   C19   1.401875 A    
O8    V2    2.012888 S    
S5    O41   1.502309 D    
C26   C28   1.410087 A    
C12   C14   1.414477 A    
C2    C47   1.525055 S    
S3    O31   1.498199 D    
C43   S3    1.831178 S    
C16   C30   1.426746 A    
C21   C23   1.412153 A    
C22   C24   1.415036 A    
S7    O48   1.488921 D    
H18   C50   1.108608 S    
C12   C18   1.404193 A    
S2    O26   1.666661 S    
H17   C49   1.105763 S    
N4    O39   1.301067 A    
C49   H27   1.113398 S    
C34   C36   1.398723 A    
C11   C13   1.408977 A    
C25   C27   1.410594 A    
C44   H20   1.106501 S    
O9    V2    1.792116 S    
S1    O21   1.493678 D    
S3    O32   1.503665 D    
C43   H19   1.074616 S    
O10   V1    1.782323 S    
C3    C34   1.479169 S    
N2    O29   1.301887 A    
O26   H30   0.985308 S    
C21   C31   1.407494 A    
C43   C51   1.574337 S    
C42   C50   1.579886 S    
C40   H14   1.112811 S    
C41   C49   1.572390 S    
