data_mof_unit_6903.cif
_audit_creation_date              2012-12-10T17:23:41-0500
_audit_creation_method            fapswitch 2.2
_symmetry_space_group_name_H-M    P1
_symmetry_Int_Tables_number       1
_space_group_crystal_system       triclinic
_cell_length_a                    9.650278
_cell_length_b                    10.80416
_cell_length_c                    17.424244
_cell_angle_alpha                 96.104646
_cell_angle_beta                  87.333432
_cell_angle_gamma                 90.325675
_cell_volume                      1804.44808296

loop_
_atom_site_label
_atom_site_type_symbol
_atom_type_description
_atom_site_fract_x
_atom_site_fract_y
_atom_site_fract_z
_atom_type_partial_charge
C1    C     C_R   0.500113 0.737204 0.495758 0.781945
C2    C     C_R   0.370674 0.539106 0.784045 0.113688
C3    C     C_R   0.412675 0.488790 0.144485 -0.171875
C4    C     C_R   0.401704 0.515068 0.224103 -0.057401
C5    C     C_R   0.651560 0.544342 0.226563 0.087049
C6    C     C_R   0.661285 0.519729 0.145720 0.036169
C7    C     C_R   0.541649 0.486060 0.105573 0.064214
C8    C     C_2   0.521999 0.565573 0.981056 0.195769
C9    C     C_2   0.543192 0.469034 0.021436 -0.238177
C10   C     C_R   0.523145 0.524830 0.267049 -0.162157
C11   C     C_R   0.255253 0.888729 0.448931 0.137834
C12   C     C_R   0.484516 0.498256 0.650044 0.811872
C13   C     C_R   0.125795 0.946873 0.466918 0.160680
C14   C     C_R   0.117394 0.054148 0.518639 -0.226509
C15   C     C_R   0.237658 0.113939 0.544343 -0.040590
C16   C     C_R   0.369362 0.064342 0.518037 -0.009857
C17   C     C_R   0.375369 0.939624 0.485249 0.033161
C18   C     C_R   0.499407 0.872467 0.493236 -0.162758
C19   C     C_R   0.619633 0.937188 0.515221 -0.156564
C20   C     C_R   0.620685 0.065709 0.527275 0.163782
C21   C     C_R   0.495651 0.132083 0.523243 -0.156497
C22   C     C_R   0.868165 0.360175 0.373847 -0.015423
C23   C     C_R   0.498625 0.265142 0.510537 0.829045
C24   C     C_R   0.944753 0.338962 0.304585 -0.303428
C25   C     C_R   0.085054 0.328397 0.305593 -0.042195
C26   C     C_R   0.150364 0.354175 0.375711 0.173696
C27   C     C_R   0.079202 0.425991 0.441028 0.114557
C28   C     C_R   0.928919 0.425987 0.441121 0.061598
C29   C     C_R   0.924373 0.578539 0.550778 0.209723
C30   C     C_R   0.072015 0.577642 0.550358 0.260470
C31   C     C_R   0.516708 0.511249 0.351162 0.780581
C32   C     C_R   0.487488 0.500178 0.735669 -0.154771
C33   C     C_R   0.613868 0.473869 0.770407 -0.077656
C34   C     C_R   0.626246 0.499136 0.850037 0.068573
C35   C     C_R   0.510435 0.541432 0.897024 0.035139
C36   C     C_R   0.382254 0.558316 0.864849 0.087700
Cu1   Cu    Cu3+1 0.359340 0.500010 0.500010 0.991166
Cu2   Cu    Cu3+1 0.640660 0.499990 0.499990 0.941354
H1    H     H_    0.714480 0.888098 0.523443 0.180202
H2    H     H_    0.016978 0.092361 0.537891 0.185523
H3    H     H_    0.894527 0.305255 0.251625 0.169292
H4    H     H_    0.549981 0.374708 0.992822 0.139211
H5    H     H_    0.319466 0.477673 0.111771 0.170785
N1    N     N_R   0.852190 0.498790 0.499250 -0.214128
N2    N     N_R   0.148060 0.498710 0.499220 -0.203389
O1    O     O_R   0.381190 0.680360 0.500010 -0.570077
O2    O     O_R   0.618760 0.680340 0.500000 -0.610233
O3    O     O_R   0.367440 0.500030 0.613600 -0.500488
O4    O     O_R   0.605010 0.500010 0.613590 -0.615415
O5    O     O_R   0.381240 0.319660 0.500000 -0.542703
O6    O     O_R   0.618810 0.319640 0.499990 -0.588350
O7    O     O_R   0.394990 0.499990 0.386410 -0.577756
O8    O     O_R   0.632560 0.499970 0.386400 -0.587109
C37   C     C_1   0.734495 0.420219 0.726408 0.354600
N3    N     N_1   0.831519 0.377976 0.691929 -0.282239
C38   C     C_1   0.793218 0.532829 0.104333 0.296449
N4    N     N_1   0.898800 0.543260 0.071335 -0.284979
N5    N     N_3   0.264114 0.790777 0.386557 -0.571457
H6    H     H_    0.216349 0.711930 0.405590 0.260314
H7    H     H_    0.366985 0.770413 0.368569 0.214823
N6    N     N_3   0.001167 0.896215 0.434656 -0.587532
H8    H     H_    0.012769 0.891897 0.374480 0.256663
H9    H     H_    0.988714 0.805499 0.449611 0.210611
C39   C     C_1   0.221983 0.211829 0.607333 0.280160
N7    N     N_1   0.208015 0.289141 0.658329 -0.258742
N8    N     N_3   0.747957 0.124538 0.549866 -0.596018
H10   H     H_    0.793399 0.166265 0.503578 0.247196
H11   H     H_    0.727655 0.190978 0.597052 0.241316
N9    N     N_3   0.854961 0.669635 0.605099 -0.601508
H12   H     H_    0.878353 0.757407 0.587851 0.187021
H13   H     H_    0.748685 0.662022 0.604976 0.288920
C40   C     C_1   0.749495 0.278791 0.369486 0.348410
N10   N     N_1   0.657779 0.209997 0.360047 -0.312849
C41   C     C_1   0.266488 0.553686 0.256140 0.283943
N11   N     N_1   0.157010 0.586577 0.279268 -0.283386
C42   C     C_1   0.157557 0.270405 0.236465 0.232466
N12   N     N_1   0.215434 0.224037 0.181245 -0.278616
N13   N     N_3   0.270727 0.281611 0.382671 -0.496874
H14   H     H_    0.241270 0.187947 0.380058 0.209502
H15   H     H_    0.342790 0.289967 0.336823 0.225270
N14   N     N_3   0.143561 0.666173 0.601210 -0.501807
H16   H     H_    0.127936 0.754493 0.583844 0.193430
H17   H     H_    0.097939 0.665990 0.656628 0.232407
N15   N     N_3   0.765170 0.607523 0.264318 -0.565296
H18   H     H_    0.727034 0.684666 0.300287 0.229289
H19   H     H_    0.814723 0.548506 0.297357 0.262430
N16   N     N_3   0.264365 0.595785 0.915155 -0.596091
H20   H     H_    0.186147 0.529078 0.906797 0.237521
H21   H     H_    0.228079 0.681175 0.901247 0.221186
N17   N     N_3   0.241435 0.562386 0.751185 -0.543268
H22   H     H_    0.165784 0.503727 0.772493 0.243751
H23   H     H_    0.213013 0.654643 0.768596 0.204356
N18   N     N_3   0.506671 0.690184 0.018953 -0.557539
H24   H     H_    0.502372 0.752823 0.977322 0.223671
H25   H     H_    0.410822 0.695425 0.049647 0.244934
N19   N     N_3   0.759472 0.485567 0.882058 -0.583132
H26   H     H_    0.754416 0.414613 0.918335 0.226870
H27   H     H_    0.785416 0.569154 0.914103 0.244556

loop_
_geom_bond_atom_site_label_1
_geom_bond_atom_site_label_2
_ccdc_geom_bond_type
C8    C9    D    
N8    H11   S    
N16   H20   S    
C16   C21   A    
C30   N2    A    
C35   C36   A    
C9    H4    S    
C31   O7    A    
C12   O3    A    
C12   O4    A    
Cu2   O4    S    
C3    H5    S    
C26   C27   A    
C26   N13   S    
C20   N8    S    
C34   N19   S    
C18   C19   A    
C3    C7    A    
C5    C6    A    
N13   H15   S    
C1    O1    A    
N5    H7    S    
C15   C16   A    
C38   N4    T    
C2    C32   A    
C34   C35   A    
N9    H13   S    
N17   H23   S    
N15   H18   S    
C19   C20   A    
C16   C17   A    
N19   H27   S    
C15   C39   S    
C11   N5    S    
C4    C41   S    
C27   N2    A    
N8    H10   S    
N18   H25   S    
C22   C28   A    
C13   C14   A    
C12   C32   S    
C24   H3    S    
N9    H12   S    
C10   C31   S    
C22   C40   S    
N14   H17   S    
N14   H16   S    
C29   N9    S    
C36   N16   S    
C41   N11   T    
C24   C25   A    
C6    C38   S    
C5    N15   S    
N13   H14   S    
C1    O2    A    
C23   O5    A    
Cu2   O6    S    
C25   C26   A    
C14   H2    S    
C28   N1    A    
C31   O8    A    
C8    C35   S    
Cu2   N1    S    
Cu1   Cu2   S    
C23   O6    A    
N19   H26   S    
N6    H9    S    
C17   C18   A    
C1    C18   S    
N18   H24   S    
C42   N12   T    
Cu1   O3    S    
Cu2   O2    S    
C19   H1    S    
N16   H21   S    
C29   N1    A    
C22   C24   A    
C4    C10   A    
C3    C4    A    
C2    C36   A    
C33   C37   S    
Cu1   O7    S    
C37   N3    T    
C11   C17   A    
C8    N18   S    
N15   H19   S    
C40   N10   T    
C6    C7    A    
C25   C42   S    
C32   C33   A    
C30   N14   S    
C21   C23   S    
N5    H6    S    
C5    C10   A    
C39   N7    T    
Cu1   O5    S    
C11   C13   A    
N17   H22   S    
Cu2   O8    S    
C33   C34   A    
N6    H8    S    
C29   C30   A    
C7    C9    S    
C13   N6    S    
C20   C21   A    
C2    N17   S    
C27   C28   A    
C14   C15   A    
Cu1   O1    S    
Cu1   N2    S    
