data_mof_unit_65963.cif
_audit_creation_date              2013-03-05T16:21:20-0500
_audit_creation_method            fapswitch 2.2
_symmetry_space_group_name_H-M    P1
_symmetry_Int_Tables_number       1
_space_group_crystal_system       triclinic
_cell_length_a                    15.77304
_cell_length_b                    14.970189
_cell_length_c                    23.432902
_cell_angle_alpha                 89.910254
_cell_angle_beta                  89.96032
_cell_angle_gamma                 89.955289
_cell_volume                      5533.09332672

loop_
_atom_site_label
_atom_site_type_symbol
_atom_site_description
_atom_site_fract_x
_atom_site_fract_y
_atom_site_fract_z
_atom_type_partial_charge
O1    O     O_R   0.377210 0.574260 0.500060 -0.610146
O2    O     O_R   0.377210 0.425740 0.500060 -0.574893
C1    C     C_R   0.337999 0.500035 0.499917 0.917289
O3    O     O_R   0.500050 0.574250 0.416220 -0.574653
O4    O     O_R   0.500050 0.425750 0.416220 -0.616165
C2    C     C_R   0.501262 0.500202 0.388975 0.920179
Zn1   Zn    Zn3+2 0.500090 0.599130 0.500080 1.146086
Zn2   Zn    Zn3+2 0.500090 0.400870 0.500080 1.112003
O5    O     O_R   0.622930 0.574200 0.500060 -0.577874
O6    O     O_R   0.622930 0.425800 0.500060 -0.609054
O7    O     O_R   0.500100 0.574210 0.583900 -0.575311
O8    O     O_R   0.500100 0.425790 0.583900 -0.590870
C3    C     C_R   0.662122 0.499985 0.500222 0.886229
C4    C     C_R   0.500277 0.499954 0.610848 0.995949
C5    C     C_R   0.570957 0.435938 0.879572 0.671577
N1    N     N_R   0.507482 0.480339 0.851869 -0.339305
C6    C     C_R   0.443885 0.523273 0.880475 0.622684
C7    C     C_R   0.442577 0.523270 0.940197 -0.171846
C8    C     C_R   0.508432 0.478834 0.969618 -0.078344
C9    C     C_R   0.572945 0.434479 0.939154 -0.110372
C10   C     C_R   0.378195 0.566844 0.971216 0.718819
C11   C     C_R   0.380028 0.566946 0.030517 -0.171984
C12   C     C_R   0.445798 0.524046 0.059994 -0.091113
C13   C     C_R   0.510165 0.479337 0.029635 -0.073537
C14   C     C_R   0.576444 0.435709 0.059148 -0.169287
C15   C     C_R   0.640009 0.390819 0.028103 0.722114
C16   C     C_R   0.637974 0.390361 0.968714 -0.171975
C17   C     C_R   0.449204 0.525352 0.119420 0.622978
N2    N     N_R   0.514723 0.484605 0.147267 -0.354802
C18   C     C_R   0.577162 0.439444 0.118932 0.640073
O9    O     O_2   0.631758 0.393541 0.849395 -0.466460
O10   O     O_2   0.382904 0.566430 0.850885 -0.404347
H1    H     H_    0.329918 0.601394 0.053233 0.238840
O11   O     O_2   0.387783 0.567154 0.149407 -0.479232
O12   O     O_2   0.639823 0.399533 0.148741 -0.390542
H2    H     H_    0.687933 0.355710 0.945978 0.237039
C19   C     C_R   0.491907 0.415106 0.239305 -0.086102
H3    H     H_    0.474983 0.353679 0.217781 0.195500
C20   C     C_R   0.486139 0.420029 0.298067 -0.150514
H4    H     H_    0.465767 0.361183 0.321276 0.220707
C21   C     C_R   0.505475 0.499787 0.326511 -0.206052
C22   C     C_R   0.531831 0.575704 0.294956 0.190633
C23   C     C_R   0.538408 0.570237 0.235226 0.276180
C24   C     C_R   0.517429 0.489471 0.207922 0.118259
C25   C     C_R   0.447199 0.434778 0.761054 -0.205697
H5    H     H_    0.402842 0.393032 0.784219 0.224868
C26   C     C_R   0.441378 0.442601 0.701967 0.267433
C27   C     C_R   0.499089 0.499032 0.672895 -0.354317
C28   C     C_R   0.560694 0.547842 0.703557 0.119851
C29   C     C_R   0.564498 0.539385 0.762736 0.700385
C30   C     C_R   0.507722 0.483343 0.791164 0.026049
C31   C     C_3   0.050199 0.597977 0.501747 0.248555
C32   C     C_3   0.050948 0.452765 0.555568 0.334955
C33   C     C_3   0.952408 0.442099 0.553634 0.645260
C34   C     C_3   0.951547 0.599940 0.510451 0.636910
H6    H     H_    0.083819 0.634678 0.536038 0.171627
H7    H     H_    0.071604 0.494758 0.592019 0.139522
C35   C     C_1   0.750653 0.500045 0.501027 0.025215
C36   C     C_3   0.082786 0.499779 0.500496 -0.485039
C37   C     C_3   0.917297 0.500920 0.501847 -0.584081
C38   C     C_3   0.949822 0.465112 0.440718 0.205991
C39   C     C_3   0.049018 0.449379 0.446788 1.127719
C40   C     C_1   0.825755 0.500412 0.501757 0.316149
C41   C     C_1   0.174261 0.499970 0.500309 0.308104
C42   C     C_1   0.249371 0.500071 0.500109 -0.015020
C43   C     C_3   0.408638 0.051625 0.517854 0.055031
C44   C     C_3   0.412941 0.946372 0.522167 0.061841
C45   C     C_3   0.565745 0.051443 0.539438 -0.404365
C46   C     C_3   0.573344 0.948316 0.533133 -0.399606
H8    H     H_    0.628238 0.083486 0.532136 0.250427
H9    H     H_    0.635266 0.932360 0.513228 0.268454
H10   H     H_    0.549926 0.067199 0.584416 0.282486
H11   H     H_    0.575903 0.916388 0.575878 0.270653
N3    N     N_1   0.498630 0.731150 0.498860 -0.045548
N4    N     N_1   0.498630 0.268850 0.498860 -0.061685
C47   C     C_3   0.497069 0.090046 0.498382 -0.226813
C48   C     C_3   0.498862 0.909899 0.497001 -0.254580
C49   C     C_3   0.507287 0.947850 0.434181 0.641145
C50   C     C_3   0.514122 0.054114 0.436040 0.628577
C51   C     C_1   0.498647 0.809195 0.498074 0.350074
C52   C     C_1   0.497959 0.190791 0.498605 0.327870
H12   H     H_    0.362610 0.068074 0.483393 0.193016
H13   H     H_    0.360723 0.920083 0.494950 0.193756
F1    F     F_    0.313381 0.609870 0.944728 -0.543382
N5    N     N_R   0.375202 0.395283 0.672511 0.255884
O13   O     O_R   0.332620 0.434216 0.631948 -0.356311
O14   O     O_R   0.349263 0.318229 0.691448 -0.247274
N6    N     N_R   0.621426 0.603508 0.675072 0.245577
O15   O     O_R   0.597045 0.678016 0.651608 -0.291385
O16   O     O_R   0.702024 0.589132 0.682483 -0.207195
F2    F     F_    0.622005 0.587394 0.792976 -0.553099
N7    N     N_R   0.926734 0.636360 0.566647 0.205256
O17   O     O_R   0.982365 0.658445 0.605140 -0.318807
O18   O     O_R   0.847412 0.655005 0.576355 -0.231250
N8    N     N_R   0.912416 0.465262 0.608914 0.234374
O19   O     O_R   0.957669 0.483615 0.653845 -0.253206
O20   O     O_R   0.832145 0.449047 0.616533 -0.277489
F3    F     F_    0.089628 0.370167 0.562976 -0.451778
F4    F     F_    0.072564 0.641421 0.451657 -0.477864
F5    F     F_    0.934196 0.353034 0.545315 -0.481170
F6    F     F_    0.916832 0.657551 0.470301 -0.479729
F7    F     F_    0.094136 0.475304 0.398778 -0.544749
F8    F     F_    0.067433 0.359360 0.453348 -0.505969
N9    N     N_R   0.928937 0.533710 0.396356 0.292201
O21   O     O_R   0.985724 0.571502 0.364102 -0.123058
O22   O     O_R   0.849951 0.554632 0.386933 -0.246718
N10   N     N_R   0.906848 0.380756 0.422753 0.244252
O23   O     O_R   0.861889 0.378925 0.376159 -0.246283
O24   O     O_R   0.918688 0.304967 0.448682 -0.140294
N11   N     N_R   0.397095 0.912713 0.580318 0.256815
O25   O     O_R   0.441109 0.940482 0.623756 -0.281256
O26   O     O_R   0.335490 0.856582 0.589121 -0.278417
N12   N     N_R   0.373448 0.092380 0.570017 0.270158
O27   O     O_R   0.417363 0.146106 0.602059 -0.307528
O28   O     O_R   0.294390 0.077964 0.582974 -0.209348
F9    F     F_    0.451173 0.088661 0.400685 -0.570139
F10   F     F_    0.433485 0.925164 0.405212 -0.564977
N13   N     N_R   0.596262 0.086983 0.414131 0.205002
O29   O     O_R   0.597838 0.144985 0.372702 -0.225768
O30   O     O_R   0.667996 0.057515 0.434142 -0.331407
N14   N     N_R   0.577700 0.908247 0.401170 0.246031
O31   O     O_R   0.582758 0.924579 0.346699 -0.152236
O32   O     O_R   0.631346 0.852146 0.423536 -0.316180
F11   F     F_    0.704645 0.347602 0.054653 -0.541665
N15   N     N_R   0.556252 0.656484 0.323198 0.245639
O33   O     O_R   0.498594 0.713617 0.338889 -0.245129
O34   O     O_R   0.635851 0.678786 0.325601 -0.226672
N16   N     N_R   0.565356 0.646330 0.202256 0.243860
O35   O     O_R   0.617239 0.636347 0.159541 -0.300070
O36   O     O_R   0.536971 0.725830 0.214022 -0.210783

loop_
_geom_bond_atom_site_label_1
_geom_bond_atom_site_label_2
_geom_bond_distance
_ccdc_geom_bond_type
C44   H13   1.114466 S    
C43   N12   1.474871 S    
C7    C10   1.408729 A    
C21   C22   1.417350 A    
C46   C48   1.559399 S    
C8    C9    1.409037 A    
C44   C48   1.575226 S    
C47   C50   1.580332 S    
N16   O35   1.301172 A    
N9    O22   1.303288 A    
C32   C36   1.552343 S    
C20   C21   1.402216 A    
C33   C37   1.597352 S    
C48   C49   1.582592 S    
Zn1   O7    1.998686 S    
C15   C16   1.392091 A    
N2    C18   1.366494 A    
C18   O12   1.349244 S    
C37   C40   1.443926 S    
C26   N5    1.439237 S    
C17   N2    1.365506 A    
C39   F8    1.386660 S    
O4    C2    1.283739 A    
O7    C4    1.277601 A    
C25   C30   1.393313 A    
C5    N1    1.365329 A    
C50   N13   1.477692 S    
C35   C40   1.184735 T    
C7    C8    1.412531 A    
C46   H9    1.108114 S    
C49   N14   1.477345 S    
O5    C3    1.271000 A    
N11   O25   1.301377 A    
C22   N15   1.432589 S    
N13   O29   1.301687 A    
N8    O19   1.302227 A    
C45   C46   1.555625 S    
C2    C21   1.465188 S    
C12   C13   1.408626 A    
N1    C30   1.423149 S    
C46   H11   1.109915 S    
C31   C34   1.569469 S    
Zn2   O8    1.999834 S    
C34   C37   1.591277 S    
N5    O14   1.301453 A    
C43   C44   1.580138 S    
C17   O11   1.350345 S    
N3    C51   1.168466 T    
C10   C11   1.389928 A    
N10   O24   1.299601 A    
C28   N6    1.433939 S    
C33   F5    1.378312 S    
C1    C42   1.397934 S    
C15   F11   1.357785 S    
O3    Zn1   2.000645 S    
N9    O21   1.300813 A    
C6    C7    1.399612 A    
Zn1   N3    1.976641 S    
N11   O26   1.301259 A    
C25   C26   1.392436 A    
C5    C9    1.396680 A    
C49   F10   1.390551 S    
C13   C14   1.412918 A    
O3    C2    1.280207 A    
C20   H4    1.083412 S    
C32   H7    1.110542 S    
C49   C50   1.595193 S    
N4    C52   1.168646 T    
C4    C27   1.454100 S    
C3    C35   1.396543 S    
C14   C15   1.409090 A    
N5    O13   1.301079 A    
Zn2   N4    1.976767 S    
C37   C38   1.613508 S    
O1    C1    1.272122 A    
C47   C52   1.508265 S    
C23   C24   1.408587 A    
C19   H3    1.083184 S    
C31   C36   1.557234 S    
C43   H12   1.113422 S    
C44   N11   1.473352 S    
C26   C27   1.415932 A    
C10   F1    1.357879 S    
C45   H10   1.108639 S    
C43   C47   1.576114 S    
C38   N9    1.496761 S    
N7    O18   1.301646 A    
C29   C30   1.395781 A    
N14   O31   1.301647 A    
C12   C17   1.393763 A    
C5    O9    1.349849 S    
C33   N8    1.481900 S    
Zn2   O6    1.973461 S    
C27   C28   1.413544 A    
C34   N7    1.478411 S    
N6    O16   1.300911 A    
N2    C24   1.423963 S    
N15   O33   1.301186 A    
C16   H2    1.083300 S    
C25   H5    1.083426 S    
C22   C23   1.405921 A    
N10   O23   1.302656 A    
N12   O27   1.301517 A    
C48   C51   1.507741 S    
C14   C18   1.402167 A    
Zn1   O5    1.972890 S    
C11   H1    1.083343 S    
C36   C39   1.562492 S    
O1    Zn1   1.973912 S    
O2    Zn2   1.973341 S    
O8    C4    1.278139 A    
O6    C3    1.271455 A    
N16   O36   1.301124 A    
C23   N16   1.439689 S    
O4    Zn2   1.999499 S    
N8    O20   1.301495 A    
C32   C33   1.563279 S    
C9    C16   1.402338 A    
C32   F3    1.389094 S    
C45   C47   1.559373 S    
C34   F6    1.387898 S    
C31   F4    1.386550 S    
C41   C42   1.184727 T    
C19   C24   1.392815 A    
O2    C1    1.272187 A    
C19   C20   1.381986 A    
N1    C6    1.366766 A    
N7    O17   1.302057 A    
C8    C13   1.406673 A    
C38   C39   1.588521 S    
C38   N10   1.494919 S    
N13   O30   1.301526 A    
N14   O32   1.301598 A    
C36   C41   1.442846 S    
C29   F2    1.358275 S    
N6    O15   1.300785 A    
C45   H8    1.109608 S    
C28   C29   1.393613 A    
N15   O34   1.300691 A    
C6    O10   1.349775 S    
C11   C12   1.401532 A    
C39   F7    1.385882 S    
C50   F9    1.392350 S    
C31   H6    1.109593 S    
N12   O28   1.301314 A    
