data_mof_unit_66620.cif
_audit_creation_date              2012-12-11T19:28:05-0500
_audit_creation_method            fapswitch 2.2
_symmetry_space_group_name_H-M    P1
_symmetry_Int_Tables_number       1
_space_group_crystal_system       triclinic
_cell_length_a                    8.40297
_cell_length_b                    15.054769
_cell_length_c                    16.60873
_cell_angle_alpha                 111.392077
_cell_angle_beta                  97.623194
_cell_angle_gamma                 80.860792
_cell_volume                      1925.10577097

loop_
_atom_site_label
_atom_site_type_symbol
_atom_type_description
_atom_site_fract_x
_atom_site_fract_y
_atom_site_fract_z
_atom_type_partial_charge
Ba1   Ba    Ba6+2 0.364200 0.465260 0.540900 1.598642
Ba2   Ba    Ba6+2 0.825630 0.534670 0.459090 1.613646
C1    C     C_3   0.235916 0.173862 0.774600 0.106640
C2    C     C_R   0.879360 0.510194 0.748289 -0.225723
C3    C     C_2   0.469207 0.384318 0.130941 -0.019045
C4    C     C_3   0.709275 0.325621 0.768498 0.397633
C5    C     C_2   0.456490 0.425840 0.218259 0.086977
C6    C     C_2   0.188255 0.514759 0.194544 -0.023481
C7    C     C_3   0.224310 0.492532 0.101804 -0.045859
C8    C     C_3   0.329087 0.396689 0.067220 -0.007663
C9    C     C_2   0.084734 0.503673 0.037424 -0.103439
C10   C     C_2   0.114012 0.510139 0.962117 -0.107389
C11   C     C_R   0.835514 0.575747 0.923629 -0.026238
C12   C     C_3   0.169497 0.275657 0.772729 0.363377
C13   C     C_R   0.983991 0.524659 0.896341 -0.054898
C14   C     C_R   0.714192 0.602097 0.867537 -0.005198
C15   C     C_R   0.735024 0.569408 0.777775 0.101929
C16   C     C_3   0.697685 0.327942 0.860532 -0.194579
C17   C     C_R   0.009890 0.495577 0.807947 -0.009509
C18   C     C_R   0.345758 0.821431 0.449653 -0.012657
C19   C     C_R   0.284392 0.917780 0.459864 -0.031828
C20   C     C_R   0.148295 0.108070 0.472425 -0.044353
C21   C     C_R   0.288928 0.063591 0.429324 -0.046032
C22   C     C_R   0.358816 0.972309 0.426240 -0.118812
C23   C     C_3   0.074418 0.740272 0.740166 0.319370
C24   C     C_R   0.076960 0.202327 0.477509 0.084501
C25   C     C_R   0.927277 0.236741 0.512714 -0.278886
C26   C     C_R   0.123637 0.809702 0.525326 0.038161
C27   C     C_R   0.059488 0.904899 0.534142 -0.034670
C28   C     C_3   0.689823 0.218738 0.325920 0.281712
C29   C     C_R   0.139532 0.959184 0.501243 0.021184
C30   C     C_R   0.915475 0.946840 0.573900 -0.061610
C31   C     C_R   0.847494 0.038026 0.578303 -0.108984
C32   C     C_R   0.924483 0.093614 0.546994 -0.032364
C33   C     C_R   0.072279 0.054368 0.508167 0.002458
C34   C     C_3   0.174084 0.776516 0.828392 -0.171484
C35   C     C_R   0.853764 0.185875 0.550536 -0.011892
C36   C     C_R   0.264879 0.769067 0.482869 -0.285271
C37   C     C_3   0.695038 0.109095 0.284971 -0.242246
C38   C     C_3   0.467139 0.792424 0.697506 0.323491
C39   C     C_3   0.412306 0.893910 0.759619 -0.367595
C40   C     C_3   0.215561 0.221420 0.255301 0.343211
C41   C     C_3   0.200176 0.134541 0.166747 0.136616
C42   C     C_3   0.741676 0.057284 0.349101 -0.507765
C43   C     C_3   0.554242 0.803680 0.628395 -0.290209
C44   C     C_3   0.163159 0.317882 0.244087 -0.277318
C45   C     C_3   0.430688 0.732695 0.237266 0.406641
C46   C     C_3   0.356840 0.124200 0.704629 -0.291591
C47   C     C_3   0.224589 0.039293 0.185003 -0.346369
C48   C     C_3   0.328737 0.129504 0.106053 -0.439315
C49   C     C_3   0.030790 0.141805 0.118072 -0.360413
C50   C     C_3   0.094132 0.112712 0.756047 -0.446564
C51   C     C_3   0.905390 0.737281 0.756273 -0.283799
C52   C     C_3   0.119447 0.880427 0.884822 -0.418916
C53   C     C_3   0.321599 0.181456 0.864693 -0.369430
C54   C     C_3   0.499293 0.649111 0.160645 -0.266807
C55   C     C_3   0.000551 0.782804 0.320089 -0.321186
C56   C     C_3   0.345266 0.812949 0.205466 -0.409300
C57   C     C_3   0.863777 0.765117 0.086671 -0.430345
C58   C     C_3   0.611726 0.316372 0.090132 -0.359555
C59   C     C_3   0.575521 0.674359 0.908142 -0.367902
C60   C     C_3   0.898920 0.460868 0.653892 -0.252706
C61   C     C_3   0.792654 0.240464 0.877591 -0.432209
C62   C     C_3   0.967551 0.730590 0.223479 0.378735
C63   C     C_3   0.879077 0.805338 0.184637 -0.195386
C64   C     C_2   0.309721 0.495089 0.250269 -0.262691
H1    H     H_    0.098368 0.267122 0.709285 -0.042354
H2    H     H_    0.279890 0.869589 0.257949 0.093565
H3    H     H_    0.945805 0.869274 0.205028 0.075286
H4    H     H_    0.961549 0.503572 0.050217 0.110254
H5    H     H_    0.347166 0.097274 0.396012 0.097932
H6    H     H_    0.851489 0.910256 0.602051 0.107024
H7    H     H_    0.863505 0.302481 0.507081 0.043479
H8    H     H_    0.314192 0.696266 0.477059 0.064805
H9    H     H_    0.612149 0.246643 0.381109 0.055056
H10   H     H_    0.780496 0.080660 0.233244 0.120194
H11   H     H_    0.872363 0.057801 0.368355 0.137643
H12   H     H_    0.573891 0.091430 0.254413 0.109655
H13   H     H_    0.668902 0.090715 0.405900 0.150577
H14   H     H_    0.717709 0.981387 0.317991 0.141249
H15   H     H_    0.361815 0.752618 0.667702 0.043465
H16   H     H_    0.571496 0.733764 0.574685 0.142018
H17   H     H_    0.484699 0.858647 0.603817 0.037068
H18   H     H_    0.671099 0.831044 0.657590 0.122398
H19   H     H_    0.402050 0.895346 0.825722 0.123903
H20   H     H_    0.196404 0.375838 0.305152 0.074590
H21   H     H_    0.219223 0.321582 0.189425 0.010853
H22   H     H_    0.030540 0.328635 0.230464 0.153631
H23   H     H_    0.294486 0.921582 0.733956 0.100371
H24   H     H_    0.473377 0.153250 0.726753 0.176228
H25   H     H_    0.310276 0.134847 0.642725 0.129637
H26   H     H_    0.382421 0.045944 0.691459 0.072927
H27   H     H_    0.339433 0.032237 0.224519 0.081326
H28   H     H_    0.124834 0.035322 0.220899 0.127135
H29   H     H_    0.226386 0.976271 0.123524 0.103349
H30   H     H_    0.306123 0.190834 0.082527 0.116161
H31   H     H_    0.451916 0.129186 0.139084 0.134570
H32   H     H_    0.326690 0.063093 0.047617 0.118287
H33   H     H_    0.933889 0.151999 0.161121 0.134476
H34   H     H_    0.502170 0.944158 0.768338 0.089746
H35   H     H_    0.012424 0.202742 0.093888 0.096036
H36   H     H_    0.016209 0.075337 0.060721 0.105183
H37   H     H_    0.066801 0.100970 0.814764 0.119888
H38   H     H_    0.981949 0.147088 0.731132 0.118385
H39   H     H_    0.120568 0.040402 0.707134 0.131156
H40   H     H_    0.840076 0.811081 0.779160 0.134568
H41   H     H_    0.848759 0.694527 0.693244 0.104877
H42   H     H_    0.904409 0.704857 0.806068 0.024509
H43   H     H_    0.129746 0.666176 0.705099 0.063494
H44   H     H_    0.109428 0.929603 0.847816 0.155854
H45   H     H_    0.342748 0.218292 0.283363 0.027277
H46   H     H_    0.000824 0.885504 0.909698 0.120544
H47   H     H_    0.208939 0.904330 0.941525 0.105824
H48   H     H_    0.302484 0.768191 0.817384 0.118470
H49   H     H_    0.426725 0.222295 0.879810 0.129611
H50   H     H_    0.237289 0.218492 0.916329 0.101161
H51   H     H_    0.365788 0.108824 0.867130 0.109076
H52   H     H_    0.402295 0.623257 0.108828 0.039979
H53   H     H_    0.589898 0.672420 0.132330 0.132126
H54   H     H_    0.557268 0.589151 0.182276 0.133679
H55   H     H_    0.434687 0.845608 0.184717 0.119797
H56   H     H_    0.089017 0.312185 0.826143 -0.024963
H57   H     H_    0.255801 0.784930 0.149694 0.081769
H58   H     H_    0.083290 0.700809 0.192902 -0.016045
H59   H     H_    0.079935 0.733693 0.347264 0.070227
H60   H     H_    0.062919 0.846240 0.331447 0.041601
H61   H     H_    0.886450 0.806655 0.352716 0.170000
H62   H     H_    0.755992 0.829427 0.207861 0.137905
H63   H     H_    0.627357 0.388530 0.761867 0.080923
H64   H     H_    0.793350 0.703958 0.067048 0.157470
H65   H     H_    0.798507 0.820397 0.060718 0.119281
H66   H     H_    0.984723 0.741080 0.060797 0.128753
H67   H     H_    0.167760 0.729206 0.865755 0.064363
H68   H     H_    0.704869 0.295890 0.135577 0.154801
H69   H     H_    0.569314 0.249098 0.042569 0.087443
H70   H     H_    0.670453 0.352120 0.056275 0.123723
H71   H     H_    0.568904 0.681231 0.976405 0.087751
H72   H     H_    0.590269 0.745739 0.906800 0.114341
H73   H     H_    0.458449 0.653465 0.874422 0.164924
H74   H     H_    0.290694 0.517526 0.318529 0.070664
H75   H     H_    0.794339 0.445073 0.610178 0.159681
H76   H     H_    0.965481 0.502970 0.629744 0.136070
H77   H     H_    0.949408 0.386281 0.645210 0.048482
H78   H     H_    0.743941 0.393924 0.908305 0.066703
H79   H     H_    0.239054 0.505001 0.949291 0.107707
H80   H     H_    0.468946 0.943924 0.393914 0.103384
H81   H     H_    0.733972 0.063883 0.607536 0.106374
H82   H     H_    0.834593 0.332714 0.760542 -0.091740
H83   H     H_    0.569152 0.332369 0.871330 0.141990
H84   H     H_    0.923239 0.248155 0.887592 0.124850
H85   H     H_    0.757517 0.234912 0.937071 0.113362
H86   H     H_    0.768297 0.172714 0.823940 0.157203
H87   H     H_    0.813734 0.238338 0.348091 0.042393
H88   H     H_    0.340029 0.706077 0.263280 -0.058665
O1    O     O_2   0.428380 0.595300 0.716110 -0.481676
O2    O     O_2   0.679083 0.812064 0.456994 -0.482972
O3    O     O_3   0.559854 0.768313 0.298319 -0.578608
O4    O     O_3   0.649320 0.571650 0.606870 -0.516974
O5    O     O_3   0.067580 0.379340 0.450790 -0.477113
O6    O     O_2   0.850900 0.734750 0.551740 -0.470029
O7    O     O_3   0.067874 0.802005 0.692910 -0.662802
O8    O     O_2   0.874271 0.477153 0.190406 -0.489369
O9    O     O_3   0.870360 0.656745 0.208422 -0.573465
O10   O     O_3   0.202060 0.415880 0.655570 -0.460766
O11   O     O_2   0.342461 0.507251 0.807795 -0.506612
O12   O     O_3   0.112091 0.212997 0.310664 -0.663345
O13   O     O_3   0.574576 0.746316 0.745720 -0.649136
O14   O     O_3   0.295213 0.331529 0.783387 -0.598028
O15   O     O_2   0.338790 0.265210 0.448200 -0.491210
O16   O     O_3   0.612600 0.359140 0.609510 -0.494503
O17   O     O_2   0.517128 0.188108 0.551071 -0.480178
O18   O     O_3   0.661855 0.239406 0.706845 -0.617775
O19   O     O_2   0.761310 0.404660 0.283830 -0.452990
O20   O     O_3   0.540390 0.428270 0.393120 -0.500978
O21   O     O_3   0.987650 0.584040 0.344420 -0.451524
O22   O     O_3   0.625183 0.254502 0.260329 -0.664952
O23   O     O_3   0.122130 0.620580 0.549200 -0.487484
O24   O     O_3   0.577110 0.640790 0.390470 -0.464376
P1    P     P_3+3 0.592580 0.619750 0.703570 0.939151
P2    P     P_3+3 0.156510 0.273300 0.422380 0.970631
P3    P     P_3+3 0.662141 0.241391 0.602077 0.936754
P4    P     P_3+3 0.597130 0.380170 0.296420 0.965948
P5    P     P_3+3 0.537140 0.761337 0.399232 0.960385
P6    P     P_3+3 0.212078 0.438712 0.766767 0.945813
P7    P     P_3+3 0.039331 0.741559 0.579444 0.915548
P8    P     P_3+3 0.982270 0.558994 0.232859 0.958474

loop_
_geom_bond_atom_site_label_1
_geom_bond_atom_site_label_2
_ccdc_geom_bond_type
C39   H23   S    
C57   H64   S    
C6    C64   D    
C40   C41   S    
C12   H56   S    
C32   C35   A    
C1    C46   S    
O13   P1    S    
C43   H16   S    
C60   H77   S    
O4    P1    S    
C34   H48   S    
C34   H67   S    
O20   P4    S    
C9    H4    S    
C30   H6    S    
C4    O18   S    
C49   H36   S    
O22   P4    S    
C20   C33   A    
C19   C29   A    
C57   H65   S    
C56   H57   S    
O9    P8    S    
Ba1   O4    S    
C23   C51   S    
C4    H82   S    
C32   C33   A    
C27   C30   A    
C62   O9    S    
Ba2   O19   S    
C55   H59   S    
C50   H37   S    
C16   C61   S    
C53   H51   S    
C53   H50   S    
C52   H47   S    
C2    C60   S    
Ba1   O16   S    
O23   P7    S    
C52   H44   S    
Ba1   Ba2   S    
Ba2   P4    S    
Ba1   O1    S    
C51   H41   S    
C38   O13   S    
O7    P7    S    
C31   H81   S    
C45   C56   S    
C2    C17   A    
Ba1   O23   S    
O18   P3    S    
C28   H87   S    
Ba1   O10   S    
C23   O7    S    
C6    C7    S    
O14   P6    S    
C46   H25   S    
C12   H1    S    
Ba2   O23   S    
C26   C36   A    
C47   H28   S    
C16   H83   S    
C7    C8    S    
O5    P2    S    
O15   P2    D    
O24   P5    S    
C5    P4    S    
C23   H43   S    
C15   P1    S    
C46   H24   S    
C54   H54   S    
C43   H17   S    
C1    C53   S    
O6    P7    D    
C59   H71   S    
C4    H63   S    
C51   H40   S    
C28   O22   S    
O2    P5    D    
O1    P1    D    
C44   H22   S    
C49   H33   S    
C38   C43   S    
C4    C16   S    
C57   H66   S    
C48   H32   S    
C63   H62   S    
C21   H5    S    
Ba1   O5    S    
C34   C52   S    
C55   H60   S    
C3    C5    D    
C41   C47   S    
C6    P8    S    
C62   H58   S    
C10   H79   S    
C13   C17   A    
C40   H45   S    
C37   H12   S    
C61   H84   S    
O10   P6    S    
Ba2   O21   S    
C18   C36   A    
C60   H76   S    
C10   C13   S    
C42   H14   S    
C21   C22   A    
C35   P3    S    
C18   C19   A    
C31   C32   A    
C24   C25   A    
C39   H34   S    
C52   H46   S    
C37   H10   S    
C47   H29   S    
C7    C9    S    
C58   H69   S    
C61   H85   S    
C1    C12   S    
C18   P5    S    
C2    C15   A    
C56   H2    S    
C38   C39   S    
O19   P4    D    
C11   C13   A    
O16   P3    S    
C40   C44   S    
C54   H53   S    
C29   C33   A    
C19   C22   A    
C43   H18   S    
O12   P2    S    
C14   C59   S    
Ba2   O5    S    
C60   H75   S    
C12   O14   S    
C26   C27   A    
C58   H68   S    
C55   C62   S    
O8    P8    D    
C44   H21   S    
C45   O3    S    
C58   H70   S    
C50   H38   S    
C56   H55   S    
C48   H31   S    
C3    C58   S    
C57   C63   S    
O11   P6    D    
C54   H52   S    
C38   H15   S    
O17   P3    D    
C42   H13   S    
C59   H73   S    
C17   P6    S    
C55   H61   S    
C1    C50   S    
C41   C48   S    
C37   C42   S    
C45   H88   S    
C24   P2    S    
C49   H35   S    
C39   H19   S    
C48   H30   S    
C30   C31   A    
C16   H78   S    
Ba1   O20   S    
C27   C29   A    
C22   H80   S    
C26   P7    S    
C62   C63   S    
O21   P8    S    
C28   H9    S    
Ba1   P1    S    
C51   H42   S    
C41   C49   S    
C42   H11   S    
C14   C15   A    
C53   H49   S    
C25   C35   A    
C63   H3    S    
Ba1   O15   S    
Ba1   P2    S    
C36   H8    S    
C28   C37   S    
C59   H72   S    
C61   H86   S    
C50   H39   S    
C23   C34   S    
C20   C24   A    
C3    C8    S    
C64   H74   S    
Ba2   O4    S    
Ba2   O6    S    
C46   H26   S    
C11   C14   A    
C20   C21   A    
Ba2   O24   S    
C47   H27   S    
C25   H7    S    
Ba2   O20   S    
C40   O12   S    
C9    C10   D    
O3    P5    S    
C45   C54   S    
C44   H20   S    
C5    C64   S    
