data_mof_unit_44232.cif
_audit_creation_date              2012-12-10T16:47:58-0500
_audit_creation_method            fapswitch 2.2
_symmetry_space_group_name_H-M    P1
_symmetry_Int_Tables_number       1
_space_group_crystal_system       triclinic
_cell_length_a                    7.77264
_cell_length_b                    8.580333
_cell_length_c                    10.625065
_cell_angle_alpha                 90.799419
_cell_angle_beta                  86.00645
_cell_angle_gamma                 93.571681
_cell_volume                      705.478651632

loop_
_atom_site_label
_atom_site_type_symbol
_atom_type_description
_atom_site_fract_x
_atom_site_fract_y
_atom_site_fract_z
_atom_type_partial_charge
C1    C     C_R   0.545701 0.794704 0.496435 0.967723
C2    C     C_2   0.569754 0.958148 0.494269 -0.381306
C3    C     C_3   0.308124 0.351700 0.097436 -0.396750
C4    C     C_3   0.253026 0.205875 0.174775 -0.874289
C5    C     C_2   0.430142 0.041853 0.504119 -0.381197
C6    C     C_R   0.503135 0.503283 0.737791 0.936874
C7    C     C_R   0.454273 0.205286 0.503065 0.958386
C8    C     C_R   0.494770 0.482586 0.263099 0.902111
C9    C     C_2   0.627892 0.429002 0.059453 -0.204646
C10   C     C_2   0.481445 0.425598 0.135243 0.018975
C11   C     C_2   0.625573 0.425536 0.924145 -0.180896
C12   C     C_2   0.510738 0.507532 0.870803 -0.358642
H1    H     H_    0.753590 0.458749 0.095084 0.164912
H2    H     H_    0.131831 0.150497 0.140454 0.246516
H3    H     H_    0.207562 0.438102 0.111034 0.204201
H4    H     H_    0.312389 0.312985 0.997414 0.234859
H5    H     H_    0.724813 0.365651 0.868893 0.180733
H6    H     H_    0.415905 0.572641 0.926099 0.152877
H7    H     H_    0.701670 0.009085 0.484994 0.180335
H8    H     H_    0.298213 0.990939 0.513220 0.181037
H9    H     H_    0.013121 0.382022 0.406326 0.188749
H10   H     H_    0.986755 0.618010 0.593658 0.192212
H11   H     H_    0.354843 0.120363 0.164606 0.261493
H12   H     H_    0.228443 0.235549 0.275933 0.264350
N1    N     N_2   0.950320 0.457950 0.466680 -0.175121
N2    N     N_2   0.049680 0.542050 0.533320 -0.174105
O1    O     O_R   0.389250 0.738570 0.508180 -0.610977
O2    O     O_R   0.678390 0.711630 0.486820 -0.627761
O3    O     O_R   0.355470 0.513470 0.691600 -0.618416
O4    O     O_R   0.644610 0.486520 0.670240 -0.619982
O5    O     O_R   0.321610 0.288370 0.513180 -0.638279
O6    O     O_R   0.610750 0.261430 0.491820 -0.612132
O7    O     O_R   0.355390 0.513480 0.329760 -0.620070
O8    O     O_R   0.644530 0.486530 0.308400 -0.631455
Zn1   Zn    Zn3+2 0.306940 0.517990 0.514260 0.934169
Zn2   Zn    Zn3+2 0.693060 0.482010 0.485740 0.935512

loop_
_geom_bond_atom_site_label_1
_geom_bond_atom_site_label_2
_ccdc_geom_bond_type
C1    O2    A    
C11   C12   D    
C5    C7    S    
C9    C10   D    
O3    Zn1   S    
O4    Zn2   S    
O1    Zn1   S    
N1    N2    D    
C5    H8    S    
C8    O8    A    
C4    H2    S    
C9    C11   S    
C3    C10   S    
O6    Zn2   S    
O7    Zn1   S    
O8    Zn2   S    
C8    O7    A    
C6    C12   S    
C4    H12   S    
O5    Zn1   S    
C2    C5    D    
C7    O5    A    
N1    Zn2   S    
C3    C4    S    
N2    Zn1   S    
C6    O3    A    
C3    H3    S    
O2    Zn2   S    
C8    C10   S    
C1    C2    S    
H10   N2    S    
C12   H6    S    
C1    O1    A    
C4    H11   S    
C9    H1    S    
C11   H5    S    
H9    N1    S    
C7    O6    A    
C6    O4    A    
C2    H7    S    
C3    H4    S    
