data_mof_unit_9920.cif
_audit_creation_date              2013-03-05T16:12:50-0500
_audit_creation_method            fapswitch 2.2
_symmetry_space_group_name_H-M    P1
_symmetry_Int_Tables_number       1
_space_group_crystal_system       triclinic
_cell_length_a                    10.804177
_cell_length_b                    10.075577
_cell_length_c                    27.076051
_cell_angle_alpha                 87.271268
_cell_angle_beta                  90.726656
_cell_angle_gamma                 92.937387
_cell_volume                      2940.08814469

loop_
_atom_site_label
_atom_site_type_symbol
_atom_site_description
_atom_site_fract_x
_atom_site_fract_y
_atom_site_fract_z
_atom_type_partial_charge
O1    O     O_R   0.316770 0.614620 0.500000 -0.603815
O2    O     O_R   0.683230 0.385380 0.500000 -0.602794
O3    O     O_R   0.683230 0.614620 0.500000 -0.527293
O4    O     O_R   0.316770 0.385380 0.500000 -0.533345
C1    C     C_R   0.260719 0.497489 0.499252 0.949814
C2    C     C_R   0.739495 0.502260 0.499989 0.952279
O5    O     O_R   0.500030 0.614650 0.428760 -0.550801
O6    O     O_R   0.499970 0.385350 0.571240 -0.544021
O7    O     O_R   0.499970 0.614650 0.571240 -0.564539
O8    O     O_R   0.500030 0.385350 0.428760 -0.563119
C3    C     C_R   0.501842 0.502974 0.406076 0.965296
C4    C     C_R   0.499611 0.497018 0.593974 0.962486
Zn1   Zn    Zn3+2 0.500000 0.653120 0.500000 1.154770
Zn2   Zn    Zn3+2 0.500000 0.346880 0.500000 1.156207
C5    C     C_R   0.631032 0.683800 0.179633 0.609031
C6    C     C_R   0.535740 0.369005 0.829382 0.616821
O9    O     O_2   0.607551 0.794709 0.203110 -0.437186
O10   O     O_2   0.551621 0.255207 0.806510 -0.444863
N1    N     N_R   0.655426 0.570832 0.207118 -0.332719
N2    N     N_R   0.485402 0.472526 0.803272 -0.330777
C7    C     C_R   0.691780 0.459447 0.185814 0.604289
C8    C     C_R   0.458067 0.586547 0.824917 0.604379
C9    C     C_R   0.706958 0.545087 0.296461 0.392700
C10   C     C_R   0.377778 0.440466 0.722618 0.371686
C11   C     C_R   0.663453 0.519591 0.344538 -0.239285
C12   C     C_R   0.386060 0.449667 0.670917 -0.281723
C13   C     C_R   0.448803 0.530049 0.315985 0.285573
C14   C     C_R   0.605597 0.518919 0.675999 0.349417
C15   C     C_R   0.492264 0.553789 0.267914 -0.221509
C16   C     C_R   0.596903 0.510994 0.727256 -0.193757
C17   C     C_R   0.619489 0.560757 0.257856 0.109417
C18   C     C_R   0.485425 0.472358 0.750587 0.109368
C19   C     C_R   0.654093 0.563758 0.104938 -0.082677
C20   C     C_R   0.546205 0.501115 0.902188 -0.079023
C21   C     C_R   0.626697 0.682418 0.127566 -0.169478
C22   C     C_R   0.571434 0.382048 0.879303 -0.167112
C23   C     C_R   0.592755 0.793083 0.097479 0.357651
C24   C     C_R   0.632748 0.282000 0.906775 0.347015
C25   C     C_R   0.693779 0.454656 0.134387 -0.047513
C26   C     C_R   0.486838 0.602626 0.874765 -0.042626
C27   C     C_R   0.536177 0.512706 0.354432 -0.146235
C28   C     C_R   0.498174 0.488799 0.647683 -0.169606
H1    H     H_    0.426839 0.563703 0.237470 0.206576
H2    H     H_    0.677882 0.534488 0.749833 0.206447
C29   C     C_R   0.556673 0.641043 0.974213 0.068642
C30   C     C_R   0.663891 0.431256 0.031237 0.061337
C31   C     C_R   0.637272 0.416059 0.980202 0.000791
C32   C     C_R   0.590953 0.659314 0.024259 -0.000798
C33   C     C_R   0.580434 0.519459 0.952342 0.090502
C34   C     C_R   0.637444 0.551912 0.053201 0.089959
C35   C     C_R   0.494039 0.738547 0.945762 -0.144057
C36   C     C_R   0.713576 0.328543 0.061675 -0.153753
C37   C     C_R   0.460512 0.719722 0.897027 -0.056917
C38   C     C_R   0.727443 0.340075 0.112211 -0.041398
O11   O     O_2   0.406260 0.685367 0.797730 -0.478327
O12   O     O_2   0.720344 0.351622 0.214411 -0.477992
C39   C     C_R   0.578130 0.781393 0.046729 -0.250382
C40   C     C_R   0.663156 0.299271 0.956228 -0.246162
H3    H     H_    0.304940 0.426473 0.648392 0.231411
H4    H     H_    0.729120 0.509121 0.374922 0.187965
H5    H     H_    0.413533 0.798110 0.876790 0.216922
H6    H     H_    0.761617 0.256617 0.134118 0.232374
H7    H     H_    0.466176 0.829911 0.960288 0.168744
H8    H     H_    0.739443 0.235293 0.048272 0.179758
H9    H     H_    0.554775 0.870620 0.025939 0.178238
H10   H     H_    0.710593 0.219039 0.974349 0.177450
C41   C     C_R   0.058841 0.390441 0.521922 0.181382
C42   C     C_R   0.941978 0.608289 0.476249 0.175696
C43   C     C_R   0.931533 0.393654 0.523137 0.246840
C44   C     C_R   0.069311 0.602477 0.473552 0.228674
C45   C     C_R   0.872687 0.503856 0.500850 -0.328997
C46   C     C_R   0.127874 0.494310 0.497131 -0.336757
C47   C     C_R   0.508667 0.064467 0.543101 0.329706
C48   C     C_R   0.491493 0.935552 0.456857 0.326906
C49   C     C_R   0.470172 0.073266 0.458175 0.285368
C50   C     C_R   0.530032 0.926925 0.541748 0.288266
N3    N     N_R   0.500000 0.857200 0.500000 -0.218936
N4    N     N_R   0.500000 0.142800 0.500000 -0.215811
N5    N     N_R   0.317415 0.524323 0.324744 0.255779
O13   O     O_R   0.243000 0.583304 0.293612 -0.252904
O14   O     O_R   0.269911 0.450924 0.361201 -0.315730
N6    N     N_R   0.723372 0.557223 0.653916 0.247659
O15   O     O_R   0.806852 0.626019 0.678308 -0.294864
O16   O     O_R   0.752752 0.513771 0.611472 -0.363980
S1    S     S_3+6 0.449248 0.112808 0.600111 0.152016
O17   O     O_2   0.343846 0.201440 0.590713 -0.232199
O18   O     O_2   0.399494 0.992411 0.629833 -0.212439
O19   O     O_3   0.561662 0.190013 0.633334 -0.462660
H11   H     H_    0.528845 0.190011 0.667339 0.390783
S2    S     S_3+6 0.553040 0.887937 0.400103 0.155266
O20   O     O_2   0.604872 0.008798 0.371180 -0.213052
O21   O     O_2   0.657241 0.797837 0.409703 -0.228934
O22   O     O_3   0.441647 0.812783 0.365835 -0.459895
H12   H     H_    0.474358 0.817412 0.331753 0.391662
S3    S     S_3+6 0.367302 0.132324 0.410619 0.175893
O23   O     O_2   0.438158 0.201389 0.368599 -0.208484
O24   O     O_2   0.294381 0.015291 0.390537 -0.178766
O25   O     O_3   0.264707 0.234111 0.431828 -0.472764
H13   H     H_    0.188750 0.219884 0.411492 0.412309
S4    S     S_3+6 0.634562 0.869231 0.588781 0.171861
O26   O     O_2   0.707539 0.986866 0.608401 -0.177295
O27   O     O_2   0.564877 0.800480 0.631117 -0.227469
O28   O     O_3   0.736998 0.768075 0.567185 -0.468954
H14   H     H_    0.814984 0.786579 0.585811 0.415040
N7    N     N_R   0.567104 0.917455 0.117560 0.253725
O29   O     O_R   0.638244 0.022202 0.106331 -0.391957
O30   O     O_R   0.459309 0.932199 0.136878 -0.288895
N8    N     N_R   0.670414 0.163697 0.885005 0.252169
O31   O     O_R   0.637731 0.047785 0.905331 -0.376681
O32   O     O_R   0.758699 0.172348 0.852586 -0.266067
N9    N     N_R   0.261192 0.399900 0.745587 0.249714
O33   O     O_R   0.159579 0.393738 0.719264 -0.263659
O34   O     O_R   0.255603 0.363225 0.792261 -0.324716
N10   N     N_R   0.838429 0.556093 0.287587 0.260178
O35   O     O_R   0.882752 0.623896 0.249102 -0.297994
O36   O     O_R   0.915618 0.506715 0.319975 -0.268275
N11   N     N_R   0.116578 0.284093 0.548632 0.255017
O37   O     O_R   0.112173 0.278807 0.596694 -0.264130
O38   O     O_R   0.136907 0.176370 0.526010 -0.242441
N12   N     N_R   0.884111 0.715685 0.450199 0.253663
O39   O     O_R   0.892975 0.726612 0.402267 -0.264699
O40   O     O_R   0.859801 0.820188 0.474064 -0.236358
N13   N     N_R   0.863176 0.281469 0.546023 0.265297
O41   O     O_R   0.843667 0.174035 0.521638 -0.289730
O42   O     O_R   0.843745 0.276486 0.593373 -0.206652
N14   N     N_R   0.138316 0.707589 0.446601 0.266467
O43   O     O_R   0.133685 0.830057 0.459421 -0.260051
O44   O     O_R   0.203341 0.681531 0.408507 -0.243854

loop_
_geom_bond_atom_site_label_1
_geom_bond_atom_site_label_2
_geom_bond_distance
_ccdc_geom_bond_type
O22   H12   0.990519 S    
C13   C15   1.395036 A    
N9    O33   1.301726 A    
O3    C2    1.312154 A    
N1    C17   1.429875 S    
N10   O35   1.301227 A    
S3    O25   1.673006 S    
C49   S3    1.790490 S    
N13   O41   1.301229 A    
C31   C33   1.417913 A    
S1    O17   1.494757 D    
C5    N1    1.365267 A    
N7    O30   1.301009 A    
C19   C25   1.408614 A    
O1    C1    1.299473 A    
N1    C7    1.363468 A    
C10   C12   1.402205 A    
C1    C46   1.434480 S    
C13   N5    1.439967 S    
N11   O38   1.301014 A    
C29   C32   1.418179 A    
C25   C38   1.392913 A    
C43   N13   1.437513 S    
C30   C36   1.415227 A    
Zn2   N4    2.056224 S    
N8    O31   1.301138 A    
C41   C46   1.402829 A    
C14   C28   1.410810 A    
C43   C45   1.414236 A    
O7    Zn1   1.949280 S    
C4    C28   1.452882 S    
C24   C40   1.391497 A    
C37   H5    1.083728 S    
C40   H10   1.074820 S    
S3    O23   1.502287 D    
C36   C38   1.384349 A    
C48   N3    1.383159 A    
O6    Zn2   1.985470 S    
C47   N4    1.382276 A    
C11   H4    1.084387 S    
C12   H3    1.083400 S    
O3    Zn1   2.036710 S    
C6    N2    1.364433 A    
C44   N14   1.438485 S    
C32   C34   1.415056 A    
C15   H1    1.083388 S    
C24   N8    1.434064 S    
C16   H2    1.083596 S    
O2    C2    1.297289 A    
C10   N9    1.443371 S    
C5    C21   1.410639 A    
O7    C4    1.309115 A    
N12   O40   1.301002 A    
S1    O18   1.503105 D    
C2    C45   1.438199 S    
Zn1   N3    2.056224 S    
C48   C49   1.420324 A    
C14   N6    1.439656 S    
C32   C39   1.411782 A    
C35   H7    1.076382 S    
C50   N3    1.385466 A    
C36   H8    1.074475 S    
C11   C27   1.401888 A    
N5    O14   1.299676 A    
C38   H6    1.083517 S    
C19   C34   1.419952 A    
C42   N12   1.429954 S    
S4    O28   1.671625 S    
C35   C37   1.383131 A    
C9    C17   1.408959 A    
O5    C3    1.308453 A    
C10   C18   1.411353 A    
C23   N7    1.430742 S    
C13   C27   1.407133 A    
S2    O21   1.494643 D    
C7    C25   1.396050 A    
C29   C33   1.422125 A    
O6    C4    1.308152 A    
C8    C26   1.396261 A    
S4    O27   1.501168 D    
N9    O34   1.300958 A    
C41   N11   1.429540 S    
C47   S1    1.777871 S    
C6    O10   1.348361 S    
N2    C8    1.361533 A    
N6    O15   1.301732 A    
N6    O16   1.297892 A    
O8    Zn2   1.949285 S    
C47   C50   1.418773 A    
C20   C26   1.411257 A    
O1    Zn1   1.997694 S    
N12   O39   1.301546 A    
C12   C28   1.401854 A    
S2    O22   1.681630 S    
N2    C18   1.426595 S    
S1    O19   1.682701 S    
C5    O9    1.348331 S    
C30   C31   1.421674 A    
C20   C33   1.420984 A    
N14   O44   1.299764 A    
C21   C23   1.410395 A    
C39   H9    1.077147 S    
O4    C1    1.307930 A    
C7    O12   1.350268 S    
N10   O36   1.301720 A    
S3    O24   1.503929 D    
C42   C45   1.405878 A    
C8    O11   1.350334 S    
C50   S4    1.787568 S    
N7    O29   1.299715 A    
C30   C34   1.421952 A    
C48   S2    1.778341 S    
C22   C24   1.411668 A    
C15   C17   1.402247 A    
N11   O37   1.301238 A    
C6    C22   1.411203 A    
C9    N10   1.441395 S    
C16   C18   1.396085 A    
S2    O20   1.503403 D    
N14   O43   1.301208 A    
C14   C16   1.390423 A    
S4    O26   1.504065 D    
C19   C21   1.415273 A    
N8    O32   1.301285 A    
C3    C27   1.448749 S    
C20   C22   1.416338 A    
C9    C11   1.397406 A    
O4    Zn2   2.036710 S    
O2    Zn2   1.997694 S    
C49   N4    1.385742 A    
N13   O42   1.299934 A    
O8    C3    1.307959 A    
C26   C37   1.393784 A    
N5    O13   1.301608 A    
O5    Zn1   1.985476 S    
O19   H11   0.990827 S    
C42   C44   1.382965 A    
O25   H13   0.990554 S    
O28   H14   0.990512 S    
C29   C35   1.413992 A    
C44   C46   1.410629 A    
C41   C43   1.378341 A    
C23   C39   1.391056 A    
C31   C40   1.412535 A    
