data_mof_unit_35124.cif
_audit_creation_date              2012-12-11T15:08:37-0500
_audit_creation_method            fapswitch 2.2
_symmetry_space_group_name_H-M    P1
_symmetry_Int_Tables_number       1
_space_group_crystal_system       triclinic
_cell_length_a                    21.697981
_cell_length_b                    21.681918
_cell_length_c                    22.906135
_cell_angle_alpha                 90.154537
_cell_angle_beta                  90.422324
_cell_angle_gamma                 90.143084
_cell_volume                      10775.9132023

loop_
_atom_site_label
_atom_site_type_symbol
_atom_type_description
_atom_site_fract_x
_atom_site_fract_y
_atom_site_fract_z
_atom_type_partial_charge
C1    C     C_R   0.920882 0.153429 0.090362 -0.120743
C2    C     C_R   0.069342 0.140910 0.107169 -0.039240
C3    C     C_R   0.292561 0.688637 0.115906 -0.067341
C4    C     C_R   0.281893 0.320914 0.878653 -0.165392
C5    C     C_R   0.693893 0.776780 0.176588 -0.099458
C6    C     C_R   0.297635 0.757892 0.840822 -0.069759
C7    C     C_R   0.760227 0.337110 0.138377 -0.060730
C8    C     C_R   0.175766 0.214569 0.386891 -0.124520
C9    C     C_R   0.817992 0.653659 0.722904 -0.101803
C10   C     C_R   0.182328 0.688981 0.307906 -0.060259
C11   C     C_R   0.792504 0.188596 0.615906 -0.067259
C12   C     C_R   0.781883 0.820904 0.378684 -0.165617
C13   C     C_R   0.139630 0.933893 0.892928 -0.112186
C14   C     C_R   0.193767 0.276798 0.676604 -0.099101
C15   C     C_R   0.797585 0.257758 0.340733 -0.069913
C16   C     C_R   0.260242 0.837009 0.638386 -0.060830
C17   C     C_R   0.863458 0.138449 0.110414 0.073555
C18   C     C_R   0.116191 0.884008 0.862622 0.117583
C19   C     C_R   0.118604 0.115155 0.137649 0.081221
C20   C     C_R   0.858900 0.855895 0.898274 0.076220
C21   C     C_R   0.141107 0.857924 0.102596 0.063448
C22   C     C_R   0.883293 0.113757 0.861452 0.105520
C23   C     C_R   0.883655 0.884932 0.137583 0.115695
C24   C     C_R   0.846534 0.081159 0.089651 -0.078171
C25   C     C_R   0.139896 0.141777 0.896702 0.148464
C26   C     C_R   0.363562 0.638370 0.610594 0.074029
C27   C     C_R   0.616212 0.383979 0.362646 0.117408
C28   C     C_R   0.618719 0.615217 0.637568 0.081074
C29   C     C_R   0.358896 0.355866 0.398289 0.076661
C30   C     C_R   0.641104 0.357929 0.602606 0.063501
C31   C     C_R   0.383281 0.613770 0.361464 0.105425
C32   C     C_R   0.383577 0.384860 0.637519 0.115394
C33   C     C_R   0.639881 0.641772 0.396676 0.148576
C34   C     C_R   0.849637 0.776466 0.825411 0.130772
C35   C     C_R   0.081008 0.155098 0.913511 -0.106314
C36   C     C_R   0.125817 0.140426 0.243375 0.153937
C37   C     C_R   0.861365 0.135411 0.758148 0.170107
C38   C     C_R   0.155386 0.802324 0.191260 0.161617
C39   C     C_R   0.168386 0.181417 0.804608 0.108026
C40   C     C_R   0.852294 0.871323 0.238749 0.176040
C41   C     C_R   0.159550 0.871117 0.766164 0.179521
C42   C     C_R   0.834376 0.170773 0.206454 0.181707
C43   C     C_R   0.349560 0.276048 0.325762 0.130448
C44   C     C_R   0.626185 0.640337 0.743291 0.154565
C45   C     C_R   0.361386 0.635443 0.258159 0.170048
C46   C     C_R   0.932861 0.859935 0.107448 -0.099506
C47   C     C_R   0.655406 0.302360 0.691283 0.161638
C48   C     C_R   0.668434 0.681398 0.304587 0.107974
C49   C     C_R   0.352249 0.371274 0.738687 0.175801
C50   C     C_R   0.659537 0.371114 0.266179 0.179506
C51   C     C_R   0.334539 0.670814 0.706624 0.182362
C52   C     C_R   0.821302 0.808744 0.870884 -0.029981
C53   C     C_R   0.151972 0.140109 0.187049 -0.023624
C54   C     C_R   0.846408 0.142887 0.817377 -0.096713
C55   C     C_R   0.177809 0.815878 0.135937 -0.085242
C56   C     C_R   0.177194 0.183739 0.864730 -0.019315
C57   C     C_R   0.860858 0.064131 0.892009 -0.117983
C58   C     C_R   0.846899 0.854026 0.179917 -0.069808
C59   C     C_R   0.154728 0.850434 0.823788 -0.094418
C60   C     C_R   0.828413 0.178874 0.146283 -0.080288
C61   C     C_R   0.321244 0.308633 0.371057 -0.029824
C62   C     C_R   0.652192 0.640162 0.686904 -0.023611
C63   C     C_R   0.346402 0.642899 0.317385 -0.096595
C64   C     C_R   0.677809 0.315886 0.635946 -0.085247
C65   C     C_R   0.677183 0.683743 0.364717 -0.019374
C66   C     C_R   0.346821 0.353970 0.679860 -0.069616
C67   C     C_R   0.654732 0.350411 0.323796 -0.094170
C68   C     C_R   0.155645 0.917047 0.085774 -0.105692
C69   C     C_R   0.328523 0.678822 0.646445 -0.080868
C70   C     C_R   0.763756 0.789993 0.893576 -0.142250
C71   C     C_R   0.214507 0.153360 0.178215 -0.217202
C72   C     C_R   0.789805 0.167257 0.835491 -0.128544
C73   C     C_R   0.225628 0.782113 0.110018 -0.137616
C74   C     C_R   0.205542 0.235068 0.892166 -0.127498
C75   C     C_R   0.798633 0.817129 0.158603 -0.138017
C76   C     C_R   0.196812 0.809009 0.848915 -0.122686
C77   C     C_R   0.801962 0.231783 0.121389 -0.148267
C78   C     C_R   0.263558 0.290200 0.393670 -0.141626
C79   C     C_R   0.420950 0.653378 0.590469 -0.120491
C80   C     C_R   0.714695 0.653473 0.677919 -0.217233
C81   C     C_R   0.289785 0.667246 0.335485 -0.128671
C82   C     C_R   0.725605 0.282097 0.610019 -0.137615
C83   C     C_R   0.705490 0.735094 0.392157 -0.127542
C84   C     C_R   0.298517 0.317111 0.658563 -0.137968
C85   C     C_R   0.696808 0.308960 0.348895 -0.122761
C86   C     C_R   0.302010 0.731676 0.621502 -0.148147
C87   C     C_2   0.661975 0.716874 0.950451 0.673906
C88   C     C_2   0.345744 0.115883 0.176057 0.767723
C89   C     C_2   0.653536 0.154464 0.857051 0.586690
C90   C     C_R   0.566460 0.359829 0.392502 -0.109711
C91   C     C_2   0.292555 0.676530 0.051860 0.569690
C92   C     C_2   0.302125 0.321061 0.940620 0.656241
C93   C     C_2   0.672018 0.788655 0.116074 0.758660
C94   C     C_2   0.318620 0.771596 0.901610 0.606273
C95   C     C_2   0.785840 0.364559 0.084093 0.577088
C96   C     C_2   0.161009 0.217911 0.450333 0.673809
C97   C     C_2   0.846133 0.616657 0.675320 0.767559
C98   C     C_2   0.153515 0.654393 0.357000 0.586912
C99   C     C_2   0.792465 0.176469 0.551863 0.569675
C100  C     C_2   0.802082 0.821033 0.440662 0.656331
C101  C     C_R   0.639819 0.564767 0.607464 -0.123581
C102  C     C_2   0.171859 0.288643 0.616095 0.758550
C103  C     C_2   0.818603 0.271400 0.401523 0.607616
C104  C     C_2   0.285823 0.864394 0.584058 0.577229
C105  C     C_2   0.734243 0.828969 0.938830 0.516589
C106  C     C_2   0.237731 0.169419 0.118850 0.559791
C107  C     C_2   0.781598 0.188208 0.897291 0.618937
C108  C     C_2   0.255564 0.807802 0.057114 0.629938
C109  C     C_2   0.194070 0.248232 0.955009 0.612378
C110  C     C_2   0.803306 0.789107 0.099091 0.478085
C111  C     C_2   0.183250 0.780071 0.906527 0.584443
C112  C     C_R   0.066446 0.859848 0.892486 -0.109798
C113  C     C_R   0.344432 0.415843 0.414247 -0.119453
C114  C     C_2   0.787731 0.231407 0.057693 0.648672
C115  C     C_2   0.234108 0.329437 0.438759 0.515421
C116  C     C_2   0.737705 0.669566 0.618490 0.560704
C117  C     C_2   0.281553 0.688187 0.397287 0.619103
C118  C     C_2   0.755530 0.307761 0.557098 0.629963
C119  C     C_2   0.693909 0.748334 0.454970 0.612455
C120  C     C_2   0.303148 0.289096 0.599046 0.478009
C121  C     C_2   0.683250 0.280009 0.406502 0.584327
C122  C     C_2   0.287730 0.731203 0.557813 0.648572
C123  C     C_2   0.079186 0.155055 0.367865 0.705683
C124  C     C_R   0.581854 0.344610 0.585518 -0.093196
C125  C     C_2   0.919693 0.667411 0.778564 0.643125
C126  C     C_2   0.080241 0.737078 0.279398 0.570158
C127  C     C_2   0.867181 0.101323 0.629956 0.587696
C128  C     C_2   0.837885 0.920890 0.361268 0.571105
C129  C     C_2   0.090314 0.230778 0.707781 0.657770
C130  C     C_2   0.888684 0.187949 0.325193 0.627710
C131  C     C_2   0.203609 0.936029 0.658814 0.571761
C132  C     C_2   0.580961 0.652106 0.868562 0.703330
C133  C     C_2   0.419231 0.166492 0.279422 0.643443
C134  C     C_2   0.580274 0.237176 0.779470 0.570134
C135  C     C_R   0.432120 0.639904 0.392323 -0.111546
C136  C     C_2   0.367265 0.601389 0.129963 0.587872
C137  C     C_2   0.337874 0.420906 0.861188 0.571380
C138  C     C_2   0.590438 0.730708 0.207688 0.657857
C139  C     C_2   0.388824 0.688203 0.825378 0.626762
C140  C     C_2   0.703589 0.436110 0.158883 0.571749
C141  C     C_R   0.360196 0.434109 0.606963 -0.125215
C142  C     C_R   0.655054 0.582936 0.414003 -0.039002
C143  C     C_R   0.417950 0.343770 0.416339 -0.094298
C144  C     C_R   0.569438 0.640978 0.607106 -0.038551
C145  C     C_R   0.639648 0.433874 0.392942 -0.112240
C146  C     C_R   0.346587 0.581116 0.589762 -0.078531
C147  C     C_R   0.580995 0.655092 0.413492 -0.105789
C148  C     C_R   0.139768 0.064743 0.107509 -0.123129
C149  C     C_R   0.432811 0.359886 0.607408 -0.099394
C150  C     C_R   0.360850 0.564139 0.392015 -0.118045
C151  C     C_R   0.655644 0.417049 0.585778 -0.105736
C152  C     C_R   0.733067 0.738776 0.867203 0.014667
C153  C     C_R   0.252667 0.158932 0.226843 0.017265
C154  C     C_R   0.744741 0.178604 0.793384 0.111449
C155  C     C_R   0.249469 0.730487 0.140251 0.109613
C156  C     C_R   0.238799 0.276749 0.856599 -0.005619
C157  C     C_R   0.751030 0.801538 0.196517 0.002169
C158  C     C_R   0.247446 0.790505 0.816106 0.107974
C159  C     C_R   0.844427 0.915853 0.914250 -0.119145
C160  C     C_R   0.781796 0.279185 0.158718 0.106666
C161  C     C_R   0.232684 0.239064 0.367343 0.014433
C162  C     C_R   0.752996 0.659148 0.726440 0.017031
C163  C     C_R   0.244732 0.678584 0.293366 0.111478
C164  C     C_R   0.749439 0.230471 0.640256 0.109568
C165  C     C_R   0.738797 0.776747 0.356605 -0.005517
C166  C     C_R   0.250924 0.301544 0.696500 0.002018
C167  C     C_R   0.747416 0.290437 0.316057 0.107727
C168  C     C_R   0.281841 0.779117 0.658784 0.106719
C169  C     C_R   0.138946 0.178857 0.347583 -0.150849
C170  C     C_R   0.081858 0.844606 0.085508 -0.093268
C171  C     C_R   0.853807 0.683038 0.766260 -0.091240
C172  C     C_R   0.147362 0.727081 0.270700 -0.147850
C173  C     C_R   0.828394 0.151406 0.654008 -0.156818
C174  C     C_R   0.811181 0.861781 0.339591 -0.118289
C175  C     C_R   0.157545 0.243886 0.716755 -0.109349
C176  C     C_R   0.832085 0.219238 0.303854 -0.177410
C177  C     C_R   0.221519 0.872252 0.675065 -0.152593
C178  C     C_R   0.639780 0.677742 0.847751 -0.150676
C179  C     C_R   0.353459 0.182404 0.266907 -0.091346
C180  C     C_R   0.647385 0.227142 0.770745 -0.147902
C181  C     C_R   0.932128 0.139894 0.892316 -0.111585
C182  C     C_R   0.328449 0.651451 0.154012 -0.156948
C183  C     C_R   0.311166 0.361786 0.839540 -0.118445
C184  C     C_R   0.657656 0.743848 0.216711 -0.109451
C185  C     C_R   0.332188 0.719379 0.803983 -0.177930
C186  C     C_R   0.721502 0.372319 0.175083 -0.152590
C187  C     C_R   0.822844 0.722620 0.804857 -0.072401
C188  C     C_R   0.161745 0.164671 0.290710 -0.035704
C189  C     C_R   0.818722 0.155889 0.715230 -0.029754
C190  C     C_R   0.175818 0.749552 0.219618 -0.039625
C191  C     C_R   0.183286 0.233009 0.772239 -0.069395
C192  C     C_R   0.860249 0.934157 0.107005 -0.125148
C193  C     C_R   0.808152 0.849374 0.278778 -0.045954
C194  C     C_R   0.208934 0.850044 0.731980 -0.043973
C195  C     C_R   0.817654 0.218951 0.243497 -0.034489
C196  C     C_R   0.322574 0.222248 0.305318 -0.072286
C197  C     C_R   0.662302 0.664238 0.790641 -0.036884
C198  C     C_R   0.318751 0.655914 0.215232 -0.029699
C199  C     C_R   0.675829 0.249589 0.719646 -0.039555
C200  C     C_R   0.683359 0.732982 0.272214 -0.069256
C201  C     C_R   0.308108 0.349363 0.778732 -0.045966
C202  C     C_R   0.708912 0.350059 0.231979 -0.044023
C203  C     C_R   0.155060 0.082938 0.914016 -0.038699
C204  C     C_R   0.317773 0.719018 0.743621 -0.034357
C205  C     C_R   0.760934 0.710561 0.818771 0.059275
C206  C     C_R   0.225181 0.175683 0.280134 0.074015
C207  C     C_R   0.762878 0.182377 0.734651 0.008950
C208  C     C_R   0.228020 0.718947 0.197201 0.016320
C209  C     C_R   0.226596 0.274818 0.795773 0.076138
C210  C     C_R   0.760924 0.810241 0.257212 0.060698
C211  C     C_R   0.248344 0.804757 0.756156 0.020319
C212  C     C_R   0.784381 0.268933 0.219466 0.024669
C213  C     C_R   0.260550 0.210557 0.319068 0.059580
C214  C     C_R   0.917952 0.843781 0.916314 -0.094448
C215  C     C_R   0.725621 0.675617 0.779859 0.073761
C216  C     C_R   0.262889 0.682375 0.234640 0.009017
C217  C     C_R   0.728010 0.218955 0.697218 0.016293
C218  C     C_R   0.726647 0.774801 0.295771 0.076143
C219  C     C_R   0.260854 0.310250 0.757192 0.060698
C220  C     C_R   0.748306 0.304736 0.256115 0.020478
C221  C     C_R   0.284449 0.768941 0.719542 0.024395
C222  C     C_R   0.676431 0.713781 0.886946 -0.124818
C223  C     C_R   0.317642 0.153108 0.223507 -0.101407
C224  C     C_R   0.682347 0.189032 0.807943 -0.060144
H1    H     H_    0.943578 0.197787 0.093123 0.113319
H2    H     H_    0.044482 0.182369 0.118063 0.109267
H3    H     H_    0.181277 0.959425 0.883824 0.123458
H4    H     H_    0.801530 0.059875 0.091889 0.114857
H5    H     H_    0.058485 0.199510 0.912162 0.087090
H6    H     H_    0.957955 0.818326 0.117624 0.114221
H7    H     H_    0.820321 0.037000 0.881953 0.137245
H8    H     H_    0.200649 0.938522 0.087066 0.104414
H9    H     H_    0.443653 0.697731 0.593251 0.113359
H10   H     H_    0.541477 0.317790 0.382950 0.124300
H11   H     H_    0.679283 0.536648 0.618134 0.103973
H12   H     H_    0.041466 0.817808 0.882928 0.124076
H13   H     H_    0.299429 0.437072 0.413006 0.120839
H14   H     H_    0.559180 0.300162 0.586722 0.100696
H15   H     H_    0.456907 0.681696 0.382073 0.116863
H16   H     H_    0.318795 0.459688 0.616299 0.118097
H17   H     H_    0.700034 0.561660 0.412784 0.111254
H18   H     H_    0.440331 0.299248 0.417765 0.097211
H19   H     H_    0.544637 0.682485 0.617964 0.109312
H20   H     H_    0.681297 0.459403 0.383840 0.123463
H21   H     H_    0.301577 0.559849 0.592019 0.114842
H22   H     H_    0.558472 0.699502 0.412142 0.087069
H23   H     H_    0.179221 0.036621 0.118205 0.103980
H24   H     H_    0.457897 0.318269 0.617574 0.114210
H25   H     H_    0.320313 0.537007 0.381960 0.137319
H26   H     H_    0.700648 0.438521 0.587067 0.104379
H27   H     H_    0.699532 0.718193 0.981998 0.014769
H28   H     H_    0.321764 0.075393 0.159490 -0.090516
H29   H     H_    0.613169 0.171436 0.879179 0.115856
H30   H     H_    0.334908 0.667219 0.028826 0.114005
H31   H     H_    0.296667 0.362057 0.967313 0.036934
H32   H     H_    0.681075 0.832933 0.095815 -0.074518
H33   H     H_    0.339992 0.736750 0.928638 0.105822
H34   H     H_    0.799419 0.937073 0.913008 0.120566
H35   H     H_    0.757834 0.392944 0.055668 0.113690
H36   H     H_    0.198429 0.219256 0.482023 0.015586
H37   H     H_    0.822337 0.576036 0.658802 -0.090723
H38   H     H_    0.113139 0.671350 0.379123 0.115867
H39   H     H_    0.834804 0.167130 0.528815 0.113786
H40   H     H_    0.796682 0.862044 0.467345 0.037067
H41   H     H_    0.180954 0.332890 0.595791 -0.074734
H42   H     H_    0.839914 0.236506 0.428539 0.105759
H43   H     H_    0.257795 0.892730 0.555610 0.113852
H44   H     H_    0.760743 0.845020 0.976210 -0.023742
H45   H     H_    0.059186 0.800157 0.086705 0.100679
H46   H     H_    0.220337 0.146465 0.080183 0.074025
H47   H     H_    0.805271 0.165535 0.932980 -0.013765
H48   H     H_    0.228366 0.830888 0.023946 0.001739
H49   H     H_    0.189147 0.295515 0.969817 -0.037791
H50   H     H_    0.820834 0.815559 0.062709 -0.003917
H51   H     H_    0.164162 0.806940 0.941939 -0.011690
H52   H     H_    0.820326 0.212211 0.027023 -0.017043
H53   H     H_    0.260540 0.345308 0.476251 -0.023583
H54   H     H_    0.720479 0.646332 0.579903 0.073433
H55   H     H_    0.305240 0.665532 0.432977 -0.013696
H56   H     H_    0.956918 0.181684 0.882062 0.116837
H57   H     H_    0.728330 0.330861 0.523940 0.001574
H58   H     H_    0.689036 0.795640 0.469730 -0.037578
H59   H     H_    0.320686 0.315541 0.562663 -0.003902
H60   H     H_    0.664185 0.306878 0.441925 -0.011649
H61   H     H_    0.320302 0.711962 0.527146 -0.017101
H62   H     H_    0.073276 0.106005 0.375338 0.041726
H63   H     H_    0.945325 0.693116 0.811417 0.003198
H64   H     H_    0.049720 0.738273 0.241644 0.023959
H65   H     H_    0.864290 0.055441 0.648594 0.053673
H66   H     H_    0.831264 0.962478 0.335744 0.072958
H67   H     H_    0.818861 0.959751 0.116360 0.118249
H68   H     H_    0.064806 0.206492 0.741132 0.032120
H69   H     H_    0.929300 0.187627 0.297931 0.073637
H70   H     H_    0.206646 0.972484 0.691285 0.060817
H71   H     H_    0.576233 0.602734 0.874811 0.040179
H72   H     H_    0.444913 0.192211 0.312232 0.003217
H73   H     H_    0.549733 0.238371 0.741730 0.024050
H74   H     H_    0.364384 0.555501 0.148588 0.053579
H75   H     H_    0.331279 0.462474 0.835629 0.072939
H76   H     H_    0.564901 0.706464 0.241048 0.032138
H77   H     H_    0.429509 0.688066 0.798212 0.073159
H78   H     H_    0.200038 0.061658 0.912798 0.111270
H79   H     H_    0.706619 0.472536 0.191385 0.060862
H80   H     H_    0.940344 0.799263 0.917680 0.097090
I1    I     I_    0.920275 0.820716 0.774084 -0.280194
I2    I     I_    0.533499 0.604968 0.749080 -0.329239
I3    I     I_    0.453843 0.605487 0.239805 -0.268827
I4    I     I_    0.608217 0.374567 0.737536 -0.252491
I5    I     I_    0.640773 0.597058 0.262125 -0.322664
I6    I     I_    0.437314 0.415920 0.763621 -0.196976
I7    I     I_    0.581334 0.420005 0.231097 -0.177700
I8    I     I_    0.351457 0.579231 0.739150 -0.336189
I9    I     I_    0.033581 0.103886 0.249218 -0.329242
I10   I     I_    0.953802 0.105415 0.739769 -0.268653
I11   I     I_    0.108147 0.874495 0.237516 -0.251496
I12   I     I_    0.140693 0.097090 0.762141 -0.322593
I13   I     I_    0.937322 0.916021 0.263707 -0.196511
I14   I     I_    0.081370 0.920023 0.731057 -0.177714
I15   I     I_    0.851195 0.079130 0.238893 -0.337468
I16   I     I_    0.420465 0.319794 0.274367 -0.280353
N1    N     N_R   0.940200 0.105310 0.059970 -0.043376
N2    N     N_R   0.059800 0.105310 0.059970 -0.046304
N3    N     N_R   0.105310 0.940200 0.940030 -0.056988
N4    N     N_R   0.894690 0.059800 0.059970 -0.042571
N5    N     N_R   0.059800 0.105310 0.940030 -0.040775
N6    N     N_R   0.940200 0.894690 0.059970 -0.055262
N7    N     N_R   0.894690 0.059800 0.940030 -0.055838
N8    N     N_R   0.105310 0.940200 0.059970 -0.040163
N9    N     N_R   0.440200 0.605310 0.559970 -0.043496
N10   N     N_R   0.559800 0.394690 0.440030 -0.057470
N11   N     N_R   0.605310 0.559800 0.559970 -0.043517
N12   N     N_R   0.059800 0.894690 0.940030 -0.057465
N13   N     N_R   0.394690 0.440200 0.440030 -0.042470
N14   N     N_R   0.559800 0.394690 0.559970 -0.040578
N15   N     N_R   0.440200 0.605310 0.440030 -0.054332
N16   N     N_R   0.394690 0.440200 0.559970 -0.052525
N17   N     N_R   0.605310 0.559800 0.440030 -0.051266
N18   N     N_R   0.440200 0.394690 0.440030 -0.038905
N19   N     N_R   0.559800 0.605310 0.559970 -0.046317
N20   N     N_R   0.605310 0.440200 0.440030 -0.056958
N21   N     N_R   0.394690 0.559800 0.559970 -0.042635
N22   N     N_R   0.559800 0.605310 0.440030 -0.040816
N23   N     N_R   0.105310 0.059800 0.059970 -0.043540
N24   N     N_R   0.440200 0.394690 0.559970 -0.055231
N25   N     N_R   0.394690 0.559800 0.440030 -0.055816
N26   N     N_R   0.605310 0.440200 0.559970 -0.040169
N27   N     N_R   0.894690 0.940200 0.940030 -0.042425
N28   N     N_R   0.059800 0.894690 0.059970 -0.040552
N29   N     N_R   0.940200 0.105310 0.940030 -0.054324
N30   N     N_R   0.894690 0.940200 0.059970 -0.052603
N31   N     N_R   0.105310 0.059800 0.940030 -0.051278
N32   N     N_R   0.940200 0.894690 0.940030 -0.038843
Ni1   Ni    Ni4+2 1.000000 0.104370 0.000000 0.241293
Ni2   Ni    Ni4+2 0.000000 0.895630 0.000000 0.225816
Ni3   Ni    Ni4+2 0.104370 0.000000 0.000000 0.242623
Ni4   Ni    Ni4+2 0.895630 0.000000 0.000000 0.230714
Ni5   Ni    Ni4+2 0.500000 0.604370 0.500000 0.241373
Ni6   Ni    Ni4+2 0.500000 0.395630 0.500000 0.225804
Ni7   Ni    Ni4+2 0.604370 0.500000 0.500000 0.242508
Ni8   Ni    Ni4+2 0.395630 0.500000 0.500000 0.230744
O1    O     O_2   0.609197 0.719567 0.968253 -0.445744
O2    O     O_2   0.893691 0.633240 0.651837 -0.476503
O3    O     O_2   0.174632 0.604957 0.372822 -0.591146
O4    O     O_2   0.744124 0.175956 0.524247 -0.559513
O5    O     O_2   0.825892 0.775251 0.461931 -0.490731
O6    O     O_2   0.147055 0.247992 0.587386 -0.478008
O7    O     O_2   0.812919 0.323212 0.421792 -0.576507
O8    O     O_2   0.339625 0.855937 0.570993 -0.596803
O9    O     O_2   0.680876 0.845815 0.933214 -0.517444
O10   O     O_2   0.275725 0.210510 0.112648 -0.491199
O11   O     O_2   0.750059 0.233199 0.908602 -0.533531
O12   O     O_2   0.393499 0.132144 0.152729 -0.476843
O13   O     O_2   0.311515 0.806674 0.051901 -0.541041
O14   O     O_2   0.189928 0.206830 0.990688 -0.591596
O15   O     O_2   0.790040 0.734970 0.090966 -0.551029
O16   O     O_2   0.191546 0.724979 0.914076 -0.533649
O17   O     O_2   0.738161 0.249953 0.039369 -0.528015
O18   O     O_2   0.180900 0.346683 0.432882 -0.517323
O19   O     O_2   0.775345 0.710957 0.612152 -0.491157
O20   O     O_2   0.249977 0.733152 0.408599 -0.533466
O21   O     O_2   0.811478 0.306601 0.551860 -0.540960
O22   O     O_2   0.689609 0.706976 0.490676 -0.591672
O23   O     O_2   0.674641 0.105024 0.872877 -0.591354
O24   O     O_2   0.289845 0.234968 0.590916 -0.550858
O25   O     O_2   0.691515 0.224910 0.414032 -0.533699
O26   O     O_2   0.238145 0.749718 0.539497 -0.528063
O27   O     O_2   0.036015 0.190087 0.375586 -0.493610
O28   O     O_2   0.945018 0.623356 0.755888 -0.533971
O29   O     O_2   0.058993 0.747864 0.327517 -0.524198
O30   O     O_2   0.904272 0.111167 0.591252 -0.504689
O31   O     O_2   0.868746 0.923800 0.405971 -0.516968
O32   O     O_2   0.061244 0.250406 0.666048 -0.501563
O33   O     O_2   0.889642 0.159863 0.371292 -0.521154
O34   O     O_2   0.244225 0.675999 0.024226 -0.559446
O35   O     O_2   0.182665 0.947927 0.610561 -0.525816
O36   O     O_2   0.537137 0.685902 0.877752 -0.488273
O37   O     O_2   0.444381 0.122203 0.256979 -0.534023
O38   O     O_2   0.559058 0.247994 0.827596 -0.524175
O39   O     O_2   0.404368 0.611258 0.091274 -0.504199
O40   O     O_2   0.368705 0.423849 0.905908 -0.516875
O41   O     O_2   0.561407 0.750254 0.165896 -0.501337
O42   O     O_2   0.389748 0.660037 0.871433 -0.519234
O43   O     O_2   0.682652 0.448052 0.110637 -0.525916
O44   O     O_2   0.326028 0.275316 0.961865 -0.490775
O45   O     O_2   0.647300 0.747996 0.087309 -0.477098
O46   O     O_2   0.312851 0.823408 0.921856 -0.576671
O47   O     O_2   0.839646 0.356103 0.071039 -0.596817
O48   O     O_2   0.108154 0.220667 0.467936 -0.448513

loop_
_geom_bond_atom_site_label_1
_geom_bond_atom_site_label_2
_ccdc_geom_bond_type
C23   C58   S    
N14   Ni6   S    
C91   O34   D    
C200  C218  A    
C7    C186  A    
C78   C115  S    
C87   O1    D    
C47   C199  A    
C89   C224  S    
C131  C177  S    
C127  H65   S    
N14   N26   A    
C105  H44   S    
C43   C61   A    
C13   C18   A    
N6    N30   A    
C137  O40   D    
C22   C181  A    
C30   C64   S    
C102  O6    D    
C94   H33   S    
C95   O47   D    
C21   C170  A    
C81   C117  S    
C186  C202  A    
C27   C90   A    
C83   C119  S    
C36   C53   A    
C33   C147  A    
C110  H50   S    
C79   N9    A    
C108  O13   D    
C16   C104  S    
C38   C55   A    
C80   C116  S    
C38   C190  A    
C120  O24   D    
C85   C121  S    
C28   C144  A    
C121  H60   S    
C48   C65   A    
C132  O36   D    
C138  C184  S    
C133  O37   D    
N3    Ni3   S    
C88   H28   S    
C75   C157  A    
C2    C19   A    
C203  N31   A    
C23   C46   A    
C145  H20   S    
N23   Ni3   S    
C50   C202  A    
C67   C85   A    
C40   C58   A    
C24   N4    A    
C183  C201  A    
C148  N23   A    
C201  C219  A    
N2    N23   A    
C21   C55   S    
C31   C150  A    
C73   C108  S    
C212  C220  A    
C172  C190  A    
C130  O33   D    
C42   I15   S    
C36   C188  A    
C85   C167  A    
C14   C175  A    
C39   C191  A    
C163  C216  A    
C39   C56   A    
C27   C145  A    
C188  C206  A    
C73   C155  A    
C143  H18   S    
C74   C156  A    
C8    C169  A    
N21   Ni8   S    
N25   Ni8   S    
C9    C171  A    
C146  N21   A    
C45   I3    S    
C138  H76   S    
C53   C71   A    
C51   C204  A    
C2    H2    S    
C12   C174  A    
C51   I8    S    
C158  C211  A    
C29   C113  A    
C156  C209  A    
C114  O17   D    
C126  O29   D    
C70   C105  S    
C113  N13   A    
C13   H3    S    
C19   C148  A    
C44   C62   A    
C116  H54   S    
N1    Ni1   S    
N11   N19   A    
C82   C164  A    
C41   I14   S    
C180  C224  A    
C42   C195  A    
C125  C171  S    
C3    C182  A    
C14   C102  S    
C92   H31   S    
C135  N15   A    
C71   C106  S    
C26   C69   S    
C129  C175  S    
N13   Ni8   S    
C51   C69   A    
C15   C103  S    
N12   Ni2   S    
C166  C219  A    
C98   O3    D    
C132  C178  S    
C111  O16   D    
C164  C217  A    
C125  H63   S    
C126  H64   S    
C204  C221  A    
C134  O38   D    
C40   I13   S    
C90   N10   A    
C168  C221  A    
C93   H32   S    
N28   Ni2   S    
C22   C54   S    
C87   H27   S    
C146  H21   S    
C97   O2    D    
C185  C204  A    
C62   C80   A    
C150  N25   A    
C170  N28   A    
C211  C221  A    
C11   C99   S    
C202  C220  A    
C26   C146  A    
C142  N17   A    
C123  O27   D    
N27   N32   A    
C120  H59   S    
C121  O25   D    
C184  C200  A    
N27   Ni4   S    
C14   C166  A    
C50   C67   A    
C5    C184  A    
C50   I7    S    
N9    Ni5   S    
C125  O28   D    
C15   C167  A    
C23   C192  A    
C6    C158  A    
C151  H26   S    
C40   C193  A    
C49   C201  A    
N15   N25   A    
C49   C66   A    
C209  C219  A    
C31   C63   S    
C86   C168  A    
C147  H22   S    
C12   C165  A    
C124  N14   A    
C148  H23   S    
C20   C214  A    
C123  H62   S    
C124  H14   S    
C98   H38   S    
N1    N4    A    
C187  C205  A    
C141  N16   A    
C80   C162  A    
C191  C209  A    
C178  C197  A    
C106  O10   D    
C149  H24   S    
C21   C68   A    
C137  H75   S    
C138  O41   D    
C49   I6    S    
C190  C208  A    
C75   C110  S    
C25   C203  A    
N24   Ni6   S    
C137  C183  S    
C97   H37   S    
C143  N18   A    
C1    C17   A    
C37   I10   S    
C159  H34   S    
C140  C186  S    
C100  O5    D    
N16   N24   A    
C115  O18   D    
C6    C94   S    
C193  C210  A    
C214  N32   A    
C192  H67   S    
C109  O14   D    
C159  N27   A    
C176  C195  A    
C34   C187  A    
C139  H77   S    
C27   C67   S    
C17   C60   S    
C99   H39   S    
C55   C73   A    
C18   C59   S    
C78   C161  A    
C128  O31   D    
C136  C182  S    
N20   Ni7   S    
N3    N12   A    
C134  C180  S    
N22   Ni5   S    
C59   C76   A    
C68   H8    S    
C28   C62   S    
C88   O12   D    
C10   C163  A    
C152  C222  A    
C129  O32   D    
C199  C217  A    
C104  H43   S    
C68   N8    A    
C145  N20   A    
C114  H52   S    
C83   C165  A    
C107  O11   D    
C15   C176  A    
C48   C200  A    
C122  H61   S    
C18   C112  A    
C46   N6    A    
N31   Ni3   S    
C10   C172  A    
C29   C143  A    
C3    C91   S    
C13   N3    A    
C133  H72   S    
C44   I2    S    
C28   C101  A    
C129  H68   S    
C102  H41   S    
N32   Ni2   S    
C86   C122  S    
C94   O46   D    
C147  N22   A    
C29   C61   S    
C203  H78   S    
N11   Ni7   S    
C46   H6    S    
C91   H30   S    
C22   C57   A    
C214  H80   S    
C179  C196  A    
C56   C74   A    
C177  C194  A    
C192  N30   A    
C38   I11   S    
C119  O22   D    
C108  H48   S    
C72   C154  A    
C35   N5    A    
C118  H57   S    
C31   C135  A    
C155  C208  A    
C7    C160  A    
C198  C216  A    
C112  H12   S    
C107  H47   S    
C122  O26   D    
C131  H70   S    
C41   C194  A    
C6    C185  A    
C127  O30   D    
C84   C120  S    
C170  H45   S    
C3    C155  A    
N18   Ni6   S    
C79   H9    S    
C32   C141  A    
C25   C35   A    
N7    N29   A    
C206  C213  A    
C4    C156  A    
C63   C81   A    
C141  H16   S    
C5    C157  A    
C181  N29   A    
C77   C114  S    
C47   C64   A    
N2    Ni1   S    
C32   C66   S    
N17   Ni7   S    
C1    H1    S    
C9    C97   S    
N19   Ni5   S    
C128  C174  S    
C144  N19   A    
C169  C188  A    
N10   N20   A    
N5    N31   A    
C181  H56   S    
C1    N1    A    
C34   C52   A    
C26   C79   A    
C132  H71   S    
C151  N26   A    
N13   N18   A    
C189  C207  A    
C57   H7    S    
C140  O43   D    
C12   C100  S    
C77   C160  A    
C195  C212  A    
C205  C215  A    
C174  C193  A    
C20   C52   S    
C36   I9    S    
N15   Ni5   S    
C109  H49   S    
C4    C92   S    
N8    Ni3   S    
C127  C173  S    
C37   C189  A    
C8    C96   S    
C25   C56   S    
C74   C109  S    
C33   C65   S    
C57   N7    A    
C95   H35   S    
C130  H69   S    
C76   C158  A    
N16   Ni8   S    
C153  C223  A    
C8    C161  A    
C76   C111  S    
C175  C191  A    
N8    N28   A    
C65   C83   A    
C71   C153  A    
C144  H19   S    
C90   H10   S    
C89   O23   D    
C103  H42   S    
C173  C189  A    
C10   C98   S    
C34   I1    S    
C194  C211  A    
C32   C149  A    
C2    N2    A    
C20   C159  A    
C110  O15   D    
C101  H11   S    
C47   I4    S    
C111  H51   S    
C197  C215  A    
C96   H36   S    
N10   Ni6   S    
C19   C53   S    
C113  H13   S    
C44   C197  A    
C4    C183  A    
C89   H29   S    
C81   C163  A    
C48   I5    S    
C39   I12   S    
C136  H74   S    
C58   C75   A    
C119  H58   S    
C162  C215  A    
C84   C166  A    
C160  C212  A    
C60   C77   A    
C11   C173  A    
C17   C24   A    
C131  O35   D    
C87   C222  S    
C152  C205  A    
C70   C152  A    
C41   C59   A    
C42   C60   A    
C133  C179  S    
C130  C176  S    
C45   C198  A    
C45   C63   A    
C179  C223  A    
C43   C196  A    
C35   H5    S    
C134  H73   S    
C126  C172  S    
N4    Ni4   S    
C139  O42   D    
C116  O19   D    
C149  N24   A    
C92   O44   D    
C93   O45   D    
C72   C107  S    
N30   Ni4   S    
C61   C78   A    
N9    N21   A    
C88   C223  S    
C99   O4    D    
C64   C82   A    
C123  C169  S    
C165  C218  A    
C140  H79   S    
C37   C54   A    
C105  O9    D    
C117  O20   D    
C30   C124  A    
C106  H46   S    
C136  O39   D    
C96   O48   D    
N29   Ni1   S    
C167  C220  A    
C16   C177  A    
C150  H25   S    
C103  O7    D    
C101  N11   A    
C161  C213  A    
C100  H40   S    
N17   N22   A    
C5    C93   S    
C118  O21   D    
C33   C142  A    
C142  H17   S    
C7    C95   S    
N7    Ni4   S    
C210  C218  A    
C171  C187  A    
C117  H55   S    
C180  C199  A    
C24   H4    S    
C196  C213  A    
C115  H53   S    
C30   C151  A    
C16   C168  A    
C128  H66   S    
C11   C164  A    
C135  H15   S    
C43   I16   S    
C154  C224  A    
C9    C162  A    
N26   Ni7   S    
C52   C70   A    
C112  N12   A    
C207  C217  A    
C66   C84   A    
C153  C206  A    
N6    Ni2   S    
C157  C210  A    
C54   C72   A    
C208  C216  A    
C104  O8    D    
C82   C118  S    
C178  C222  A    
C182  C198  A    
C139  C185  S    
C154  C207  A    
C69   C86   A    
N5    Ni1   S    
