data_mof_unit_62347.cif
_audit_creation_date              2012-12-10T18:16:32-0500
_audit_creation_method            fapswitch 2.2
_symmetry_space_group_name_H-M    P1
_symmetry_Int_Tables_number       1
_space_group_crystal_system       triclinic
_cell_length_a                    18.354089
_cell_length_b                    18.352966
_cell_length_c                    18.325616
_cell_angle_alpha                 119.990295
_cell_angle_beta                  59.945159
_cell_angle_gamma                 120.108082
_cell_volume                      4359.91892537

loop_
_atom_site_label
_atom_site_type_symbol
_atom_type_description
_atom_site_fract_x
_atom_site_fract_y
_atom_site_fract_z
_atom_type_partial_charge
C1    C     C_R   0.390187 0.109900 0.609867 0.505876
C2    C     C_R   0.988670 0.975852 0.920075 -0.143996
C3    C     C_R   0.943242 0.946195 0.053803 0.027300
C4    C     C_R   0.056768 0.053803 0.946193 0.027299
C5    C     C_R   0.930711 0.921865 0.973528 -0.024819
C6    C     C_R   0.069315 0.078124 0.026458 -0.024784
C7    C     C_R   0.026685 0.472317 0.906981 -0.153513
C8    C     C_R   0.973315 0.527683 0.093019 -0.153511
C9    C     C_R   0.973361 0.525635 0.959359 0.356706
C10   C     C_R   0.026639 0.474366 0.040641 0.356709
C11   C     C_R   0.946290 0.553716 0.053063 -0.019107
C12   C     C_R   0.609813 0.890100 0.390133 0.505881
C13   C     C_R   0.053710 0.446284 0.946937 -0.019106
C14   C     C_R   0.027249 0.092916 0.526243 -0.133749
C15   C     C_R   0.972751 0.907084 0.473757 -0.133747
C16   C     C_R   0.109795 0.390168 0.890389 0.532369
C17   C     C_R   0.890205 0.609832 0.109611 0.532367
C18   C     C_R   0.973812 0.039444 0.472756 -0.134802
C19   C     C_R   0.026188 0.960556 0.527244 -0.134800
C20   C     C_R   0.946287 0.946255 0.446243 0.040197
C21   C     C_R   0.053713 0.053744 0.553757 0.040197
C22   C     C_R   0.539599 0.092939 0.526700 -0.134864
C23   C     C_R   0.128317 0.220659 0.139317 -0.076526
C24   C     C_R   0.460401 0.907061 0.473300 -0.134863
C25   C     C_R   0.592986 0.039482 0.473260 -0.134308
C26   C     C_R   0.407014 0.960518 0.526740 -0.134309
C27   C     C_R   0.553684 0.946243 0.446266 0.039253
C28   C     C_R   0.446316 0.053757 0.553735 0.039253
C29   C     C_R   0.407037 0.472867 0.526444 -0.133912
C30   C     C_R   0.592963 0.527133 0.473556 -0.133910
C31   C     C_R   0.460527 0.526316 0.472916 -0.134879
C32   C     C_R   0.539473 0.473684 0.527084 -0.134877
C33   C     C_R   0.553744 0.553705 0.446218 0.040450
C34   C     C_R   0.871822 0.779266 0.860659 -0.076476
C35   C     C_R   0.446255 0.446295 0.553782 0.040451
C36   C     C_R   0.408069 0.484800 0.038520 -0.140229
C37   C     C_R   0.591928 0.515182 0.961483 -0.140249
C38   C     C_R   0.461526 0.538042 0.092013 -0.148537
C39   C     C_R   0.538471 0.461942 0.907989 -0.148547
C40   C     C_R   0.390094 0.390165 0.890202 0.501665
C41   C     C_R   0.609905 0.609832 0.109798 0.501667
C42   C     C_R   0.553745 0.553629 0.053713 0.036774
C43   C     C_R   0.446253 0.446359 0.946288 0.036779
C44   C     C_R   0.109842 0.109904 0.609904 0.507491
C45   C     C_R   0.199385 0.292942 0.166042 -0.104490
C46   C     C_R   0.890158 0.890096 0.390096 0.507490
C47   C     C_R   0.390092 0.390178 0.609936 0.507975
C48   C     C_R   0.609908 0.609821 0.390064 0.507973
C49   C     C_R   0.111051 0.110023 0.890117 0.497084
C50   C     C_R   0.888950 0.889976 0.109882 0.497098
C51   C     C_R   0.304229 0.237314 0.023049 -0.097872
C52   C     C_R   0.695859 0.762586 0.976784 -0.097861
C53   C     C_R   0.233405 0.164790 0.996100 -0.068466
C54   C     C_R   0.766640 0.835149 0.003778 -0.068495
C55   C     C_R   0.144702 0.156093 0.053921 0.052695
C56   C     C_R   0.800798 0.706941 0.833891 -0.104459
C57   C     C_R   0.855366 0.843860 0.946026 0.052694
C58   C     C_R   0.287233 0.301117 0.108066 -0.099353
C59   C     C_R   0.712924 0.698756 0.891794 -0.099351
C60   C     C_R   0.011344 0.024144 0.079920 -0.143978
F1    F     F_    0.948647 0.549274 0.917884 -0.603053
F2    F     F_    0.051353 0.450726 0.082115 -0.603042
H1    H     H_    0.342145 0.356804 0.129113 0.117281
H2    H     H_    0.664856 0.547563 0.453694 0.141121
H3    H     H_    0.428867 0.546080 0.452528 0.139013
H4    H     H_    0.571133 0.453920 0.547471 0.139015
H5    H     H_    0.336995 0.473823 0.069367 0.155383
H6    H     H_    0.663001 0.526156 0.930637 0.155369
H7    H     H_    0.430711 0.567242 0.163131 0.138411
H8    H     H_    0.569286 0.432741 0.836872 0.138400
H9    H     H_    0.372334 0.243834 0.978188 0.108397
H10   H     H_    0.627734 0.756056 0.021587 0.108413
H11   H     H_    0.247692 0.115175 0.930483 0.095106
H12   H     H_    0.658046 0.643038 0.870711 0.117253
H13   H     H_    0.752305 0.884784 0.069372 0.095113
H14   H     H_    0.060562 0.215140 0.184997 0.114442
H15   H     H_    0.939598 0.784796 0.815037 0.114467
H16   H     H_    0.186357 0.342508 0.231836 0.113044
H17   H     H_    0.813879 0.657351 0.768122 0.113059
H18   H     H_    0.021537 0.041161 0.140739 0.129139
H19   H     H_    0.978479 0.958829 0.859252 0.129163
H20   H     H_    0.046725 0.451456 0.834965 0.174296
H21   H     H_    0.953275 0.548544 0.165035 0.174298
H22   H     H_    0.047765 0.164768 0.545934 0.140978
H23   H     H_    0.954165 0.071103 0.452245 0.139044
H24   H     H_    0.952235 0.835232 0.454066 0.140981
H25   H     H_    0.045835 0.928897 0.547755 0.139047
H26   H     H_    0.571398 0.164801 0.546756 0.139144
H27   H     H_    0.428602 0.835199 0.453245 0.139145
H28   H     H_    0.664897 0.071200 0.453174 0.140243
H29   H     H_    0.335103 0.928800 0.546826 0.140241
H30   H     H_    0.335144 0.452437 0.546306 0.141119
O1    O     O_3   0.249960 0.250040 0.750040 -0.446663
O2    O     O_R   0.865890 0.634160 0.194850 -0.566698
O3    O     O_R   0.305100 0.073510 0.634200 -0.548429
O4    O     O_R   0.694900 0.926490 0.365800 -0.548425
O5    O     O_R   0.134110 0.365830 0.926590 -0.457102
O6    O     O_R   0.865890 0.634170 0.073410 -0.457106
O7    O     O_R   0.426490 0.365840 0.805130 -0.553664
O8    O     O_R   0.573510 0.634160 0.194870 -0.553662
O9    O     O_R   0.134150 0.194970 0.634230 -0.547408
O10   O     O_R   0.865850 0.805030 0.365770 -0.547407
O11   O     O_R   0.426480 0.365860 0.634240 -0.548856
O12   O     O_3   0.750040 0.749960 0.249960 -0.446663
O13   O     O_R   0.573520 0.634140 0.365760 -0.548859
O14   O     O_R   0.134190 0.073490 0.805100 -0.553875
O15   O     O_R   0.865810 0.926510 0.194900 -0.553862
O16   O     O_R   0.305020 0.365860 0.634250 -0.547416
O17   O     O_R   0.694980 0.634140 0.365750 -0.547415
O18   O     O_R   0.134160 0.194930 0.926560 -0.520748
O19   O     O_R   0.865840 0.805070 0.073440 -0.520755
O20   O     O_R   0.305030 0.365830 0.926580 -0.534123
O21   O     O_R   0.694970 0.634170 0.073420 -0.534122
O22   O     O_R   0.134180 0.073510 0.634210 -0.549145
O23   O     O_R   0.865820 0.926490 0.365790 -0.549148
O24   O     O_R   0.426530 0.194970 0.634210 -0.549662
O25   O     O_R   0.573470 0.805030 0.365790 -0.549660
O26   O     O_R   0.134110 0.365840 0.805150 -0.566698
Zn1   Zn    Zn3+2 0.206570 0.293400 0.880180 0.992254
Zn2   Zn    Zn3+2 0.793430 0.706600 0.119820 0.992248
Zn3   Zn    Zn3+2 0.380110 0.293420 0.706660 0.926288
Zn4   Zn    Zn3+2 0.619890 0.706580 0.293340 0.926293
Zn5   Zn    Zn3+2 0.206560 0.293420 0.706670 0.933706
Zn6   Zn    Zn3+2 0.793440 0.706580 0.293330 0.933705
Zn7   Zn    Zn3+2 0.206610 0.119900 0.706640 0.927045
Zn8   Zn    Zn3+2 0.793390 0.880100 0.293360 0.927055

loop_
_geom_bond_atom_site_label_1
_geom_bond_atom_site_label_2
_ccdc_geom_bond_type
C34   C56   A    
C23   C45   A    
C30   H2    S    
C8    H21   S    
C41   C42   S    
C14   C18   A    
C24   C27   A    
C14   H22   S    
C23   H14   S    
C35   C47   S    
C24   H27   S    
C40   O7    A    
C36   H5    S    
C40   O20   A    
C15   C19   A    
C46   O10   A    
O14   Zn7   S    
C25   H28   S    
O9    Zn5   S    
C56   H17   S    
C46   O23   A    
C9    F1    S    
C14   C21   A    
C19   C21   A    
C24   C26   A    
C38   C42   A    
C19   H25   S    
C34   H15   S    
C16   O5    A    
O12   Zn4   S    
O21   Zn2   S    
C37   H6    S    
C31   H3    S    
C37   C42   A    
C40   C43   S    
C60   H18   S    
C22   C25   A    
C1    C28   S    
C31   C33   A    
C45   H16   S    
C1    O24   A    
C22   H26   S    
C17   O6    A    
C6    C55   S    
O8    Zn4   S    
O7    Zn3   S    
C3    C60   A    
C48   O17   A    
C38   H7    S    
C44   O22   A    
C22   C28   A    
C10   F2    S    
C51   H9    S    
O10   Zn6   S    
C3    C50   S    
C52   C54   A    
C53   C55   A    
C15   C20   A    
C45   C58   A    
C18   H23   S    
C47   O11   A    
O24   Zn3   S    
C12   C27   S    
C32   C35   A    
C6    C60   A    
C4    C6    A    
O22   Zn7   S    
C39   C43   A    
C26   H29   S    
C54   H13   S    
O19   Zn2   S    
C51   C53   A    
O5    Zn1   S    
C2    C4    A    
O25   Zn4   S    
C52   H10   S    
C52   C59   A    
C16   O26   A    
C34   C57   A    
C21   C44   S    
C9    C11   A    
O3    Zn7   S    
C48   O13   A    
C1    O3    A    
O1    Zn3   S    
C36   C43   A    
C41   O8    A    
O4    Zn8   S    
C51   C58   A    
O6    Zn2   S    
O23   Zn8   S    
C59   H12   S    
C15   H24   S    
C8    C10   A    
C50   O15   A    
C2    C5    A    
O16   Zn5   S    
O11   Zn3   S    
C32   H4    S    
C58   H1    S    
C7    C9    A    
C11   C17   S    
C30   C33   A    
C53   H11   S    
O1    Zn5   S    
O15   Zn8   S    
C41   O21   A    
C3    C5    A    
C10   C13   A    
O18   Zn1   S    
O20   Zn1   S    
C44   O9    A    
O17   Zn6   S    
C23   C55   A    
C49   O14   A    
O12   Zn6   S    
C25   C27   A    
C29   C35   A    
C26   C28   A    
C56   C59   A    
C5    C57   S    
C4    C49   S    
C36   C38   A    
C29   C31   A    
C30   C32   A    
C8    C11   A    
C50   O19   A    
C39   H8    S    
O13   Zn4   S    
C18   C20   A    
O26   Zn5   S    
O1    Zn7   S    
C12   O25   A    
C7    C13   A    
C7    H20   S    
O12   Zn8   S    
C37   C39   A    
C47   O16   A    
C13   C16   S    
C33   C48   S    
C12   O4    A    
C2    H19   S    
C17   O2    A    
O1    Zn1   S    
C29   H30   S    
C20   C46   S    
C49   O18   A    
O12   Zn2   S    
C54   C57   A    
O2    Zn6   S    
