data_mof_unit_42637.cif
_audit_creation_date              2012-12-10T18:27:25-0500
_audit_creation_method            fapswitch 2.2
_symmetry_space_group_name_H-M    P1
_symmetry_Int_Tables_number       1
_space_group_crystal_system       triclinic
_cell_length_a                    15.015567
_cell_length_b                    13.986731
_cell_length_c                    27.749263
_cell_angle_alpha                 89.811657
_cell_angle_beta                  89.930287
_cell_angle_gamma                 89.923018
_cell_volume                      5827.82301249

loop_
_atom_site_label
_atom_site_type_symbol
_atom_type_description
_atom_site_fract_x
_atom_site_fract_y
_atom_site_fract_z
_atom_type_partial_charge
C1    C     C_R   0.326433 0.500038 0.499843 0.900760
C2    C     C_R   0.420479 0.500004 0.872026 -0.010584
C3    C     C_R   0.497711 0.500670 0.353358 -0.066480
C4    C     C_R   0.501351 0.499130 0.646657 -0.066844
C5    C     C_R   0.414673 0.494999 0.973713 0.072320
C6    C     C_R   0.576457 0.490453 0.026227 0.072763
C7    C     C_R   0.578023 0.480216 0.975515 0.012988
C8    C     C_R   0.412528 0.490077 0.024734 0.012600
C9    C     C_R   0.497533 0.487010 0.949308 0.070218
C10   C     C_R   0.493471 0.491854 0.050787 0.069606
C11   C     C_R   0.336712 0.509305 0.946137 -0.219761
C12   C     C_R   0.673559 0.499969 0.499697 0.901485
C13   C     C_R   0.655443 0.501112 0.053232 -0.220547
C14   C     C_R   0.339760 0.511692 0.896281 -0.143190
C15   C     C_R   0.653189 0.506914 0.102993 -0.143330
C16   C     C_R   0.499812 0.500166 0.405956 0.892932
C17   C     C_R   0.500132 0.499820 0.594046 0.894806
C18   C     C_R   0.331837 0.483578 0.050587 -0.286915
C19   C     C_R   0.657652 0.461702 0.950225 -0.291159
C20   C     C_R   0.815204 0.413279 0.496755 -0.229525
C21   C     C_R   0.184778 0.586790 0.496972 -0.229692
C22   C     C_R   0.769375 0.500058 0.498030 -0.091780
C23   C     C_R   0.491675 0.495054 0.101815 -0.096955
C24   C     C_R   0.230602 0.499990 0.498356 -0.091077
C25   C     C_R   0.814836 0.587104 0.497134 -0.243630
C26   C     C_R   0.185123 0.412962 0.497655 -0.244594
C27   C     C_R   0.907214 0.588587 0.494946 0.089757
C28   C     C_R   0.092764 0.411515 0.495362 0.090070
C29   C     C_R   0.953633 0.500405 0.494747 0.013968
C30   C     C_R   0.046356 0.499700 0.494869 0.014660
C31   C     C_R   0.907207 0.412775 0.495382 0.103662
C32   C     C_R   0.092778 0.587319 0.495437 0.103649
C33   C     C_R   0.954173 0.675932 0.494064 0.212744
C34   C     C_R   0.499901 0.486720 0.898266 -0.097379
C35   C     C_R   0.045807 0.324185 0.494563 0.209276
C36   C     C_R   0.046975 0.674339 0.494804 -0.291380
C37   C     C_R   0.953009 0.325760 0.495045 -0.288899
C38   C     C_R   0.562616 0.798111 0.473732 -0.058572
C39   C     C_R   0.437314 0.201867 0.526199 -0.060294
C40   C     C_R   0.437399 0.797969 0.526258 -0.064833
C41   C     C_R   0.562615 0.202032 0.473741 -0.064930
C42   C     C_R   0.411819 0.490758 0.177847 0.498619
C43   C     C_R   0.581026 0.478824 0.822723 0.492977
C44   C     C_R   0.435786 0.898671 0.526823 0.016398
C45   C     C_R   0.409794 0.490805 0.127056 -0.064427
C46   C     C_R   0.564185 0.101318 0.473125 0.017006
C47   C     C_R   0.564190 0.898819 0.473124 0.019451
C48   C     C_R   0.435718 0.101159 0.526777 0.015735
C49   C     C_R   0.499984 0.949356 0.499969 0.085129
C50   C     C_R   0.499963 0.050628 0.499957 0.085072
C51   C     C_R   0.371847 0.949627 0.553446 -0.210464
C52   C     C_R   0.628067 0.050352 0.446457 -0.207755
C53   C     C_R   0.628044 0.949925 0.446440 -0.206028
C54   C     C_R   0.371790 0.050049 0.553407 -0.201952
C55   C     C_R   0.570134 0.505703 0.177848 0.536250
C56   C     C_R   0.581400 0.473761 0.873442 -0.064551
C57   C     C_R   0.423584 0.502501 0.821789 0.537556
C58   C     C_R   0.479144 0.416208 0.278258 -0.157121
C59   C     C_R   0.517097 0.412136 0.721512 -0.161645
C60   C     C_R   0.482522 0.415464 0.328213 -0.218677
C61   C     C_R   0.515537 0.413062 0.671557 -0.215907
C62   C     C_R   0.509733 0.586633 0.327962 -0.288608
C63   C     C_R   0.488731 0.584354 0.672322 -0.288735
C64   C     C_R   0.505955 0.587903 0.277709 0.269964
C65   C     C_R   0.490666 0.583972 0.722636 0.272140
C66   C     C_R   0.490914 0.501841 0.252972 0.298614
C67   C     C_R   0.329453 0.485273 0.100801 0.244569
C68   C     C_R   0.504480 0.496934 0.747120 0.298871
C69   C     C_3   0.881356 0.796698 0.446042 -0.811359
C70   C     C_3   0.118623 0.203632 0.446784 -0.792832
C71   C     C_3   0.438448 0.722520 0.237421 -0.779475
C72   C     C_3   0.557077 0.715791 0.765188 -0.767321
C73   C     C_3   0.206270 0.576482 0.131735 -0.692032
C74   C     C_3   0.753921 0.333360 0.867815 -0.694143
C75   C     C_R   0.660025 0.457096 0.900075 0.247942
C76   C     C_R   0.572228 0.502394 0.127635 -0.010160
H1    H     H_    0.525544 0.346456 0.652486 0.170098
H2    H     H_    0.838559 0.742084 0.428647 0.247953
H3    H     H_    0.058385 0.181391 0.512859 0.226974
H4    H     H_    0.158085 0.136720 0.450006 0.242222
H5    H     H_    0.160888 0.258631 0.429073 0.254139
H6    H     H_    0.059263 0.189548 0.423997 0.243180
H7    H     H_    0.083302 0.741312 0.494789 0.146088
H8    H     H_    0.916690 0.258780 0.495061 0.146102
H9    H     H_    0.611237 0.757799 0.453294 0.131854
H10   H     H_    0.388673 0.242170 0.546620 0.136096
H11   H     H_    0.388818 0.757534 0.546719 0.131112
H12   H     H_    0.472957 0.348351 0.347093 0.170053
H13   H     H_    0.611232 0.242471 0.453309 0.133441
H14   H     H_    0.321913 0.911844 0.574277 0.141560
H15   H     H_    0.677993 0.088128 0.425616 0.141920
H16   H     H_    0.677879 0.912258 0.425550 0.140316
H17   H     H_    0.321806 0.087710 0.574201 0.145994
H18   H     H_    0.562903 0.721103 0.269035 0.228920
H19   H     H_    0.455189 0.787484 0.216185 0.240333
H20   H     H_    0.399216 0.744138 0.269598 0.240058
H21   H     H_    0.397455 0.675127 0.214435 0.259682
H22   H     H_    0.434928 0.717956 0.731030 0.228591
H23   H     H_    0.521757 0.652868 0.347017 0.160588
H24   H     H_    0.539695 0.780441 0.786341 0.238889
H25   H     H_    0.599038 0.737575 0.734010 0.239776
H26   H     H_    0.595551 0.666869 0.788849 0.265417
H27   H     H_    0.200494 0.436326 0.108590 0.215491
H28   H     H_    0.143818 0.569187 0.152881 0.239465
H29   H     H_    0.190473 0.610729 0.096555 0.207950
H30   H     H_    0.252762 0.622947 0.152151 0.252055
H31   H     H_    0.797114 0.463684 0.893749 0.215396
H32   H     H_    0.816533 0.322115 0.847265 0.238652
H33   H     H_    0.697655 0.305311 0.846084 0.252938
H34   H     H_    0.477515 0.651214 0.653429 0.160724
H35   H     H_    0.758082 0.293031 0.902329 0.209781
H36   H     H_    0.527354 0.345282 0.740528 0.147301
H37   H     H_    0.468084 0.350065 0.258998 0.150741
H38   H     H_    0.278204 0.523426 0.876785 0.187852
H39   H     H_    0.715615 0.514789 0.122112 0.187418
H40   H     H_    0.272309 0.522265 0.961979 0.141736
H41   H     H_    0.720190 0.508233 0.036786 0.142059
H42   H     H_    0.268560 0.475857 0.032773 0.141099
H43   H     H_    0.719143 0.446021 0.968686 0.142325
H44   H     H_    0.779414 0.345951 0.497225 0.158203
H45   H     H_    0.777940 0.653625 0.498517 0.193764
H46   H     H_    0.220571 0.654108 0.497389 0.158565
H47   H     H_    0.221991 0.346420 0.499202 0.192393
H48   H     H_    0.941591 0.818693 0.511987 0.228920
H49   H     H_    0.940694 0.810269 0.423037 0.247005
H50   H     H_    0.842454 0.863967 0.449142 0.237353
N1    N     N_R   0.490862 0.500059 0.201604 -0.347863
N2    N     N_2   0.742185 0.434314 0.877124 -0.249317
N3    N     N_R   0.503056 0.493250 0.798489 -0.348935
N4    N     N_R   0.500000 0.750030 0.500000 -0.103989
N5    N     N_R   0.500000 0.249970 0.500000 -0.105226
N6    N     N_2   0.908767 0.765425 0.493515 -0.311982
N7    N     N_2   0.091228 0.234716 0.494220 -0.319868
N8    N     N_2   0.519619 0.674931 0.252081 -0.296980
N9    N     N_2   0.476410 0.670321 0.748511 -0.297218
N10   N     N_2   0.245064 0.482950 0.124211 -0.249389
O1    O     O_R   0.367850 0.580280 0.500010 -0.629489
O2    O     O_2   0.657648 0.471862 0.797520 -0.533767
O3    O     O_2   0.347845 0.514027 0.796219 -0.565508
O4    O     O_2   0.646740 0.513409 0.202975 -0.566728
O5    O     O_R   0.632150 0.419720 0.499990 -0.629175
O6    O     O_R   0.632150 0.580280 0.499990 -0.630273
O7    O     O_R   0.367850 0.419720 0.500010 -0.630821
O8    O     O_R   0.500010 0.580260 0.428760 -0.622320
O9    O     O_R   0.499990 0.419740 0.571240 -0.623709
O10   O     O_R   0.499990 0.580260 0.571240 -0.620360
O11   O     O_R   0.500010 0.419740 0.428760 -0.623537
O12   O     O_2   0.336092 0.481601 0.203655 -0.535128
Zn1   Zn    Zn3+2 0.500000 0.607200 0.500000 0.951653
Zn2   Zn    Zn3+2 0.500000 0.392800 0.500000 0.950374

loop_
_geom_bond_atom_site_label_1
_geom_bond_atom_site_label_2
_ccdc_geom_bond_type
C44   C49   A    
C41   H13   S    
C63   C65   A    
C34   C56   A    
C23   C45   A    
C12   C22   S    
C27   C29   A    
C23   C76   A    
C42   O12   S    
C35   N7    S    
C71   N8    S    
C60   H12   S    
C2    C57   A    
C47   C49   A    
C27   C33   A    
C48   C54   A    
C71   H21   S    
C4    C63   A    
H48   N6    S    
C29   C30   A    
C39   N5    A    
C16   O11   A    
C38   N4    A    
C40   H11   S    
C57   N3    A    
C35   C37   A    
C24   C26   A    
H31   N2    S    
C5    C11   A    
C19   H43   S    
C51   H14   S    
C11   C14   A    
C71   H19   S    
C72   H25   S    
C36   H7    S    
C58   C60   A    
C46   C52   A    
C33   C36   A    
C66   N1    S    
C57   O3    S    
C43   O2    S    
C75   N2    S    
C21   H46   S    
C70   H5    S    
C54   H17   S    
C62   C64   A    
C58   C66   A    
O7    Zn2   S    
C74   N2    S    
C28   C35   A    
C61   H1    S    
C22   C25   A    
C45   C67   A    
C70   N7    S    
C41   C46   A    
C37   H8    S    
C18   H42   S    
O9    Zn2   S    
C47   C53   A    
C3    C60   A    
C2    C34   A    
C48   C50   A    
C15   C76   A    
C69   H49   S    
C56   C75   A    
O1    Zn1   S    
C69   H2    S    
C74   H33   S    
C2    C14   A    
O5    Zn2   S    
C73   H28   S    
H3    N7    S    
C21   C32   A    
C64   N8    S    
C59   C61   A    
C38   H9    S    
C70   H4    S    
C43   N3    A    
O11   Zn2   S    
C74   H35   S    
C41   N5    A    
C72   N9    S    
C71   H20   S    
C18   C67   A    
C14   H38   S    
C4    C61   A    
C8    C18   A    
C55   O4    S    
C31   C37   A    
C42   C45   A    
C64   C66   A    
C17   O9    A    
H27   N10   S    
C5    C9    A    
O8    Zn1   S    
C1    O7    A    
C59   C68   A    
C58   H37   S    
O10   Zn1   S    
C73   H29   S    
C73   N10   S    
C65   C68   A    
N4    Zn1   S    
C59   H36   S    
C11   H40   S    
C38   C47   A    
C65   N9    S    
C42   N1    A    
C55   C76   A    
C44   C51   A    
C55   N1    A    
C69   H50   S    
C7    C19   A    
C13   C15   A    
C9    C34   A    
C15   H39   S    
C26   H47   S    
C4    C17   S    
C32   C36   A    
C20   H44   S    
C1    O1    A    
C52   C53   A    
C33   N6    S    
C72   H24   S    
C3    C62   A    
C7    C9    A    
C40   N4    A    
C16   O8    A    
C20   C22   A    
N5    Zn2   S    
C6    C10   A    
C5    C8    A    
C13   H41   S    
C6    C7    A    
C10   C23   A    
C25   C27   A    
C46   C50   A    
C26   C28   A    
C51   C54   A    
C63   H34   S    
C28   C30   A    
C67   N10   S    
C29   C31   A    
C6    C13   A    
C30   C32   A    
C73   H30   S    
C72   H26   S    
C69   N6    S    
H22   N9    S    
C19   C75   A    
H18   N8    S    
O6    Zn1   S    
C12   O6    A    
C17   O10   A    
C53   H16   S    
C12   O5    A    
C68   N3    S    
C70   H6    S    
C74   H32   S    
C62   H23   S    
C43   C56   A    
C40   C44   A    
C1    C24   S    
C8    C10   A    
C49   C50   A    
C21   C24   A    
C52   H15   S    
C39   H10   S    
C25   H45   S    
C3    C16   S    
C39   C48   A    
C20   C31   A    
