data_mof_unit_51263.cif
_audit_creation_date              2012-12-10T17:57:50-0500
_audit_creation_method            fapswitch 2.2
_symmetry_space_group_name_H-M    P1
_symmetry_Int_Tables_number       1
_space_group_crystal_system       triclinic
_cell_length_a                    10.961972
_cell_length_b                    9.839305
_cell_length_c                    15.099957
_cell_angle_alpha                 90.506626
_cell_angle_beta                  95.644708
_cell_angle_gamma                 88.728113
_cell_volume                      1620.32093543

loop_
_atom_site_label
_atom_site_type_symbol
_atom_type_description
_atom_site_fract_x
_atom_site_fract_y
_atom_site_fract_z
_atom_type_partial_charge
C1    C     C_R   0.263555 0.501579 0.501108 0.823865
C2    C     C_R   0.737182 0.498642 0.498430 0.836353
C3    C     C_R   0.347145 0.326246 0.032376 0.069018
C4    C     C_R   0.668703 0.665768 0.970002 0.092422
C5    C     C_R   0.073462 0.393723 0.537765 0.114509
C6    C     C_R   0.929409 0.612522 0.464473 0.100107
C7    C     C_R   0.946589 0.385085 0.528913 0.060742
C8    C     C_R   0.057855 0.614978 0.466071 0.067002
C9    C     C_R   0.872154 0.497163 0.496169 -0.115164
C10   C     C_R   0.129861 0.504472 0.502095 -0.100350
C11   C     C_R   0.424473 0.074787 0.438720 0.217588
C12   C     C_R   0.559898 0.927442 0.568824 0.180930
C13   C     C_R   0.566283 0.073664 0.566346 0.202108
C14   C     C_R   0.432383 0.927802 0.434260 0.206577
C15   C     C_R   0.495123 0.499465 0.329384 0.859381
C16   C     C_R   0.508213 0.500181 0.670979 0.804700
C17   C     C_R   0.615940 0.549553 0.824890 0.085197
C18   C     C_R   0.396551 0.445507 0.175845 0.075470
C19   C     C_R   0.514728 0.498061 0.768919 -0.143950
C20   C     C_R   0.494729 0.499167 0.232416 -0.087649
C21   C     C_R   0.417929 0.436365 0.807479 0.082830
C22   C     C_R   0.594329 0.557883 0.196414 0.081352
C23   C     C_R   0.424886 0.418892 0.900112 0.097834
C24   C     C_R   0.591665 0.573241 0.103080 0.050539
C25   C     C_R   0.511087 0.494442 0.954851 -0.093202
C26   C     C_R   0.505900 0.497103 0.047811 -0.079410
C27   C     C_R   0.600605 0.569525 0.916450 0.044511
C28   C     C_R   0.414970 0.422843 0.085516 0.058548
C29   C     C_R   0.348504 0.327653 0.939357 0.140213
C30   C     C_R   0.669307 0.662855 0.063316 0.119951
Cu1   Cu    Cu3+1 0.500000 0.640660 0.500000 0.930816
Cu2   Cu    Cu3+1 0.500000 0.359340 0.500000 0.914725
N1    N     N_R   0.500000 0.852070 0.500000 -0.219221
N2    N     N_R   0.500000 0.147930 0.500000 -0.228516
O1    O     O_R   0.319640 0.618740 0.499990 -0.576244
O2    O     O_R   0.680360 0.381260 0.500010 -0.624950
O3    O     O_R   0.680360 0.618740 0.500010 -0.550806
O4    O     O_R   0.319640 0.381260 0.499990 -0.565676
O5    O     O_R   0.499970 0.618800 0.370260 -0.570535
O6    O     O_R   0.500030 0.381200 0.629740 -0.584623
O7    O     O_R   0.500030 0.618800 0.629740 -0.586441
O8    O     O_R   0.499970 0.381200 0.370260 -0.610172
C31   C     C_3   0.740419 0.579763 0.791766 -0.353906
C32   C     C_3   0.795783 0.467503 0.737886 -0.932837
H1    H     H_    0.813451 0.374501 0.778509 0.257972
H2    H     H_    0.736448 0.446410 0.676672 0.245863
H3    H     H_    0.885165 0.500956 0.717820 0.249920
H4    H     H_    0.736273 0.675530 0.754993 0.208251
H5    H     H_    0.811091 0.592426 0.848739 0.232427
C33   C     C_3   0.269260 0.425995 0.206766 -0.374481
C34   C     C_3   0.218218 0.549304 0.253756 -0.911541
H6    H     H_    0.261220 0.556333 0.322621 0.250928
H7    H     H_    0.231752 0.643874 0.216816 0.257775
H8    H     H_    0.118312 0.537539 0.257650 0.246036
H9    H     H_    0.200516 0.409660 0.149038 0.234181
H10   H     H_    0.268910 0.335651 0.248850 0.209588
N3    N     N_3   0.309293 0.396995 0.753351 -0.561979
H11   H     H_    0.331243 0.316317 0.712149 0.266689
H12   H     H_    0.275406 0.479606 0.714576 0.211859
N4    N     N_3   0.699103 0.593663 0.256147 -0.575985
H13   H     H_    0.779155 0.556851 0.231084 0.229792
H14   H     H_    0.701406 0.698864 0.264237 0.258272
N5    N     N_3   0.278060 0.230991 0.885178 -0.575601
H15   H     H_    0.185506 0.244347 0.895057 0.220865
H16   H     H_    0.307020 0.132599 0.903939 0.208070
N6    N     N_3   0.742578 0.757690 0.116741 -0.637438
H17   H     H_    0.714617 0.856807 0.099051 0.222383
H18   H     H_    0.834496 0.742664 0.105503 0.213565
N7    N     N_3   0.287253 0.218599 0.073828 -0.628664
H19   H     H_    0.328979 0.125860 0.058711 0.220689
H20   H     H_    0.195024 0.217327 0.048588 0.209182
N8    N     N_3   0.725428 0.776178 0.928944 -0.638320
H21   H     H_    0.818003 0.779384 0.953084 0.212027
H22   H     H_    0.682080 0.867446 0.945175 0.221936
N9    N     N_3   0.145295 0.292060 0.588492 -0.563210
H23   H     H_    0.116987 0.292026 0.652631 0.237727
H24   H     H_    0.126386 0.196385 0.560833 0.247750
N10   N     N_3   0.856941 0.726635 0.429073 -0.555322
H25   H     H_    0.876809 0.744333 0.363998 0.210119
H26   H     H_    0.879647 0.812528 0.467940 0.212972
N11   N     N_3   0.898389 0.261973 0.558839 -0.630648
H27   H     H_    0.839682 0.217335 0.508753 0.251229
H28   H     H_    0.858684 0.282986 0.617084 0.223540
N12   N     N_3   0.115332 0.730126 0.431403 -0.601623
H29   H     H_    0.092366 0.817228 0.466757 0.219803
H30   H     H_    0.083893 0.742337 0.364316 0.208764
C35   C     C_3   0.328711 0.147997 0.375309 -0.339372
C36   C     C_3   0.195654 0.122151 0.393404 -0.887897
H31   H     H_    0.143291 0.079969 0.333054 0.232222
H32   H     H_    0.190770 0.050656 0.449363 0.248328
H33   H     H_    0.148288 0.219109 0.408289 0.267281
H34   H     H_    0.338529 0.256207 0.378445 0.262674
H35   H     H_    0.341923 0.122580 0.305426 0.175069
C37   C     C_3   0.608734 0.858371 0.653319 -0.298115
C38   C     C_3   0.506855 0.852950 0.717577 -0.739785
H36   H     H_    0.480902 0.952569 0.743603 0.219553
H37   H     H_    0.419060 0.815519 0.684434 0.262305
H38   H     H_    0.537359 0.790231 0.776035 0.242139
H39   H     H_    0.650517 0.761290 0.635039 0.223410
H40   H     H_    0.690471 0.904951 0.688255 0.155527
C39   C     C_3   0.652391 0.145500 0.636036 -0.368681
C40   C     C_3   0.608084 0.160803 0.729044 -0.803580
H41   H     H_    0.506724 0.168180 0.725192 0.267822
H42   H     H_    0.644882 0.078542 0.774280 0.235930
H43   H     H_    0.643000 0.254803 0.761527 0.245434
H44   H     H_    0.744873 0.096568 0.640543 0.155520
H45   H     H_    0.667138 0.246396 0.613966 0.260732
C41   C     C_3   0.366129 0.857651 0.354109 -0.330541
C42   C     C_3   0.442378 0.858032 0.274120 -0.807734
H46   H     H_    0.436303 0.957647 0.240327 0.223665
H47   H     H_    0.540451 0.836789 0.295427 0.272222
H48   H     H_    0.408380 0.780604 0.224521 0.242111
H49   H     H_    0.338477 0.756607 0.371748 0.256980
H50   H     H_    0.275525 0.902455 0.332633 0.187784

loop_
_geom_bond_atom_site_label_1
_geom_bond_atom_site_label_2
_ccdc_geom_bond_type
C39   H45   S    
N6    H18   S    
C35   C36   S    
N5    H16   S    
C39   C40   S    
C38   H36   S    
C31   C32   S    
C6    C9    A    
C29   N5    S    
N11   H27   S    
C38   H38   S    
C1    O1    A    
Cu2   O2    S    
C3    C28   A    
C3    N7    S    
C24   C26   A    
C42   H47   S    
C22   N4    S    
C11   C14   A    
N10   H26   S    
C6    N10   S    
C41   C42   S    
C40   H43   S    
N4    H14   S    
C41   H50   S    
C3    C29   A    
C11   C35   S    
Cu1   N1    S    
Cu2   O4    S    
C31   H4    S    
C18   C20   A    
C32   H3    S    
C14   C41   S    
N6    H17   S    
C35   H34   S    
C12   C37   S    
C40   H41   S    
C14   N1    A    
N11   H28   S    
C32   H2    S    
C15   C20   S    
N7    H20   S    
C34   H6    S    
C17   C27   A    
C18   C28   A    
N12   H29   S    
N8    H22   S    
C42   H48   S    
C5    C7    A    
N10   H25   S    
C31   H5    S    
C6    C8    A    
C25   C26   A    
C33   H10   S    
Cu1   O3    S    
N4    H13   S    
C34   H7    S    
Cu2   N2    S    
C41   H49   S    
C5    N9    S    
N9    H23   S    
C17   C31   S    
C21   N3    S    
Cu1   Cu2   S    
C36   H33   S    
C37   H40   S    
C33   C34   S    
C37   C38   S    
C12   C13   A    
C40   H42   S    
N9    H24   S    
C15   O5    A    
C30   N6    S    
C1    O4    A    
C16   O6    A    
C7    N11   S    
C20   C22   A    
C21   C23   A    
C22   C24   A    
C13   C39   S    
C23   C29   A    
C4    N8    S    
C4    C27   A    
C32   H1    S    
C18   C33   S    
C2    O2    A    
C39   H44   S    
C7    C9    A    
Cu1   O7    S    
C19   C21   A    
C8    N12   S    
C11   N2    A    
C1    C10   S    
C15   O8    A    
C36   H32   S    
N8    H21   S    
C38   H37   S    
C25   C27   A    
C26   C28   A    
C33   H9    S    
C34   H8    S    
C13   N2    A    
C42   H46   S    
C2    O3    A    
N3    H11   S    
C37   H39   S    
C16   C19   S    
C35   H35   S    
C17   C19   A    
Cu1   O5    S    
Cu1   O1    S    
Cu2   O6    S    
N7    H19   S    
C24   C30   A    
N3    H12   S    
N5    H15   S    
C5    C10   A    
C23   C25   A    
C36   H31   S    
C8    C10   A    
Cu2   O8    S    
N12   H30   S    
C12   N1    A    
C2    C9    S    
C16   O7    A    
C4    C30   A    
