data_mof_unit_18165.cif
_audit_creation_date              2012-10-26T19:21:03-0400
_audit_creation_method            fapswitch 2.2
_symmetry_space_group_name_H-M    P1
_symmetry_Int_Tables_number       1
_space_group_crystal_system       triclinic
_cell_length_a                    9.792242
_cell_length_b                    11.052757
_cell_length_c                    13.410465
_cell_angle_alpha                 94.292287
_cell_angle_beta                  81.803043
_cell_angle_gamma                 111.451657
_cell_volume                      1336.67889781

loop_
_atom_site_label
_atom_site_type_symbol
_atom_type_description
_atom_site_fract_x
_atom_site_fract_y
_atom_site_fract_z
_atom_type_partial_charge
C1    C     C_R   0.556642 0.745688 0.508172 0.545021
C2    C     C_R   0.383593 0.506869 0.802090 -0.005937
C3    C     C_2   0.589723 0.885618 0.514459 0.255852
C4    C     C_R   0.425037 0.497867 0.691269 0.556820
C5    C     C_2   0.488069 0.931756 0.494398 -0.130931
C6    C     C_2   0.411855 0.115235 0.486604 -0.142118
C7    C     C_2   0.518041 0.070667 0.497284 -0.142957
C8    C     C_2   0.922190 0.489787 0.491444 -0.017604
C9    C     C_2   0.077772 0.510135 0.508644 -0.012423
C10   C     C_R   0.443416 0.254405 0.492121 0.572039
C11   C     C_R   0.579575 0.523194 0.310500 0.534596
C12   C     C_R   0.452509 0.540882 0.974621 0.058777
C13   C     C_R   0.816164 0.598277 0.058543 -0.135415
C14   C     C_R   0.628974 0.557021 0.204001 -0.037438
C15   C     C_R   0.232576 0.454212 0.842642 0.263987
C16   C     C_R   0.194528 0.438448 0.946608 -0.119197
C17   C     C_R   0.302399 0.477746 0.011129 -0.114064
C18   C     C_3   0.732342 0.976552 0.639343 -0.115053
C19   C     C_2   0.434607 0.653945 0.192168 0.211546
C20   C     C_3   0.034486 0.479318 0.788724 -0.113174
C21   C     C_R   0.494125 0.557944 0.869375 -0.024173
C22   C     C_R   0.564264 0.576146 0.039788 0.074045
C23   C     C_R   0.712463 0.601995 0.997916 0.033169
C24   C     C_R   0.753955 0.634032 0.896946 -0.140882
C25   C     C_R   0.646370 0.622713 0.835689 -0.119379
C26   C     C_R   0.534449 0.584029 0.145465 -0.008150
C27   C     C_R   0.771107 0.565925 0.159674 -0.137190
Cu1   Cu    Cu3+1 0.362000 0.479240 0.482530 0.956506
Cu2   Cu    Cu3+1 0.638000 0.520760 0.517470 0.936952
H1    H     H_    0.848704 0.552672 0.203874 0.143060
H2    H     H_    0.267149 0.454419 0.089792 0.139074
H3    H     H_    0.080293 0.389735 0.977383 0.123988
H4    H     H_    0.686182 0.663406 0.761966 0.140775
H5    H     H_    0.627923 0.137451 0.509661 0.201151
H6    H     H_    0.717934 0.880931 0.669387 0.117834
H7    H     H_    0.647240 0.013638 0.679392 0.113331
H8    H     H_    0.842103 0.046201 0.655454 0.163672
H9    H     H_    0.418048 0.670120 0.272823 0.151433
H10   H     H_    0.102094 0.583344 0.773630 0.096709
H11   H     H_    0.967420 0.469731 0.863900 0.110455
H12   H     H_    0.379998 0.866135 0.477045 0.116466
H13   H     H_    0.956139 0.444354 0.731635 0.147189
H14   H     H_    0.301613 0.049086 0.474324 0.118180
H15   H     H_    0.127501 0.579084 0.566940 0.140867
H16   H     H_    0.872376 0.420597 0.433290 0.151402
H17   H     H_    0.105193 0.383856 0.400855 0.209169
H18   H     H_    0.895465 0.617444 0.598270 0.190582
H19   H     H_    0.869506 0.669775 0.865708 0.093563
H20   H     H_    0.929207 0.613748 0.026713 0.119167
N1    N     N_2   0.845330 0.551960 0.543750 -0.355297
N2    N     N_2   0.154690 0.448120 0.456210 -0.344255
O1    O     O_R   0.426290 0.668220 0.490680 -0.549618
O2    O     O_2   0.378291 0.704440 0.140311 -0.516665
O3    O     O_3   0.123283 0.402336 0.779918 -0.541637
O4    O     O_R   0.659360 0.703290 0.520190 -0.471637
O5    O     O_R   0.326580 0.473880 0.629020 -0.436158
O6    O     O_R   0.559660 0.508940 0.658530 -0.517833
O7    O     O_R   0.340640 0.296710 0.479810 -0.469091
O8    O     O_R   0.573710 0.331780 0.509320 -0.496488
O9    O     O_R   0.440340 0.491060 0.341470 -0.516277
O10   O     O_R   0.673420 0.526120 0.370980 -0.489994
O11   O     O_3   0.728849 0.969061 0.534238 -0.566340

loop_
_geom_bond_atom_site_label_1
_geom_bond_atom_site_label_2
_ccdc_geom_bond_type
C4    O6    A    
C6    C10   S    
C13   C27   A    
C2    C4    S    
C23   C24   A    
C6    C7    D    
C19   H9    S    
Cu1   O7    S    
C14   C27   A    
C16   H3    S    
C20   H10   S    
C18   H6    S    
C20   H13   S    
C9    N2    D    
Cu2   N1    S    
C19   O2    D    
C2    C21   A    
C10   O8    A    
Cu1   O5    S    
C3    C5    D    
C4    O5    A    
C27   H1    S    
C2    C15   A    
Cu1   O1    S    
C16   C17   A    
C13   H20   S    
H17   N2    S    
Cu1   Cu2   S    
C10   O7    A    
C18   H8    S    
Cu2   O6    S    
H18   N1    S    
C6    H14   S    
Cu1   O9    S    
C1    O4    A    
C20   H11   S    
Cu1   N2    S    
Cu2   O10   S    
C3    O11   S    
C15   C16   A    
C11   O9    A    
C24   H19   S    
C15   O3    S    
C8    N1    D    
C12   C17   A    
C12   C22   A    
C24   C25   A    
C13   C23   A    
C20   O3    S    
C22   C26   A    
C7    H5    S    
C11   C14   S    
C5    C7    S    
C19   C26   S    
C5    H12   S    
C22   C23   A    
C18   O11   S    
C9    H15   S    
C21   C25   A    
Cu2   O4    S    
C11   O10   A    
C8    H16   S    
C1    O1    A    
C18   H7    S    
C12   C21   A    
C14   C26   A    
C17   H2    S    
Cu2   O8    S    
C25   H4    S    
C8    C9    S    
C1    C3    S    
