data_mof_unit_15659.cif
_audit_creation_date              2012-12-10T17:33:18-0500
_audit_creation_method            fapswitch 2.2
_symmetry_space_group_name_H-M    P1
_symmetry_Int_Tables_number       1
_space_group_crystal_system       triclinic
_cell_length_a                    12.060884
_cell_length_b                    12.861399
_cell_length_c                    13.661197
_cell_angle_alpha                 91.361809
_cell_angle_beta                  79.618487
_cell_angle_gamma                 93.041149
_cell_volume                      2081.27874608

loop_
_atom_site_label
_atom_site_type_symbol
_atom_type_description
_atom_site_fract_x
_atom_site_fract_y
_atom_site_fract_z
_atom_type_partial_charge
C1    C     C_R   0.522130 0.700260 0.497800 0.885506
C2    C     C_R   0.149236 0.464213 0.454823 -0.082262
C3    C     C_R   0.969997 0.531389 0.538641 -0.041719
C4    C     C_R   0.030768 0.470304 0.462028 -0.055715
C5    C     C_R   0.480038 0.500587 0.686672 0.909559
C6    C     C_R   0.519508 0.498779 0.313458 0.899614
C7    C     C_1   0.533124 0.498495 0.209552 -0.134500
C8    C     C_1   0.463554 0.496216 0.790785 -0.107787
C9    C     C_2   0.544243 0.498823 0.018034 0.299925
C10   C     C_2   0.446910 0.488167 0.982917 0.275354
C11   C     C_1   0.451422 0.491992 0.878827 0.024150
C12   C     C_R   0.478095 0.299686 0.501306 0.878053
C13   C     C_1   0.541349 0.498435 0.121770 0.014890
C14   C     C_R   0.465502 0.188374 0.499247 -0.047860
C15   C     C_R   0.535999 0.811466 0.496912 -0.051858
C16   C     C_R   0.636968 0.969304 0.534225 -0.205089
C17   C     C_R   0.365860 0.030641 0.459409 -0.206284
C18   C     C_R   0.630439 0.861792 0.526796 -0.188150
C19   C     C_R   0.371092 0.138070 0.469254 -0.183566
C20   C     C_R   0.450348 0.867611 0.470743 -0.279039
C21   C     C_R   0.553056 0.132264 0.522065 -0.269690
C22   C     C_3   0.217052 0.752211 0.642756 -0.713026
C23   C     C_R   0.454667 0.974399 0.480260 0.183620
C24   C     C_3   0.828975 0.402751 0.230168 -0.607629
C25   C     C_3   0.035531 0.245053 0.342811 -0.730234
C26   C     C_3   0.940661 0.595177 0.776176 -0.579328
C27   C     C_R   0.548664 0.025547 0.512436 0.182806
C28   C     C_R   0.971453 0.415744 0.395356 0.116017
C29   C     C_R   0.030987 0.587345 0.604271 0.067385
C30   C     C_R   0.853455 0.424039 0.405033 0.306074
C31   C     C_R   0.150082 0.581863 0.590585 0.327196
C32   C     C_R   0.850301 0.533539 0.547745 -0.084302
H1    H     H_    0.625343 0.171685 0.546478 0.166460
H2    H     H_    0.770494 0.598467 0.042915 0.352997
H3    H     H_    0.197183 0.617113 0.726348 0.219308
H4    H     H_    0.294552 0.786469 0.666505 0.241727
H5    H     H_    0.142829 0.785868 0.690552 0.240151
H6    H     H_    0.218724 0.773594 0.564183 0.228932
H7    H     H_    0.718490 0.337842 0.354447 0.261135
H8    H     H_    0.753647 0.426549 0.202083 0.243653
H9    H     H_    0.864004 0.335757 0.184290 0.260358
H10   H     H_    0.892748 0.469126 0.220927 0.242936
H11   H     H_    0.102308 0.385314 0.277445 0.279596
H12   H     H_    0.379283 0.828082 0.444609 0.161606
H13   H     H_    0.074595 0.200624 0.275899 0.259423
H14   H     H_    0.949879 0.209442 0.370090 0.246622
H15   H     H_    0.088177 0.239684 0.401231 0.219661
H16   H     H_    0.914409 0.695228 0.665715 0.226480
H17   H     H_    0.905684 0.650946 0.835546 0.271475
H18   H     H_    0.013447 0.559217 0.799123 0.222248
H19   H     H_    0.875380 0.533219 0.767612 0.291677
H20   H     H_    0.303315 0.181738 0.451052 0.160612
H21   H     H_    0.697214 0.818127 0.546860 0.162202
H22   H     H_    0.709493 0.008160 0.558499 0.146995
H23   H     H_    0.293288 0.991777 0.435221 0.145437
H24   H     H_    0.197605 0.415244 0.399495 0.167712
H25   H     H_    0.801113 0.577948 0.606549 0.168886
H26   H     H_    0.208437 0.529902 0.963169 0.349914
N1    N     N_R   0.206090 0.519450 0.517820 -0.130485
N2    N     N_R   0.793910 0.480550 0.482180 -0.139603
N3    N     N_2   0.213183 0.640260 0.653256 -0.255109
N4    N     N_2   0.797789 0.371466 0.333201 -0.315217
N5    N     N_2   0.028346 0.352520 0.316930 -0.286797
N6    N     N_2   0.975467 0.649774 0.683667 -0.351597
O1    O     O_R   0.421240 0.658850 0.504760 -0.598455
O2    O     O_2   0.291954 0.560957 0.131423 -0.318029
O3    O     O_3   0.210495 0.459682 0.990872 -0.511480
O4    O     O_2   0.698597 0.423862 0.872070 -0.277917
O5    O     O_2   0.679272 0.612489 0.879177 -0.353419
O6    O     O_3   0.780643 0.529749 0.009102 -0.544242
O7    O     O_R   0.578760 0.341150 0.495240 -0.645792
O8    O     O_R   0.609960 0.646370 0.493320 -0.624647
O9    O     O_R   0.390040 0.353630 0.506680 -0.622084
O10   O     O_R   0.392060 0.507120 0.646890 -0.611957
O11   O     O_R   0.607940 0.492880 0.353110 -0.629748
O12   O     O_R   0.580780 0.494630 0.635450 -0.587201
O13   O     O_R   0.419220 0.505370 0.364550 -0.585983
O14   O     O_2   0.309677 0.372433 0.118875 -0.281711
S1    S     S_3+6 0.312646 0.470224 0.060205 0.014498
S2    S     S_3+6 0.677914 0.516758 0.940514 -0.017667
Zn1   Zn    Zn3+2 0.373990 0.508340 0.507630 0.977927
Zn2   Zn    Zn3+2 0.626010 0.491660 0.492370 0.956397

loop_
_geom_bond_atom_site_label_1
_geom_bond_atom_site_label_2
_ccdc_geom_bond_type
O4    S2    D    
C15   C18   A    
C24   H10   S    
C31   N3    S    
H11   N5    S    
C6    O11   A    
O2    S1    D    
C17   C23   A    
C14   C21   A    
C26   H18   S    
H16   N6    S    
C21   H1    S    
C22   H6    S    
C25   N5    S    
C31   N1    A    
C5    O10   A    
C3    C29   A    
C26   N6    S    
C9    C13   S    
C18   H21   S    
C17   C19   A    
N2    Zn2   S    
C19   H20   S    
C30   N2    A    
C1    O1    A    
C1    C15   S    
C23   C27   A    
C9    C10   D    
H2    O6    S    
O7    Zn2   S    
C16   C27   A    
C21   C27   A    
C29   N6    S    
C12   O9    A    
C24   H9    S    
C32   H25   S    
O9    Zn1   S    
C20   H12   S    
C15   C20   A    
C1    O8    A    
O6    S2    S    
O3    S1    S    
C26   H17   S    
O12   Zn2   S    
C2    N1    A    
C6    O13   A    
C22   H5    S    
C9    S2    S    
C2    C4    A    
O1    Zn1   S    
C20   C23   A    
O13   Zn1   S    
H3    N3    S    
C12   O7    A    
C12   C14   S    
C30   N4    S    
C32   N2    A    
O10   Zn1   S    
C3    C4    A    
C25   H13   S    
H7    N4    S    
C17   H23   S    
C25   H15   S    
C24   N4    S    
O14   S1    D    
C14   C19   A    
N1    Zn1   S    
C5    C8    S    
C10   S1    S    
O11   Zn2   S    
C6    C7    S    
C22   H4    S    
C5    O12   A    
C28   C30   A    
C29   C31   A    
C2    H24   S    
C26   H19   S    
C22   N3    S    
C8    C11   T    
C24   H8    S    
C3    C32   A    
C16   H22   S    
C10   C11   S    
C28   N5    S    
H26   O3    S    
C7    C13   T    
C16   C18   A    
C4    C28   A    
O5    S2    D    
C25   H14   S    
O8    Zn2   S    
