data_mof_unit_19222.cif
_audit_creation_date              2012-12-11T16:26:05-0500
_audit_creation_method            fapswitch 2.2
_symmetry_space_group_name_H-M    P1
_symmetry_Int_Tables_number       1
_space_group_crystal_system       triclinic
_cell_length_a                    14.013083
_cell_length_b                    14.01309
_cell_length_c                    32.057432
_cell_angle_alpha                 89.999982
_cell_angle_beta                  89.999891
_cell_angle_gamma                 120.000401
_cell_volume                      5451.61543143

loop_
_atom_site_label
_atom_site_type_symbol
_atom_type_description
_atom_site_fract_x
_atom_site_fract_y
_atom_site_fract_z
_atom_type_partial_charge
C1    C     C_R   0.569053 0.443414 0.810797 0.539758
C2    C     C_R   0.875361 0.431703 0.689341 0.545165
C3    C     C_R   0.556586 0.125639 0.810797 0.539757
C4    C     C_R   0.568297 0.443658 0.689341 0.545167
C5    C     C_R   0.874361 0.430947 0.810797 0.539757
C6    C     C_R   0.556342 0.124639 0.689341 0.545166
C7    C     C_R   0.443414 0.569053 0.310797 0.539762
C8    C     C_R   0.431706 0.875365 0.189342 0.545173
C9    C     C_R   0.125639 0.556586 0.310797 0.539761
C10   C     C_R   0.443658 0.568295 0.189342 0.545175
C11   C     C_R   0.430947 0.874361 0.310797 0.539761
C12   C     C_R   0.124636 0.556341 0.189342 0.545175
C13   C     C_1   0.998363 0.534111 0.019497 0.039321
C14   C     C_1   0.526109 0.980788 0.482676 0.055995
C15   C     C_1   0.465867 0.464240 0.019495 0.039319
C16   C     C_1   0.019217 0.545324 0.482677 0.055995
C17   C     C_1   0.535765 0.001665 0.019499 0.039315
C18   C     C_1   0.454677 0.473891 0.482677 0.055995
C19   C     C_1   0.534162 0.998379 0.519494 0.039323
C20   C     C_1   0.980775 0.526063 0.982679 0.056038
C21   C     C_1   0.464215 0.465839 0.519495 0.039322
C22   C     C_1   0.545303 0.019249 0.982681 0.056031
C23   C     C_1   0.001626 0.535786 0.519495 0.039322
C24   C     C_1   0.473915 0.454701 0.982677 0.056036
C25   C     C_R   0.915286 0.459505 0.853681 -0.047748
C26   C     C_R   0.540889 0.073094 0.647991 -0.050056
C27   C     C_R   0.540490 0.455782 0.853681 -0.047752
C28   C     C_R   0.926908 0.467796 0.647991 -0.050057
C29   C     C_R   0.544220 0.084719 0.853682 -0.047749
C30   C     C_R   0.532204 0.459111 0.647991 -0.050056
C31   C     C_R   0.459516 0.915298 0.353680 -0.047755
C32   C     C_R   0.073074 0.540884 0.147995 -0.050058
C33   C     C_R   0.455781 0.540484 0.353680 -0.047754
C34   C     C_R   0.467815 0.926934 0.147996 -0.050062
C35   C     C_R   0.084703 0.544219 0.353680 -0.047754
C36   C     C_R   0.459113 0.532193 0.147994 -0.050057
C37   C     C_R   0.968062 0.568595 0.867899 -0.095205
C38   C     C_R   0.622188 0.054029 0.631007 -0.098656
C39   C     C_R   0.431399 0.399470 0.867897 -0.095201
C40   C     C_R   0.945972 0.568161 0.631007 -0.098656
C41   C     C_R   0.600527 0.031937 0.867901 -0.095205
C42   C     C_R   0.431838 0.377811 0.631007 -0.098656
C43   C     C_R   0.568608 0.968049 0.367896 -0.095210
C44   C     C_R   0.054138 0.622251 0.130993 -0.098651
C45   C     C_R   0.399442 0.431392 0.367897 -0.095209
C46   C     C_R   0.568128 0.945893 0.130997 -0.098651
C47   C     C_R   0.031951 0.600558 0.367897 -0.095209
C48   C     C_R   0.377767 0.431870 0.130998 -0.098645
C49   C     C_R   0.991582 0.591470 0.910344 0.288058
C50   C     C_R   0.618621 0.026446 0.588975 0.250070
C51   C     C_R   0.408518 0.400112 0.910341 0.288072
C52   C     C_R   0.973557 0.592177 0.588975 0.250071
C53   C     C_R   0.599887 0.008424 0.910345 0.288058
C54   C     C_R   0.407822 0.381379 0.588976 0.250071
C55   C     C_R   0.591494 0.991570 0.410340 0.288029
C56   C     C_R   0.026557 0.618671 0.088961 0.250031
C57   C     C_R   0.400076 0.408506 0.410340 0.288030
C58   C     C_R   0.592134 0.973486 0.088966 0.250044
C59   C     C_R   0.008432 0.599924 0.410340 0.288028
C60   C     C_R   0.381342 0.407866 0.088966 0.250038
C61   C     C_R   0.957611 0.504260 0.939013 0.013286
C62   C     C_R   0.533933 0.019208 0.563320 -0.006472
C63   C     C_R   0.495724 0.453347 0.939012 0.013290
C64   C     C_R   0.980796 0.514727 0.563321 -0.006472
C65   C     C_R   0.546660 0.042407 0.939015 0.013281
C66   C     C_R   0.485274 0.466068 0.563321 -0.006473
C67   C     C_R   0.504292 0.957627 0.439011 0.013247
C68   C     C_R   0.019182 0.533894 0.063324 -0.006468
C69   C     C_R   0.453333 0.495708 0.439011 0.013248
C70   C     C_R   0.514727 0.980846 0.063327 -0.006472
C71   C     C_R   0.042377 0.546667 0.439012 0.013246
C72   C     C_R   0.466091 0.485283 0.063322 -0.006470
C73   C     C_R   0.903557 0.394059 0.924906 -0.036239
C74   C     C_R   0.449164 0.034009 0.580408 -0.044865
C75   C     C_R   0.605927 0.509497 0.924906 -0.036245
C76   C     C_R   0.965996 0.415158 0.580409 -0.044865
C77   C     C_R   0.490519 0.096466 0.924907 -0.036237
C78   C     C_R   0.584844 0.550837 0.580409 -0.044864
C79   C     C_R   0.394089 0.903607 0.424906 -0.036266
C80   C     C_R   0.033843 0.449056 0.080431 -0.044856
C81   C     C_R   0.509515 0.605912 0.424906 -0.036265
C82   C     C_R   0.415220 0.966168 0.080432 -0.044855
C83   C     C_R   0.096398 0.490486 0.424906 -0.036264
C84   C     C_R   0.550909 0.584804 0.080423 -0.044857
C85   C     C_R   0.885360 0.373276 0.882206 -0.090254
C86   C     C_R   0.452860 0.059021 0.622853 -0.093984
C87   C     C_R   0.626715 0.512084 0.882206 -0.090256
C88   C     C_R   0.940982 0.393840 0.622853 -0.093984
C89   C     C_R   0.487929 0.114657 0.882207 -0.090253
C90   C     C_R   0.606162 0.547141 0.622853 -0.093984
C91   C     C_R   0.373297 0.885405 0.382206 -0.090251
C92   C     C_R   0.058859 0.452771 0.122876 -0.093993
C93   C     C_R   0.512105 0.626703 0.382206 -0.090251
C94   C     C_R   0.393912 0.941140 0.122876 -0.093993
C95   C     C_R   0.114598 0.487895 0.382206 -0.090251
C96   C     C_R   0.547200 0.606110 0.122868 -0.093994
Cr1   Cr    Cr6+3 0.504240 0.249200 0.750000 1.057756
Cr2   Cr    Cr6+3 0.744960 0.495760 0.750000 1.057756
Cr3   Cr    Cr6+3 0.750800 0.255040 0.750000 1.057757
Cr4   Cr    Cr6+3 0.249200 0.504240 0.250000 1.057752
Cr5   Cr    Cr6+3 0.495760 0.744960 0.250000 1.057750
Cr6   Cr    Cr6+3 0.255040 0.750800 0.250000 1.057749
H1    H     H_    0.990023 0.635559 0.846128 0.162087
H2    H     H_    0.690790 0.064502 0.649956 0.170937
H3    H     H_    0.364437 0.354468 0.846124 0.162086
H4    H     H_    0.935497 0.626288 0.649956 0.170937
H5    H     H_    0.645523 0.009967 0.846129 0.162086
H6    H     H_    0.373711 0.309210 0.649957 0.170936
H7    H     H_    0.635566 0.989986 0.346124 0.162093
H8    H     H_    0.064721 0.690918 0.149927 0.170961
H9    H     H_    0.354423 0.364434 0.346124 0.162092
H10   H     H_    0.626216 0.935321 0.149932 0.170956
H11   H     H_    0.010013 0.645577 0.346125 0.162093
H12   H     H_    0.309121 0.373773 0.149936 0.170956
H13   H     H_    0.074390 0.390290 0.135720 0.198479
H14   H     H_    0.288662 0.841033 0.371397 0.190101
H15   H     H_    0.609663 0.684137 0.135708 0.198473
H16   H     H_    0.158970 0.447632 0.371397 0.190100
H17   H     H_    0.315895 0.925595 0.135719 0.198476
H18   H     H_    0.552368 0.711339 0.371397 0.190099
H19   H     H_    0.390437 0.074660 0.635683 0.198477
H20   H     H_    0.840965 0.288643 0.871395 0.190081
H21   H     H_    0.684223 0.609564 0.635683 0.198476
H22   H     H_    0.447695 0.159056 0.871396 0.190080
H23   H     H_    0.925345 0.315779 0.635683 0.198477
H24   H     H_    0.711350 0.552323 0.871398 0.190084
O1    O     O_R   0.480350 0.140770 0.796330 -0.496204
O2    O     O_R   0.660420 0.519650 0.703670 -0.503646
O3    O     O_R   0.859230 0.339580 0.796330 -0.496205
O4    O     O_R   0.480350 0.140770 0.703670 -0.503645
O5    O     O_R   0.660420 0.519650 0.796330 -0.496205
O6    O     O_R   0.859230 0.339580 0.703670 -0.503645
O7    O     O_R   0.140770 0.480350 0.296330 -0.496216
O8    O     O_R   0.519650 0.660420 0.203670 -0.503661
O9    O     O_R   0.339580 0.859230 0.296330 -0.496215
O10   O     O_R   0.140770 0.480350 0.203670 -0.503660
O11   O     O_R   0.519650 0.660420 0.296330 -0.496215
O12   O     O_R   0.339580 0.859230 0.203670 -0.503664
O13   O     O_R   0.514930 0.348530 0.793250 -0.498515
O14   O     O_R   0.833600 0.485070 0.706750 -0.497656
O15   O     O_R   0.651470 0.166400 0.793250 -0.498512
O16   O     O_R   0.514930 0.348530 0.706750 -0.497656
O17   O     O_R   0.833600 0.485070 0.793250 -0.498513
O18   O     O_R   0.651470 0.166400 0.706750 -0.497655
O19   O     O_R   0.348530 0.514930 0.293250 -0.498512
O20   O     O_R   0.485070 0.833600 0.206750 -0.497657
O21   O     O_R   0.166400 0.651470 0.293250 -0.498511
O22   O     O_R   0.348530 0.514930 0.206750 -0.497653
O23   O     O_R   0.485070 0.833600 0.293250 -0.498512
O24   O     O_R   0.166400 0.651470 0.206750 -0.497658
O25   O     O_3   0.666667 0.333333 0.750000 -0.253811
O26   O     O_3   0.333333 0.666667 0.250000 -0.253799
Cl1   Cl    Cl    0.006376 0.724334 0.068892 -0.413862
Cl2   Cl    Cl    0.730002 0.061575 0.426789 -0.432281
Cl3   Cl    Cl    0.275708 0.281991 0.068905 -0.413861
Cl4   Cl    Cl    0.938426 0.668425 0.426790 -0.432281
Cl5   Cl    Cl    0.717997 0.993708 0.068900 -0.413816
Cl6   Cl    Cl    0.331575 0.269998 0.426789 -0.432284
Cl7   Cl    Cl    0.724183 0.006070 0.568931 -0.413843
Cl8   Cl    Cl    0.061621 0.729975 0.926796 -0.432261
Cl9   Cl    Cl    0.281883 0.275818 0.568932 -0.413841
Cl10  Cl    Cl    0.668345 0.938378 0.926798 -0.432273
Cl11  Cl    Cl    0.993933 0.718115 0.568931 -0.413842
Cl12  Cl    Cl    0.270010 0.331647 0.926790 -0.432277
C97   C     C_2   0.028753 0.359054 0.054170 0.289437
H25   H     H_    0.027872 0.363631 0.020464 0.127748
O27   O     O_2   0.026228 0.278504 0.069962 -0.375734
C98   C     C_2   0.299586 0.862080 0.454351 0.249111
H26   H     H_    0.311120 0.854473 0.487360 0.102129
O28   O     O_2   0.207108 0.835228 0.442001 -0.413322
C99   C     C_2   0.640884 0.669731 0.054157 0.289425
H27   H     H_    0.636302 0.664260 0.020451 0.127743
O29   O     O_2   0.721419 0.747782 0.069945 -0.375738
C100  C     C_2   0.137926 0.437512 0.454351 0.249109
H28   H     H_    0.145537 0.456657 0.487360 0.102127
O30   O     O_2   0.164776 0.371885 0.442001 -0.413327
C101  C     C_2   0.330306 0.971253 0.054171 0.289460
H29   H     H_    0.335769 0.972143 0.020464 0.127751
O31   O     O_2   0.252274 0.973765 0.069962 -0.375717
C102  C     C_2   0.562489 0.700415 0.454352 0.249109
H30   H     H_    0.543345 0.688879 0.487360 0.102129
O32   O     O_2   0.628115 0.792892 0.442001 -0.413325
C103  C     C_2   0.359256 0.029062 0.554129 0.289394
H31   H     H_    0.363849 0.028144 0.520424 0.127699
O33   O     O_2   0.278764 0.026693 0.569905 -0.375694
C104  C     C_2   0.861989 0.299550 0.954349 0.249047
H32   H     H_    0.854327 0.311077 0.987354 0.102056
O34   O     O_2   0.835166 0.207078 0.942000 -0.413345
C105  C     C_2   0.669804 0.640746 0.554129 0.289395
H33   H     H_    0.664292 0.636153 0.520424 0.127700
O35   O     O_2   0.747931 0.721238 0.569904 -0.375693
C106  C     C_2   0.437589 0.138045 0.954351 0.249042
H34   H     H_    0.456776 0.145703 0.987356 0.102059
O36   O     O_2   0.371952 0.164883 0.942002 -0.413378
C107  C     C_2   0.970947 0.330199 0.554130 0.289396
H35   H     H_    0.971866 0.335710 0.520425 0.127699
O37   O     O_2   0.973314 0.252074 0.569905 -0.375693
C108  C     C_2   0.700433 0.562441 0.954351 0.249058
H36   H     H_    0.688898 0.543270 0.987358 0.102065
O38   O     O_2   0.792911 0.628072 0.942003 -0.413364

loop_
_geom_bond_atom_site_label_1
_geom_bond_atom_site_label_2
_ccdc_geom_bond_type
C68   C80   A    
C55   Cl2   S    
C39   C51   A    
C99   H27   S    
C97   H25   S    
C82   C94   A    
C46   H10   S    
Cr2   O17   S    
C18   C21   T    
C33   C45   A    
C90   H21   S    
C3    O15   A    
C6    O4    A    
C84   C99   S    
C35   C47   A    
C57   Cl6   S    
C29   C89   A    
C73   C104  S    
C4    C30   S    
C32   C92   A    
Cr5   O8    S    
C78   C90   A    
C15   C72   S    
C99   O29   D    
C45   C57   A    
C54   C66   A    
C31   C43   A    
Cr3   O6    S    
C44   H8    S    
C48   H12   S    
Cr1   O4    S    
C103  O33   D    
C4    O16   A    
C21   C66   S    
C3    O1    A    
C53   Cl10  S    
C5    O17   A    
C60   C72   A    
C19   C62   S    
Cr6   O12   S    
C37   C49   A    
C91   H14   S    
C8    O12   A    
C84   C96   A    
Cr5   O23   S    
C20   C61   S    
C3    C29   S    
C44   C56   A    
C100  H28   S    
C38   H2    S    
C25   C37   A    
Cr6   O9    S    
C98   H26   S    
C11   O23   A    
C27   C39   A    
C101  O31   D    
Cr2   O5    S    
C28   C88   A    
C2    O6    A    
C14   C67   S    
C49   Cl8   S    
C108  H36   S    
C34   C46   A    
C93   H18   S    
C79   C98   S    
C53   C65   A    
C76   C88   A    
C79   C91   A    
C1    O13   A    
Cr1   O1    S    
C1    C27   S    
C64   C76   A    
C18   C69   S    
Cr2   O2    S    
C11   C31   S    
C17   C70   S    
C97   O27   D    
C12   C32   S    
C7    C33   S    
C16   C71   S    
C78   C105  S    
C102  O32   D    
C48   C60   A    
C71   C83   A    
Cr2   O25   S    
C95   H16   S    
C32   C44   A    
C66   C78   A    
C8    O20   A    
Cr5   O20   S    
C49   C61   A    
C42   H6    S    
Cr3   O3    S    
C12   O24   A    
C96   H15   S    
C51   Cl12  S    
C67   C79   A    
C52   C64   A    
C7    O11   A    
C4    O2    A    
C58   C70   A    
C74   C103  S    
C61   C73   A    
C40   C52   A    
Cr3   O25   S    
C9    O21   A    
Cr4   O26   S    
Cr2   O14   S    
Cr3   O18   S    
C106  O36   D    
C80   C92   A    
C103  H31   S    
C22   C65   S    
C88   H23   S    
C76   C107  S    
C11   O9    A    
Cr6   O21   S    
C65   C77   A    
C81   C93   A    
C94   H17   S    
C36   C96   A    
C30   C90   A    
Cr4   O19   S    
C26   C86   A    
C62   C74   A    
C83   C95   A    
C86   H19   S    
C25   C85   A    
Cr1   O25   S    
C51   C63   A    
C85   H20   S    
C8    C34   S    
C74   C86   A    
C27   C87   A    
C41   C53   A    
C72   C84   A    
Cr6   O24   S    
C5    C25   S    
C43   C55   A    
C15   C24   T    
C34   C94   A    
C24   C63   S    
C31   C91   A    
C50   C62   A    
C107  O37   D    
C6    O18   A    
C80   C97   S    
Cr4   O7    S    
C40   H4    S    
Cr6   O26   S    
C73   C85   A    
C75   C108  S    
C75   C87   A    
C47   H11   S    
C23   C64   S    
Cr5   O11   S    
C41   H5    S    
C13   C20   T    
C29   C41   A    
C77   C106  S    
C14   C19   T    
Cr3   O15   S    
C26   C38   A    
C10   O8    A    
C81   C102  S    
C56   Cl1   S    
C1    O5    A    
C58   Cl5   S    
C33   C93   A    
C39   H3    S    
C55   C67   A    
C59   Cl4   S    
C45   H9    S    
C38   C50   A    
C89   H22   S    
C35   C95   A    
C50   Cl7   S    
C16   C23   T    
Cr5   O26   S    
C17   C22   T    
C98   O28   D    
C2    O14   A    
C106  H34   S    
C108  O38   D    
C60   Cl3   S    
C56   C68   A    
C42   C54   A    
C6    C26   S    
C63   C75   A    
Cr4   O22   S    
C82   C101  S    
C5    O3    A    
C77   C89   A    
C10   C36   S    
C36   C48   A    
C37   H1    S    
C54   Cl9   S    
C105  H33   S    
C70   C82   A    
C92   H13   S    
C100  O30   D    
Cr1   O16   S    
C69   C81   A    
C52   Cl11  S    
C47   C59   A    
C107  H35   S    
C101  H29   S    
C12   O10   A    
C83   C100  S    
C59   C71   A    
C9    C35   S    
C28   C40   A    
C30   C42   A    
C2    C28   S    
C43   H7    S    
C57   C69   A    
C104  H32   S    
C104  O34   D    
Cr1   O13   S    
C87   H24   S    
C46   C58   A    
C102  H30   S    
Cr4   O10   S    
C10   O22   A    
C105  O35   D    
C7    O19   A    
C13   C68   S    
C9    O7    A    
