data_mof_unit_44785.cif
_audit_creation_date              2012-12-11T15:34:17-0500
_audit_creation_method            fapswitch 2.2
_symmetry_space_group_name_H-M    P1
_symmetry_Int_Tables_number       1
_space_group_crystal_system       triclinic
_cell_length_a                    15.071769
_cell_length_b                    15.037035
_cell_length_c                    34.979293
_cell_angle_alpha                 90.387371
_cell_angle_beta                  90.097888
_cell_angle_gamma                 59.90952
_cell_volume                      6858.99787803

loop_
_atom_site_label
_atom_site_type_symbol
_atom_type_description
_atom_site_fract_x
_atom_site_fract_y
_atom_site_fract_z
_atom_type_partial_charge
C1    C     C_R   0.302211 0.608472 0.555703 0.543851
C2    C     C_R   0.664612 0.658634 0.668687 0.009886
C3    C     C_R   0.251747 0.619166 0.268827 -0.122563
C4    C     C_R   0.168850 0.641533 0.292912 0.004010
C5    C     C_R   0.072702 0.669811 0.277580 -0.076759
C6    C     C_R   0.058068 0.679215 0.238141 0.097937
C7    C     C_R   0.141468 0.657795 0.213960 0.031693
C8    C     C_R   0.173935 0.576004 0.358311 -0.097678
C9    C     C_R   0.201807 0.570298 0.396706 0.047876
C10   C     C_R   0.228029 0.716381 0.387270 0.240031
C11   C     C_R   0.204826 0.717238 0.348795 -0.107254
C12   C     C_R   0.181342 0.645315 0.334071 -0.049371
C13   C     C_R   0.587876 0.739804 0.646629 0.246823
C14   C     C_R   0.237476 0.635490 0.410860 0.015326
C15   C     C_R   0.735385 0.025991 0.943422 0.549358
C16   C     C_R   0.745488 0.722594 0.944990 0.569875
C17   C     C_R   0.038945 0.733767 0.948477 0.542591
C18   C     C_R   0.723669 0.037209 0.053299 0.549126
C19   C     C_R   0.733544 0.734144 0.054883 0.563917
C20   C     C_R   0.026462 0.745060 0.058170 0.548391
C21   C     C_R   0.575114 0.721157 0.607977 0.098131
C22   C     C_R   0.690107 0.672677 0.786572 0.358240
C23   C     C_R   0.672668 0.666320 0.709959 0.365775
C24   C     C_R   0.753222 0.590378 0.850764 0.098083
C25   C     C_R   0.767178 0.602503 0.890061 0.222749
C26   C     C_R   0.643271 0.786181 0.884634 0.214944
C27   C     C_R   0.641273 0.774821 0.845282 -0.146220
C28   C     C_R   0.696569 0.678402 0.828105 -0.044130
C29   C     C_R   0.611183 0.588789 0.555186 0.567478
C30   C     C_R   0.714962 0.702239 0.906930 0.000113
C31   C     C_R   0.719688 0.075072 0.905778 -0.020058
C32   C     C_R   0.628406 0.103770 0.885919 -0.120613
C33   C     C_R   0.620591 0.127490 0.847457 -0.189383
C34   C     C_R   0.703353 0.123727 0.828073 0.060063
C35   C     C_R   0.794188 0.101334 0.847587 0.316649
C36   C     C_R   0.800338 0.078744 0.887191 -0.135121
C37   C     C_R   0.694263 0.222987 0.769584 0.301105
C38   C     C_R   0.690241 0.231607 0.729823 -0.117503
C39   C     C_R   0.680708 0.159801 0.707021 -0.044592
C40   C     C_R   0.591088 0.299405 0.553426 0.553507
C41   C     C_R   0.677330 0.077621 0.724049 -0.137367
C42   C     C_R   0.685769 0.066062 0.763571 -0.175294
C43   C     C_R   0.695100 0.137891 0.786482 0.047842
C44   C     C_R   0.581052 0.186561 0.647625 -0.110077
C45   C     C_R   0.560608 0.219644 0.609939 -0.122878
C46   C     C_R   0.722845 0.217868 0.606573 0.083960
C47   C     C_R   0.741224 0.186821 0.644677 -0.084907
C48   C     C_R   0.669064 0.174765 0.665609 0.009693
C49   C     C_R   0.628223 0.240883 0.589430 0.024584
C50   C     C_R   0.094819 0.696854 0.911839 0.002520
C51   C     C_R   0.297621 0.611743 0.446622 0.554553
C52   C     C_R   0.124237 0.758672 0.891823 -0.138744
C53   C     C_R   0.150480 0.739923 0.853287 -0.151837
C54   C     C_R   0.147541 0.659397 0.833941 0.048439
C55   C     C_R   0.126594 0.591720 0.854652 0.099196
C56   C     C_R   0.102452 0.609989 0.893548 -0.107216
C57   C     C_R   0.231103 0.565162 0.773540 -0.102212
C58   C     C_R   0.238703 0.560086 0.733505 0.227425
C59   C     C_R   0.174354 0.648247 0.711781 0.041642
C60   C     C_R   0.101675 0.739682 0.730428 0.237777
C61   C     C_R   0.091702 0.740752 0.770275 -0.107677
C62   C     C_R   0.608640 0.591306 0.445817 0.559732
C63   C     C_R   0.156817 0.654270 0.791936 -0.036771
C64   C     C_R   0.212646 0.717367 0.653801 -0.111863
C65   C     C_R   0.240843 0.709118 0.615684 -0.172003
C66   C     C_R   0.216205 0.562119 0.607976 0.259815
C67   C     C_R   0.188838 0.570744 0.646698 -0.052376
C68   C     C_R   0.189327 0.646843 0.669984 0.054340
C69   C     C_R   0.248112 0.628698 0.592735 0.014139
C70   C     C_R   0.696380 0.716417 0.091759 -0.012686
C71   C     C_R   0.607557 0.792430 0.110885 0.078763
C72   C     C_R   0.591658 0.778377 0.149207 -0.147357
C73   C     C_R   0.588194 0.301873 0.444061 0.539603
C74   C     C_R   0.662531 0.690593 0.169151 0.061569
C75   C     C_R   0.748774 0.612632 0.150033 0.321450
C76   C     C_R   0.761503 0.624224 0.111016 -0.140888
C77   C     C_R   0.649130 0.602471 0.228098 0.323702
C78   C     C_R   0.643612 0.601187 0.268469 -0.111711
C79   C     C_R   0.645075 0.678129 0.290705 0.006151
C80   C     C_R   0.645989 0.760772 0.273324 -0.095511
C81   C     C_R   0.648292 0.765136 0.233665 -0.145136
C82   C     C_R   0.651332 0.686197 0.210944 0.074861
C83   C     C_R   0.545345 0.714316 0.349594 -0.155189
C84   C     C_R   0.634369 0.621111 0.592208 -0.070345
C85   C     C_R   0.537060 0.693259 0.387457 -0.153040
C86   C     C_R   0.723244 0.594280 0.392946 0.108109
C87   C     C_R   0.731268 0.615105 0.354102 0.125611
C88   C     C_R   0.641414 0.672376 0.332392 0.007688
C89   C     C_R   0.624816 0.629130 0.409039 -0.002714
C90   C     C_R   0.702458 0.092827 0.090023 -0.020741
C91   C     C_R   0.781287 0.098083 0.109359 -0.138622
C92   C     C_R   0.770118 0.125728 0.147811 -0.175697
C93   C     C_R   0.679130 0.151200 0.167297 0.036826
C94   C     C_R   0.594526 0.158436 0.147160 0.290956
C95   C     C_R   0.712915 0.544223 0.614269 -0.155650
C96   C     C_R   0.608715 0.125392 0.108738 -0.104638
C97   C     C_R   0.597497 0.248013 0.227409 -0.085269
C98   C     C_R   0.593332 0.254510 0.267105 -0.124741
C99   C     C_R   0.669083 0.174985 0.289110 0.019196
C100  C     C_R   0.749766 0.089134 0.271163 -0.113809
C101  C     C_R   0.753067 0.081869 0.231342 -0.115512
C102  C     C_R   0.676673 0.161243 0.209236 0.051409
C103  C     C_R   0.734012 0.196322 0.351893 -0.125564
C104  C     C_R   0.714121 0.227816 0.390111 -0.126614
C105  C     C_R   0.555787 0.222870 0.387076 -0.116288
C106  C     C_R   0.728735 0.562329 0.651858 0.205210
C107  C     C_R   0.574951 0.193097 0.348905 -0.113902
C108  C     C_R   0.661978 0.183567 0.330807 0.026003
C109  C     C_R   0.622518 0.245605 0.407493 0.019624
C110  C     C_R   0.075700 0.711061 0.095601 0.025973
C111  C     C_R   0.074394 0.628514 0.113653 -0.132741
C112  C     C_R   0.100393 0.608485 0.151975 -0.110739
C113  C     C_R   0.127912 0.670495 0.172682 0.051123
C114  C     C_R   0.136591 0.748305 0.154334 -0.112265
C115  C     C_R   0.110265 0.768819 0.115875 -0.124236
C116  C     C_R   0.238190 0.626846 0.229464 -0.146789
Cr1   Cr    Cr6+3 0.421670 0.426920 0.499620 1.078367
Cr2   Cr    Cr6+3 0.427030 0.651190 0.500980 1.064447
Cr3   Cr    Cr6+3 0.651280 0.421870 0.499380 1.077746
Cr4   Cr    Cr6+3 0.910810 0.908010 0.001130 1.012033
Cr5   Cr    Cr6+3 0.682800 0.909890 0.998370 1.064304
Cr6   Cr    Cr6+3 0.908370 0.682300 0.002180 1.003912
H1    H     H_    0.759973 0.466969 0.603164 0.190544
H2    H     H_    0.868035 0.059997 0.903681 0.113678
H3    H     H_    0.810955 0.174560 0.658408 0.133814
H4    H     H_    0.691898 0.295940 0.716792 0.146923
H5    H     H_    0.550714 0.145731 0.832330 0.114796
H6    H     H_    0.669230 0.022133 0.706726 0.157349
H7    H     H_    0.684866 0.001125 0.776392 0.140347
H8    H     H_    0.524931 0.176636 0.663462 0.123165
H9    H     H_    0.488432 0.234439 0.597706 0.163113
H10   H     H_    0.120575 0.825641 0.905179 0.125285
H11   H     H_    0.082875 0.560161 0.908799 0.122376
H12   H     H_    0.169584 0.516443 0.658767 0.115902
H13   H     H_    0.283768 0.499708 0.790392 0.141184
H14   H     H_    0.167776 0.791855 0.837973 0.094923
H15   H     H_    0.033258 0.809663 0.784411 0.130024
H16   H     H_    0.215138 0.775519 0.671122 0.117036
H17   H     H_    0.263841 0.762045 0.605032 0.159251
H18   H     H_    0.826673 0.562742 0.096295 0.130215
H19   H     H_    0.639163 0.540970 0.283424 0.100912
H20   H     H_    0.524951 0.837968 0.164010 0.141683
H21   H     H_    0.645444 0.821327 0.290455 0.145222
H22   H     H_    0.650458 0.829114 0.220565 0.153656
H23   H     H_    0.476184 0.758495 0.332961 0.133343
H24   H     H_    0.460812 0.722017 0.399029 0.192195
H25   H     H_    0.854451 0.073510 0.095658 0.141750
H26   H     H_    0.549894 0.117418 0.094150 0.151692
H27   H     H_    0.519109 0.182825 0.332871 0.126192
H28   H     H_    0.531400 0.322010 0.280751 0.109376
H29   H     H_    0.539347 0.310857 0.210936 0.119562
H30   H     H_    0.834371 0.122780 0.162910 0.110686
H31   H     H_    0.808743 0.027437 0.287927 0.125189
H32   H     H_    0.814595 0.013994 0.217750 0.142148
H33   H     H_    0.801750 0.188881 0.338130 0.107187
H34   H     H_    0.767114 0.244205 0.405239 0.138937
H35   H     H_    0.484972 0.234962 0.399698 0.156162
H36   H     H_    0.048121 0.582699 0.098754 0.121373
H37   H     H_    0.111909 0.832878 0.102641 0.130404
H38   H     H_    0.206882 0.773458 0.330130 0.128834
H39   H     H_    0.326304 0.597763 0.280636 0.116227
H40   H     H_    0.302561 0.610296 0.211081 0.114016
H41   H     H_    0.095579 0.547092 0.165986 0.115684
H42   H     H_    0.008281 0.689174 0.296332 0.163577
H43   H     H_    0.151083 0.523275 0.346968 0.171394
H44   H     H_    0.158664 0.796206 0.170248 0.114390
H45   H     H_    0.592320 0.841644 0.828149 0.140314
H46   H     H_    0.564471 0.102730 0.899561 0.167494
N1    N     N_R   0.656398 0.612962 0.770580 -0.219597
N2    N     N_R   0.648476 0.609331 0.732892 -0.215566
N3    N     N_R   0.705389 0.727312 0.725810 -0.223896
N4    N     N_R   0.713420 0.730782 0.763652 -0.228397
O1    O     O_R   0.502070 0.323090 0.541280 -0.504001
O2    O     O_R   0.520720 0.641670 0.461580 -0.498368
O3    O     O_R   0.674120 0.502090 0.457500 -0.477941
O4    O     O_R   0.640110 0.338380 0.459630 -0.498635
O5    O     O_3   0.499990 0.499990 0.499990 -0.267797
O6    O     O_R   0.017640 0.822070 0.960410 -0.519114
O7    O     O_R   0.822000 0.989470 0.960340 -0.506766
O8    O     O_R   0.666920 0.007430 0.955290 -0.494521
O9    O     O_R   0.694410 0.812480 0.959650 -0.466681
O10   O     O_R   0.831550 0.656950 0.958960 -0.505908
O11   O     O_R   0.998590 0.685540 0.963930 -0.510994
O12   O     O_R   0.338340 0.520690 0.539540 -0.455250
O13   O     O_R   0.008220 0.831200 0.045060 -0.517607
O14   O     O_R   0.813270 0.997930 0.038810 -0.502663
O15   O     O_R   0.657500 0.016560 0.039940 -0.499225
O16   O     O_R   0.685680 0.820940 0.038120 -0.460641
O17   O     O_R   0.822130 0.666070 0.043610 -0.533265
O18   O     O_R   0.989860 0.694000 0.042400 -0.505767
O19   O     O_3   0.833990 0.833400 0.000560 -0.244681
O20   O     O_R   0.324760 0.674070 0.543580 -0.520674
O21   O     O_R   0.522400 0.640310 0.540110 -0.467066
O22   O     O_R   0.675940 0.500630 0.542210 -0.499863
O23   O     O_R   0.641790 0.337020 0.538150 -0.467677
O24   O     O_R   0.500260 0.324550 0.456580 -0.502533
O25   O     O_R   0.336660 0.522040 0.461020 -0.479641
O26   O     O_R   0.322940 0.675540 0.458880 -0.482058
O27   O     O_3   0.704494 0.294332 0.791384 -0.520554
C117  C     C_3   0.608057 0.367850 0.806681 0.017086
H47   H     H_    0.623234 0.401983 0.832366 0.192957
H48   H     H_    0.561672 0.333592 0.816787 0.101256
C118  C     C_3   0.546405 0.453156 0.777721 -0.264447
H49   H     H_    0.598684 0.471344 0.761705 0.237137
H50   H     H_    0.509485 0.426053 0.756810 0.165410
C119  C     C_3   0.463970 0.550648 0.797403 -0.457088
H51   H     H_    0.415168 0.532996 0.815951 0.141972
H52   H     H_    0.414911 0.607194 0.775532 0.161094
H53   H     H_    0.500026 0.585399 0.815181 0.168214
O28   O     O_3   0.871656 0.102891 0.826077 -0.550930
C120  C     C_3   0.969104 0.058098 0.843623 -0.002441
H54   H     H_    0.027382 0.028262 0.820448 0.137518
H55   H     H_    0.987478 0.989133 0.860889 0.112286
C121  C     C_3   0.980910 0.139851 0.865834 -0.245083
H56   H     H_    0.975748 0.198796 0.845544 0.211401
H57   H     H_    0.918286 0.179135 0.887131 0.175457
C122  C     C_3   0.083666 0.092701 0.886390 -0.499449
H58   H     H_    0.089928 0.034332 0.907190 0.144698
H59   H     H_    0.090009 0.153596 0.902138 0.154441
H60   H     H_    0.147514 0.056227 0.865401 0.147538
I1    I     I_    0.464173 0.848218 0.575447 -0.296859
I2    I     I_    0.843577 0.227547 0.579008 -0.374300
O29   O     O_3   0.316493 0.473408 0.715593 -0.577187
C123  C     C_3   0.307056 0.385804 0.722795 -0.002517
H61   H     H_    0.300830 0.354253 0.694742 0.153173
H62   H     H_    0.237627 0.401840 0.739631 0.147167
C124  C     C_3   0.402909 0.303887 0.743198 -0.261216
H63   H     H_    0.471595 0.286188 0.725970 0.182720
H64   H     H_    0.410260 0.333101 0.771564 0.155348
C125  C     C_3   0.398526 0.205609 0.748817 -0.479990
H65   H     H_    0.329613 0.221959 0.765751 0.164556
H66   H     H_    0.467622 0.148538 0.764502 0.151453
H67   H     H_    0.396125 0.172083 0.720702 0.147963
O30   O     O_3   0.035822 0.825656 0.709327 -0.555925
C126  C     C_3   0.053754 0.908154 0.717081 -0.011219
H68   H     H_    0.076519 0.928902 0.689870 0.154723
H69   H     H_    0.116381 0.890131 0.738087 0.098463
C127  C     C_3   0.955318 0.002123 0.731136 -0.249534
H70   H     H_    0.893023 0.020041 0.710318 0.193813
H71   H     H_    0.932741 0.985276 0.759175 0.193616
C128  C     C_3   0.969780 0.095339 0.735206 -0.455338
H72   H     H_    0.035756 0.077451 0.754164 0.142180
H73   H     H_    0.900073 0.160898 0.747833 0.217038
H74   H     H_    0.983589 0.118548 0.706752 0.141535
O31   O     O_3   0.820282 0.516916 0.913050 -0.546348
C129  C     C_3   0.927201 0.475882 0.908791 0.050429
H75   H     H_    0.948356 0.536376 0.911749 0.159324
H76   H     H_    0.954235 0.438872 0.880462 0.185599
C130  C     C_3   0.982684 0.394488 0.939443 -0.253633
H77   H     H_    0.958086 0.430376 0.968228 0.181568
H78   H     H_    0.961589 0.333740 0.936455 0.172900
C131  C     C_3   0.098906 0.345117 0.936028 -0.489441
H79   H     H_    0.125170 0.310455 0.907178 0.173813
H80   H     H_    0.136452 0.283623 0.957691 0.143381
H81   H     H_    0.122503 0.403217 0.941192 0.154513
I3    I     I_    0.114031 0.470328 0.828603 -0.514649
O32   O     O_3   0.220897 0.482105 0.586625 -0.559700
C132  C     C_3   0.133143 0.519563 0.562992 0.028530
H82   H     H_    0.155542 0.470033 0.537007 0.184013
H83   H     H_    0.104640 0.599579 0.552735 0.119271
C133  C     C_3   0.047218 0.512212 0.583501 -0.294768
H84   H     H_    0.076622 0.431935 0.593122 0.175510
H85   H     H_    0.021643 0.563379 0.609059 0.151550
C134  C     C_3   0.955279 0.543507 0.557282 -0.447454
H86   H     H_    0.923701 0.624127 0.547744 0.168317
H87   H     H_    0.894377 0.537750 0.572949 0.152669
H88   H     H_    0.978089 0.491964 0.531861 0.189432
I4    I     I_    0.492654 0.931430 0.085851 -0.405269
I5    I     I_    0.877154 0.557597 0.326883 -0.362186
O33   O     O_3   0.647986 0.528473 0.203917 -0.547952
C135  C     C_3   0.682826 0.430850 0.220659 0.021399
H89   H     H_    0.673724 0.382183 0.198760 0.152935
H90   H     H_    0.633109 0.434698 0.244726 0.107327
C136  C     C_3   0.797332 0.376878 0.231287 -0.251227
H91   H     H_    0.843310 0.361411 0.204871 0.197124
H92   H     H_    0.814160 0.425718 0.250403 0.194773
C137  C     C_3   0.831416 0.275121 0.251240 -0.489361
H93   H     H_    0.784210 0.287468 0.277189 0.161395
H94   H     H_    0.912978 0.240395 0.259896 0.155460
H95   H     H_    0.824315 0.221173 0.231457 0.153695
O34   O     O_3   0.800000 0.481301 0.673562 -0.541829
C138  C     C_3   0.895534 0.476475 0.670055 0.014930
H96   H     H_    0.889215 0.551504 0.677919 0.147551
H97   H     H_    0.924754 0.455400 0.640218 0.129531
C139  C     C_3   0.971910 0.394162 0.697051 -0.227527
H98   H     H_    0.942196 0.413068 0.726836 0.218222
H99   H     H_    0.980702 0.318427 0.689103 0.175533
C140  C     C_3   0.076406 0.386988 0.695296 -0.490910
H100  H     H_    0.108099 0.367584 0.665826 0.144676
H101  H     H_    0.130259 0.325851 0.714907 0.152654
H102  H     H_    0.069556 0.461209 0.704255 0.157371
O35   O     O_3   0.816773 0.524343 0.169754 -0.549655
C141  C     C_3   0.920623 0.497485 0.164641 0.001347
H103  H     H_    0.954059 0.492170 0.193447 0.181003
H104  H     H_    0.931480 0.555262 0.148682 0.134976
C142  C     C_3   0.979807 0.391841 0.145186 -0.271960
H105  H     H_    0.975363 0.333591 0.163127 0.163151
H106  H     H_    0.944830 0.393620 0.117031 0.164119
C143  C     C_3   0.092512 0.358727 0.139292 -0.489309
H107  H     H_    0.099770 0.410883 0.118921 0.134101
H108  H     H_    0.133838 0.279627 0.127201 0.158447
H109  H     H_    0.128763 0.359202 0.166914 0.147494
I6    I     I_    0.858669 0.514439 0.427021 -0.276005
O36   O     O_3   0.527866 0.839654 0.660573 -0.539477
C144  C     C_3   0.464960 0.849149 0.692400 0.022234
H110  H     H_    0.404651 0.931496 0.694290 0.155509
H111  H     H_    0.507863 0.834412 0.719512 0.152345
C145  C     C_3   0.409608 0.786406 0.689877 -0.277625
H112  H     H_    0.358532 0.811176 0.664502 0.171360
H113  H     H_    0.465269 0.702958 0.687037 0.171723
C146  C     C_3   0.346596 0.802112 0.726056 -0.492177
H114  H     H_    0.396128 0.782392 0.751787 0.158219
H115  H     H_    0.313030 0.751220 0.725400 0.145070
H116  H     H_    0.283811 0.883318 0.728326 0.131285
O37   O     O_3   0.504731 0.184386 0.167142 -0.560994
C147  C     C_3   0.415510 0.257137 0.147374 0.009443
H117  H     H_    0.348034 0.266830 0.163710 0.156324
H118  H     H_    0.408002 0.228880 0.118876 0.133222
C148  C     C_3   0.406913 0.363451 0.144954 -0.286667
H119  H     H_    0.381120 0.403371 0.173039 0.152154
H120  H     H_    0.482047 0.356379 0.137969 0.164133
C149  C     C_3   0.330542 0.428876 0.114222 -0.469864
H121  H     H_    0.361176 0.396367 0.085447 0.150918
H122  H     H_    0.317103 0.508502 0.115698 0.166388
H123  H     H_    0.256775 0.430664 0.118412 0.146096
I7    I     I_    0.816970 0.439836 0.826141 -0.334811
I8    I     I_    0.906426 0.736337 0.217626 -0.466137
I9    I     I_    0.185583 0.461912 0.430394 -0.335626
O38   O     O_3   0.252154 0.788906 0.400112 -0.569995
C150  C     C_3   0.165601 0.870282 0.418566 0.031900
H124  H     H_    0.194404 0.904263 0.440127 0.170624
H125  H     H_    0.118941 0.844126 0.434671 0.127713
C151  C     C_3   0.098359 0.953978 0.389871 -0.283329
H126  H     H_    0.146133 0.978653 0.374021 0.179447
H127  H     H_    0.064975 0.923008 0.368975 0.156866
C152  C     C_3   0.010904 0.047158 0.409894 -0.464780
H128  H     H_    0.960596 0.024701 0.425146 0.158600
H129  H     H_    0.964306 0.106306 0.388357 0.150955
H130  H     H_    0.041741 0.081016 0.430657 0.170441
O39   O     O_3   0.577853 0.882248 0.900190 -0.548574
C153  C     C_3   0.496509 0.879850 0.919612 0.036629
H131  H     H_    0.459934 0.947916 0.938930 0.156502
H132  H     H_    0.524133 0.811135 0.938278 0.127595
C154  C     C_3   0.414851 0.885864 0.891697 -0.289613
H133  H     H_    0.383418 0.957778 0.874842 0.165362
H134  H     H_    0.449517 0.819464 0.871591 0.157224
C155  C     C_3   0.327751 0.883593 0.912993 -0.485679
H135  H     H_    0.358085 0.813160 0.930639 0.157661
H136  H     H_    0.272657 0.882867 0.892069 0.140122
H137  H     H_    0.286913 0.952415 0.931750 0.152603

loop_
_geom_bond_atom_site_label_1
_geom_bond_atom_site_label_2
_ccdc_geom_bond_type
C100  H31   S    
C149  H122  S    
O29   C123  S    
C87   C88   A    
C66   O32   S    
C114  C115  A    
Cr6   O19   S    
C39   C41   A    
C64   H16   S    
C151  H126  S    
C72   H20   S    
C118  H50   S    
C138  H96   S    
C21   I1    S    
Cr5   O9    S    
C36   H2    S    
C5    C6    A    
C16   O10   A    
C149  H123  S    
C54   C63   S    
C44   H8    S    
C135  H89   S    
C94   O37   S    
C34   C35   A    
C61   C63   A    
C110  C111  A    
C51   O25   A    
C83   H23   S    
C50   C52   A    
C4    C12   S    
C145  C146  S    
C94   C96   A    
C83   C88   A    
O27   C117  S    
O31   C129  S    
Cr4   O13   S    
Cr1   O5    S    
Cr5   O8    S    
C127  H71   S    
C150  H124  S    
C52   H10   S    
C140  H102  S    
O39   C153  S    
C78   H19   S    
C119  H51   S    
C4    C5    A    
C147  H117  S    
C75   C76   A    
C37   C38   A    
Cr3   O4    S    
Cr5   O15   S    
C124  H63   S    
C127  C128  S    
C13   C21   A    
C24   C25   A    
C125  H66   S    
C142  H105  S    
C32   H46   S    
Cr6   O17   S    
C98   H28   S    
C151  C152  S    
Cr1   O1    S    
C78   C79   A    
C152  H128  S    
C58   O29   S    
C6    C7    A    
C46   I2    S    
C139  H99   S    
C64   C65   A    
C77   C82   A    
C29   O21   A    
C62   O3    A    
Cr3   O23   S    
C65   H17   S    
C1    O20   A    
C23   N3    A    
C117  H48   S    
C98   C99   A    
C73   O24   A    
C133  H84   S    
C31   C36   A    
C57   H13   S    
Cr3   O5    S    
C44   C48   A    
C131  H79   S    
C26   C30   A    
C148  H120  S    
C71   I4    S    
C15   O7    A    
C111  C112  A    
C91   H25   S    
C97   C98   A    
C53   C54   A    
C99   C108  S    
C105  C107  A    
C130  H77   S    
C147  C148  S    
C64   C68   A    
Cr4   O7    S    
C136  H91   S    
C3    C116  A    
C38   C39   A    
C121  H57   S    
C16   C30   S    
C40   C49   S    
C18   O15   A    
C33   H5    S    
C128  H72   S    
Cr2   O21   S    
C142  C143  S    
C99   C100  A    
C134  H86   S    
C144  H111  S    
C107  C108  A    
C144  C145  S    
C66   C67   A    
C137  H93   S    
C6    I8    S    
C152  H130  S    
C38   H4    S    
C145  H113  S    
C57   C63   A    
C153  H132  S    
C67   H12   S    
C29   C84   S    
C10   C14   A    
Cr4   O19   S    
C91   C92   A    
C122  H58   S    
C2    C106  A    
C50   C56   A    
C84   C95   A    
C140  H101  S    
C7    C116  A    
C141  H103  S    
C95   C106  A    
C31   C32   A    
C8    C12   A    
C19   O17   A    
C131  H81   S    
C20   C110  S    
Cr6   O11   S    
C124  H64   S    
C144  H110  S    
C146  H115  S    
C126  C127  S    
C3    C4    A    
Cr2   O26   S    
C52   C53   A    
C95   H1    S    
C105  C109  A    
C54   C55   A    
C130  C131  S    
C34   C43   S    
C24   C28   A    
C75   O35   S    
Cr5   O19   S    
C154  C155  S    
C15   C31   S    
C138  H97   S    
C128  H74   S    
C132  H82   S    
C71   C72   A    
C155  H137  S    
C57   C58   A    
C101  H32   S    
C134  H88   S    
C100  C101  A    
C42   H7    S    
C136  H92   S    
C143  H109  S    
C10   C11   A    
C107  H27   S    
C59   C60   A    
C120  C121  S    
C154  H133  S    
Cr2   O2    S    
C138  C139  S    
C137  H95   S    
C2    C23   S    
C129  C130  S    
C135  C136  S    
C55   C56   A    
C101  C102  A    
C136  C137  S    
C41   C42   A    
C35   C36   A    
N3    N4    A    
C123  H61   S    
Cr1   O12   S    
C77   C78   A    
C122  H60   S    
C46   C49   A    
C26   C27   A    
C150  H125  S    
C35   O28   S    
C141  C142  S    
C20   O18   A    
C119  H52   S    
C62   C89   S    
C147  H118  S    
N1    N2    A    
Cr4   O6    S    
Cr3   O3    S    
C129  H75   S    
Cr2   O20   S    
C81   H22   S    
C105  H35   S    
C150  C151  S    
C13   O36   S    
C126  H68   S    
Cr6   O18   S    
C70   C71   A    
C97   C102  A    
C142  H106  S    
C149  H121  S    
O37   C147  S    
C22   C28   S    
C74   C82   S    
C79   C88   S    
C11   H38   S    
C47   H3    S    
C151  H127  S    
C96   H26   S    
C118  C119  S    
C67   C68   A    
C18   C90   S    
C60   O30   S    
C72   C74   A    
C127  H70   S    
C155  H135  S    
C85   C89   A    
C86   C87   A    
C58   C59   A    
C81   C82   A    
C115  H37   S    
C60   C61   A    
C37   C43   A    
C143  H107  S    
C139  H98   S    
C51   O26   A    
C133  C134  S    
C17   O11   A    
C14   C51   S    
C9    I9    S    
C45   C49   A    
C97   H29   S    
C24   I7    S    
C90   C96   A    
C103  H33   S    
C83   C85   A    
C45   H9    S    
C42   C43   A    
C123  C124  S    
C44   C45   A    
C131  H80   S    
C113  C114  A    
C25   C30   A    
C112  H41   S    
C46   C47   A    
C16   O9    A    
C111  H36   S    
C86   C89   A    
C93   C102  S    
C73   C109  S    
C152  H129  S    
C32   C33   A    
C106  O34   S    
C73   O4    A    
Cr5   O16   S    
C61   H15   S    
C90   C91   A    
C40   O1    A    
C65   C69   A    
C92   C93   A    
C125  H65   S    
C1    C69   S    
C22   N1    A    
C3    H39   S    
C148  H119  S    
C134  H87   S    
C86   I6    S    
C103  C104  A    
O33   C135  S    
C110  C115  A    
C39   C48   S    
C25   O31   S    
C17   O6    A    
C146  H114  S    
C93   C94   A    
O38   C150  S    
C9    C14   A    
C56   H11   S    
C153  H131  S    
C116  H40   S    
O35   C141  S    
O32   C132  S    
C139  C140  S    
C104  C109  A    
C19   O16   A    
C66   C69   A    
C29   O22   A    
C62   O2    A    
C55   I3    S    
C125  H67   S    
C2    C13   A    
C26   O39   S    
C20   O13   A    
C120  H54   S    
C117  H47   S    
C92   H30   S    
C21   C84   A    
C103  C108  A    
C148  C149  S    
Cr4   O14   S    
C15   O8    A    
C126  H69   S    
C41   H6    S    
C53   H14   S    
C112  C113  A    
C1    O12   A    
C114  H44   S    
C76   H18   S    
C129  H76   S    
C130  H78   S    
C74   C75   A    
C5    H42   S    
C85   H24   S    
C8    H43   S    
C133  H85   S    
C121  H56   S    
C8    C9    A    
O34   C138  S    
C18   O14   A    
C128  H73   S    
C132  H83   S    
C59   C68   S    
C155  H136  S    
C47   C48   A    
C80   H21   S    
C33   C34   A    
C104  H34   S    
C143  H108  S    
O36   C144  S    
C120  H55   S    
C154  H134  S    
C137  H94   S    
C70   C76   A    
C10   O38   S    
C132  C133  S    
Cr1   O25   S    
C145  H112  S    
C153  C154  S    
C135  H90   S    
C80   C81   A    
C121  C122  S    
C123  H62   S    
C17   C50   S    
C11   C12   A    
C122  H59   S    
Cr3   O22   S    
C140  H100  S    
C7    C113  S    
C141  H104  S    
Cr1   O24   S    
C87   I5    S    
C119  H53   S    
C23   N2    A    
C117  C118  S    
C37   O27   S    
C79   C80   A    
Cr2   O5    S    
Cr6   O10   S    
C124  C125  S    
O28   C120  S    
O30   C126  S    
C146  H116  S    
C27   C28   A    
C77   O33   S    
C19   C70   S    
C118  H49   S    
C40   O23   A    
C22   N4    A    
C27   H45   S    
