data_mof_unit_35388.cif
_audit_creation_date              2012-12-10T18:58:42-0500
_audit_creation_method            fapswitch 2.2
_symmetry_space_group_name_H-M    P1
_symmetry_Int_Tables_number       1
_space_group_crystal_system       triclinic
_cell_length_a                    12.990984
_cell_length_b                    10.829804
_cell_length_c                    9.55012
_cell_angle_alpha                 89.710211
_cell_angle_beta                  96.076209
_cell_angle_gamma                 90.501808
_cell_volume                      1335.99340955

loop_
_atom_site_label
_atom_site_type_symbol
_atom_type_description
_atom_site_fract_x
_atom_site_fract_y
_atom_site_fract_z
_atom_type_partial_charge
C1    C     C_R   0.501087 0.262490 0.500506 0.801935
C2    C     C_R   0.535326 0.937280 0.384499 -0.169077
C3    C     C_R   0.507353 0.871319 0.501875 -0.098623
C4    C     C_R   0.300537 0.499166 0.473820 0.805190
C5    C     C_R   0.491922 0.936050 0.623978 0.121704
C6    C     C_3   0.402540 0.929985 0.710597 -0.474102
C7    C     C_3   0.404524 0.070024 0.711826 -0.478990
C8    C     C_R   0.579859 0.553420 0.084460 0.118740
C9    C     C_R   0.429541 0.431003 0.065290 0.571858
C10   C     C_R   0.428510 0.434022 0.915100 -0.190635
C11   C     C_R   0.579628 0.553343 0.937130 0.249142
C12   C     C_R   0.027962 0.508645 0.566917 0.173733
C13   C     C_3   0.614357 0.684517 0.933061 -0.525648
C14   C     C_3   0.613916 0.685495 0.092413 -0.246887
C15   C     C_R   0.500498 0.737772 0.499948 0.812465
C16   C     C_R   0.699437 0.499652 0.526312 0.818945
C17   C     C_R   0.812208 0.499864 0.541884 -0.048189
C18   C     C_R   0.187736 0.495714 0.459053 -0.058927
C19   C     C_R   0.024404 0.464586 0.316215 -0.224511
C20   C     C_R   0.131893 0.471357 0.328043 -0.182187
C21   C     C_R   0.135397 0.514358 0.578063 -0.267773
C22   C     C_3   0.352375 0.241080 0.087335 -0.354216
C23   C     C_R   0.972057 0.483208 0.435030 0.167590
C24   C     C_2   0.719704 0.702357 0.171447 0.909751
C25   C     C_R   0.864619 0.477673 0.423874 -0.242335
C26   C     C_R   0.867991 0.524020 0.673010 -0.181660
C27   C     C_R   0.975570 0.528116 0.685528 -0.204473
C28   C     C_R   0.492986 0.063378 0.624428 0.144808
C29   C     C_R   0.509089 0.129607 0.502896 -0.102203
C30   C     C_R   0.536443 0.065829 0.384954 -0.221124
Cu1   Cu    Cu3+1 0.499990 0.499980 0.640670 0.946612
Cu2   Cu    Cu3+1 0.500010 0.500020 0.359330 0.991662
H1    H     H_    0.821895 0.456558 0.323008 0.176911
H2    H     H_    0.982318 0.445140 0.214484 0.157091
H3    H     H_    0.017636 0.547491 0.787293 0.143216
H4    H     H_    0.171192 0.456248 0.235186 0.193608
H5    H     H_    0.178060 0.533722 0.679529 0.154750
H6    H     H_    0.554884 0.114720 0.291478 0.163034
H7    H     H_    0.552866 0.890552 0.290820 0.174394
H8    H     H_    0.331447 0.890399 0.651858 0.199089
H9    H     H_    0.314196 0.186145 0.165815 0.199459
H10   H     H_    0.431325 0.202416 0.084041 0.145573
H11   H     H_    0.305452 0.229503 0.984037 0.153175
H12   H     H_    0.423628 0.889182 0.816509 0.192676
H13   H     H_    0.871737 0.661782 0.187973 0.328671
H14   H     H_    0.334374 0.112129 0.654504 0.196023
H15   H     H_    0.428398 0.109293 0.817721 0.192087
H16   H     H_    0.368835 0.385182 0.849354 0.155605
H17   H     H_    0.691953 0.693697 0.894697 0.216231
H18   H     H_    0.554694 0.745476 0.878518 0.200168
H19   H     H_    0.553351 0.746274 0.127100 0.139992
H20   H     H_    0.828576 0.541126 0.765375 0.171161
N1    N     N_R   0.500660 0.500930 0.148010 -0.241218
N2    N     N_R   0.500660 0.500890 0.852110 -0.207039
O1    O     O_R   0.500000 0.319640 0.618810 -0.581684
O2    O     O_2   0.731051 0.771683 0.272561 -0.610556
O3    O     O_R   0.804736 0.639776 0.128789 -0.794363
O4    O     O_R   0.500010 0.319680 0.381230 -0.558430
O5    O     O_R   0.348990 0.499960 0.599490 -0.596182
O6    O     O_R   0.349000 0.500000 0.361910 -0.534668
O7    O     O_R   0.499990 0.680320 0.618770 -0.580674
O8    O     O_R   0.500000 0.680360 0.381190 -0.587421
O9    O     O_R   0.651000 0.500000 0.638090 -0.584714
O10   O     O_R   0.651010 0.500040 0.400510 -0.581753
O11   O     O_3   0.354835 0.366021 0.129100 -0.556792

loop_
_geom_bond_atom_site_label_1
_geom_bond_atom_site_label_2
_ccdc_geom_bond_type
C8    N1    A    
Cu1   O1    S    
C19   C23   A    
C22   O11   S    
C6    C7    S    
C16   O9    A    
C26   H20   S    
C24   O2    D    
C5    C28   A    
C9    C10   A    
Cu1   O7    S    
C22   H11   S    
Cu2   O4    S    
C29   C30   A    
C2    C30   A    
C4    C18   S    
C4    O6    A    
C9    O11   S    
C1    C29   S    
C2    C3    A    
C15   O7    A    
C17   C25   A    
C6    H12   S    
C13   C14   S    
C10   H16   S    
C11   C13   S    
C12   C23   A    
H13   O3    S    
C26   C27   A    
C22   H10   S    
C11   N2    A    
C8    C11   A    
C13   H17   S    
C17   C26   A    
C2    H7    S    
C4    O5    A    
C28   C29   A    
C15   O8    A    
C18   C20   A    
C23   C25   A    
Cu1   N2    S    
C1    O1    A    
C5    C6    S    
C10   N2    A    
C6    H8    S    
C22   H9    S    
C9    N1    A    
Cu2   O6    S    
C12   C27   A    
Cu2   O8    S    
C13   H18   S    
C18   C21   A    
C7    H14   S    
Cu1   O9    S    
Cu2   N1    S    
C3    C15   S    
Cu2   O10   S    
C21   H5    S    
C25   H1    S    
C14   C24   S    
C24   O3    S    
C20   H4    S    
C8    C14   S    
C16   O10   A    
C30   H6    S    
C27   H3    S    
C1    O4    A    
C12   C21   A    
C19   H2    S    
Cu1   Cu2   S    
C7    C28   S    
C14   H19   S    
C19   C20   A    
C16   C17   S    
C3    C5    A    
Cu1   O5    S    
C7    H15   S    
