data_mof_unit_23253.cif
_audit_creation_date              2012-12-10T18:00:45-0500
_audit_creation_method            fapswitch 2.2
_symmetry_space_group_name_H-M    P1
_symmetry_Int_Tables_number       1
_space_group_crystal_system       triclinic
_cell_length_a                    15.868588
_cell_length_b                    10.808496
_cell_length_c                    9.526463
_cell_angle_alpha                 89.150271
_cell_angle_beta                  89.701254
_cell_angle_gamma                 90.463412
_cell_volume                      1633.68036037

loop_
_atom_site_label
_atom_site_type_symbol
_atom_type_description
_atom_site_fract_x
_atom_site_fract_y
_atom_site_fract_z
_atom_type_partial_charge
C1    C     C_R   0.500774 0.262195 0.500994 0.855514
C2    C     C_R   0.499227 0.737805 0.499006 0.855512
C3    C     C_R   0.458462 0.937830 0.389106 0.525595
C4    C     C_R   0.541544 0.062171 0.610893 0.525597
C5    C     C_R   0.499098 0.871791 0.497176 -0.170332
C6    C     C_R   0.500905 0.128209 0.502824 -0.170343
C7    C     C_R   0.446936 0.423860 0.076630 -0.244550
C8    C     C_R   0.553064 0.576140 0.923370 -0.244571
C9    C     C_R   0.447444 0.421397 0.926304 0.629089
C10   C     C_R   0.552557 0.578603 0.073696 0.629096
C11   C     C_R   0.339787 0.499712 0.500290 0.822151
C12   C     C_R   0.660213 0.500288 0.499710 0.822153
C13   C     C_3   0.971184 0.386891 0.522674 0.599881
C14   C     C_3   0.028816 0.613108 0.477326 0.599883
C15   C     C_3   0.027834 0.424899 0.396965 -0.303077
C16   C     C_3   0.972166 0.575101 0.603035 -0.303079
C17   C     C_1   0.250086 0.499147 0.500929 -0.145107
C18   C     C_1   0.749914 0.500853 0.499071 -0.145114
C19   C     C_3   0.026875 0.458007 0.626917 -0.294788
C20   C     C_3   0.973125 0.541992 0.373082 -0.294789
C21   C     C_3   0.082876 0.498223 0.500771 0.048135
C22   C     C_3   0.917124 0.501777 0.499229 0.048135
C23   C     C_1   0.174543 0.498657 0.501045 0.017660
C24   C     C_1   0.825457 0.501343 0.498954 0.017654
C25   C     C_R   0.458864 0.067113 0.394981 -0.377620
C26   C     C_R   0.541140 0.932886 0.605019 -0.377635
Cu1   Cu    Cu3+1 0.500000 0.500020 0.640660 1.012786
Cu2   Cu    Cu3+1 0.500000 0.499980 0.359340 1.012789
H1    H     H_    0.051820 0.362833 0.314274 0.155458
H2    H     H_    0.948179 0.637167 0.685726 0.155455
H3    H     H_    0.949939 0.577529 0.270533 0.159515
H4    H     H_    0.050061 0.422470 0.729466 0.159517
H5    H     H_    0.424846 0.121065 0.317561 0.164649
H6    H     H_    0.575157 0.878931 0.682437 0.164641
H7    H     H_    0.404028 0.365726 0.136983 0.157847
H8    H     H_    0.595971 0.634272 0.863013 0.157844
N1    N     N_R   0.500020 0.500030 0.852070 -0.212788
N2    N     N_R   0.499980 0.499970 0.147930 -0.212793
O1    O     O_R   0.500000 0.319660 0.618740 -0.499833
O2    O     O_R   0.500000 0.680340 0.381260 -0.499826
O3    O     O_R   0.499990 0.319630 0.381170 -0.610425
O4    O     O_R   0.500010 0.680370 0.618830 -0.610426
O5    O     O_R   0.379080 0.500000 0.618760 -0.535041
O6    O     O_R   0.620920 0.500000 0.381240 -0.535041
O7    O     O_R   0.379080 0.499970 0.381190 -0.581068
O8    O     O_R   0.620920 0.500030 0.618810 -0.581070
O9    O     O_3   0.934159 0.269305 0.546584 -0.565330
C27   C     C_3   0.998034 0.180525 0.562157 -0.316751
H9    H     H_    0.039520 0.201506 0.652627 0.160258
H10   H     H_    0.035901 0.172447 0.464231 0.153356
H11   H     H_    0.967994 0.089129 0.583622 0.187840
O10   O     O_3   0.065840 0.730695 0.453416 -0.565328
C28   C     C_3   0.001966 0.819475 0.437843 -0.316748
H12   H     H_    0.964099 0.827552 0.535768 0.153353
H13   H     H_    0.960480 0.798494 0.347372 0.160254
H14   H     H_    0.032005 0.910871 0.416378 0.187842
O11   O     O_3   0.412840 0.872637 0.289118 -0.551891
C29   C     C_3   0.415411 0.930618 0.155251 -0.312413
H15   H     H_    0.402475 0.859703 0.074993 0.189785
H16   H     H_    0.478234 0.972305 0.130186 0.130788
H17   H     H_    0.365192 0.001263 0.146663 0.158150
O12   O     O_3   0.587166 0.127369 0.710877 -0.551892
C30   C     C_3   0.584646 0.069361 0.844729 -0.312490
H18   H     H_    0.521837 0.027646 0.869833 0.130783
H19   H     H_    0.597594 0.140263 0.924996 0.189790
H20   H     H_    0.634880 0.998734 0.853256 0.158179
O13   O     O_3   0.392731 0.346893 0.850495 -0.537003
C31   C     C_3   0.377508 0.230964 0.916497 -0.364119
H21   H     H_    0.434892 0.192130 0.966694 0.139586
H22   H     H_    0.357010 0.164579 0.835537 0.198166
H23   H     H_    0.325468 0.238143 0.994288 0.156012
O14   O     O_3   0.607268 0.653106 0.149513 -0.536986
C32   C     C_3   0.622543 0.769006 0.083474 -0.364194
H24   H     H_    0.565181 0.807869 0.033236 0.139557
H25   H     H_    0.674594 0.761765 0.005712 0.156039
H26   H     H_    0.643050 0.835399 0.164419 0.198168

loop_
_geom_bond_atom_site_label_1
_geom_bond_atom_site_label_2
_ccdc_geom_bond_type
C30   H19   S    
C32   H24   S    
C28   H12   S    
C17   C23   T    
C18   C24   T    
C14   C21   S    
C19   C21   S    
Cu1   N1    S    
C16   C19   S    
C6    C25   A    
Cu2   O2    S    
C29   H16   S    
C4    O12   S    
Cu2   O3    S    
C8    H8    S    
C26   H6    S    
C27   H11   S    
C14   O10   S    
Cu1   O1    S    
C31   H21   S    
C11   O5    A    
C29   H17   S    
C27   H10   S    
C30   H20   S    
C32   H25   S    
C19   H4    S    
C15   H1    S    
C28   H13   S    
C15   C20   S    
Cu2   O7    S    
C13   C19   S    
O13   C31   S    
C14   C20   S    
C3    C25   A    
C4    C6    A    
C13   O9    S    
C29   H15   S    
C30   H18   S    
Cu2   O6    S    
C1    C6    S    
C12   O8    A    
C9    O13   S    
O12   C30   S    
Cu1   O5    S    
O9    C27   S    
Cu2   N2    S    
C9    N1    A    
C3    O11   S    
Cu1   O8    S    
C8    C10   A    
C27   H9    S    
C20   C22   S    
C13   C15   S    
C32   H26   S    
C14   C16   S    
C11   O7    A    
C2    C5    S    
C8    N1    A    
O10   C28   S    
C28   H14   S    
C1    O3    A    
C7    C9    A    
C11   C17   S    
C16   C22   S    
C7    H7    S    
O14   C32   S    
C3    C5    A    
C4    C26   A    
C10   N2    A    
C21   C23   S    
C12   O6    A    
Cu1   O4    S    
O11   C29   S    
C2    O4    A    
C31   H23   S    
C7    N2    A    
C13   C22   S    
C22   C24   S    
C1    O1    A    
C5    C26   A    
C2    O2    A    
C15   C21   S    
C31   H22   S    
C12   C18   S    
Cu1   Cu2   S    
C16   H2    S    
C25   H5    S    
C20   H3    S    
C10   O14   S    
