data_mof_unit_50337.cif
_audit_creation_date              2012-12-11T16:45:50-0500
_audit_creation_method            fapswitch 2.2
_symmetry_space_group_name_H-M    P1
_symmetry_Int_Tables_number       1
_space_group_crystal_system       triclinic
_cell_length_a                    20.154898
_cell_length_b                    17.050177
_cell_length_c                    15.530924
_cell_angle_alpha                 89.999946
_cell_angle_beta                  52.019618
_cell_angle_gamma                 89.999919
_cell_volume                      4206.83106927

loop_
_atom_site_label
_atom_site_type_symbol
_atom_type_description
_atom_site_fract_x
_atom_site_fract_y
_atom_site_fract_z
_atom_type_partial_charge
C1    C     C_R   0.854865 0.685043 0.022524 -0.175711
C2    C     C_R   0.162208 0.316820 0.055357 0.173527
C3    C     C_R   0.337798 0.816819 0.944633 0.173570
C4    C     C_R   0.659281 0.815489 0.056498 0.150973
C5    C     C_R   0.886580 0.684262 0.304797 0.079340
C6    C     C_R   0.184255 0.647067 0.674251 0.070636
C7    C     C_R   0.315735 0.147065 0.325734 0.070643
C8    C     C_R   0.613427 0.184262 0.695202 0.079391
C9    C     C_R   0.843705 0.710853 0.488374 0.124170
C10   C     C_R   0.301342 0.639093 0.474979 0.145888
C11   C     C_R   0.198615 0.139088 0.525003 0.145845
C12   C     C_R   0.154343 0.677603 0.960069 -0.183470
C13   C     C_R   0.656216 0.210898 0.511670 0.124243
C14   C     C_R   0.866607 0.739548 0.388946 0.058896
C15   C     C_R   0.264654 0.674413 0.575889 0.048342
C16   C     C_R   0.235338 0.174424 0.424087 0.048362
C17   C     C_R   0.633375 0.239564 0.611079 0.058888
C18   C     C_R   0.195566 0.241540 0.422209 -0.172254
C19   C     C_R   0.644400 0.319982 0.619296 -0.176589
C20   C     C_R   0.855631 0.819977 0.380720 -0.176584
C21   C     C_R   0.304465 0.741498 0.577756 -0.172266
C22   C     C_R   0.138803 0.283305 0.518853 -0.160458
C23   C     C_R   0.345652 0.177599 0.039938 -0.183460
C24   C     C_R   0.694344 0.365316 0.524181 -0.151516
C25   C     C_R   0.805691 0.865313 0.475831 -0.151515
C26   C     C_R   0.361229 0.783266 0.481115 -0.160457
C27   C     C_R   0.122157 0.257628 0.616766 0.013033
C28   C     C_R   0.734652 0.329322 0.421619 0.053825
C29   C     C_R   0.765344 0.829312 0.578397 0.053839
C30   C     C_R   0.377850 0.757610 0.383210 0.013024
C31   C     C_R   0.790080 0.753543 0.581971 0.060953
C32   C     C_R   0.359623 0.678593 0.378850 0.098382
C33   C     C_R   0.140352 0.178598 0.621128 0.098323
C34   C     C_R   0.645126 0.185049 0.977490 -0.175725
C35   C     C_R   0.709853 0.253582 0.418065 0.060960
C36   C     C_3   0.741505 0.681864 0.648111 0.082627
C37   C     C_3   0.330239 0.636113 0.323028 0.097493
C38   C     C_3   0.169705 0.136078 0.676962 0.097499
C39   C     C_3   0.758350 0.181886 0.351906 0.082552
C40   C     C_R   0.847695 0.333921 0.219445 -0.048049
C41   C     C_R   0.095079 0.301618 0.792284 -0.124310
C42   C     C_R   0.404919 0.801618 0.207711 -0.124361
C43   C     C_R   0.652312 0.833931 0.780562 -0.048115
C44   C     C_3   0.803427 0.634780 0.546241 -0.602581
C45   C     C_R   0.808831 0.363496 0.323115 0.048048
C46   C     C_3   0.264260 0.596460 0.430247 -0.616513
C47   C     C_3   0.235654 0.096395 0.569758 -0.616415
C48   C     C_3   0.696406 0.134816 0.453781 -0.602633
C49   C     C_2   0.736710 0.216615 0.025075 0.775181
C50   C     C_2   0.217374 0.191121 0.059022 0.815778
C51   C     C_2   0.282624 0.691123 0.940979 0.815802
C52   C     C_2   0.763274 0.716604 0.974947 0.775187
C53   C     C_2   0.277554 0.769590 0.948268 -0.462125
C54   C     C_2   0.710143 0.761547 0.062069 -0.422601
C55   C     C_2   0.789846 0.261552 0.937947 -0.422591
C56   C     C_R   0.107162 0.316216 0.696426 0.050875
C57   C     C_2   0.222446 0.269588 0.051732 -0.462104
C58   C     C_R   0.860671 0.391191 0.904478 -0.189804
C59   C     C_R   0.140242 0.392227 0.094676 -0.184625
C60   C     C_R   0.359761 0.892227 0.905320 -0.184622
C61   C     C_R   0.639325 0.891189 0.095527 -0.189786
C62   C     C_R   0.907821 0.607422 0.301948 -0.153578
C63   C     C_R   0.138480 0.582480 0.683705 -0.124158
C64   C     C_R   0.361501 0.082466 0.316281 -0.124180
C65   C     C_R   0.592184 0.107422 0.698050 -0.153605
C66   C     C_R   0.875578 0.299496 0.994270 0.261919
C67   C     C_R   0.392840 0.816209 0.303567 0.050879
C68   C     C_R   0.131345 0.301224 0.999180 0.260055
C69   C     C_R   0.368661 0.801222 0.000810 0.260020
C70   C     C_R   0.624417 0.799495 0.005736 0.261921
C71   C     C_R   0.895672 0.698138 0.210055 -0.115486
C72   C     C_R   0.140876 0.679780 0.777200 -0.100287
C73   C     C_R   0.359129 0.179786 0.222791 -0.100301
C74   C     C_R   0.604334 0.198135 0.789944 -0.115488
C75   C     C_R   0.859903 0.421621 0.316286 -0.099113
C76   C     C_R   0.092952 0.395154 0.696233 -0.119952
C77   C     C_R   0.407050 0.895148 0.303766 -0.119978
C78   C     C_R   0.691182 0.863510 0.676894 0.048026
C79   C     C_R   0.640110 0.921632 0.683716 -0.099053
C80   C     C_R   0.847433 0.594027 0.922908 -0.045431
C81   C     C_R   0.170443 0.582504 0.045484 -0.064478
C82   C     C_R   0.329555 0.082502 0.954519 -0.064484
C83   C     C_R   0.652558 0.094032 0.077106 -0.045443
C84   C     C_R   0.815554 0.664286 0.978728 -0.038653
C85   C     C_R   0.207426 0.648857 0.978486 -0.052072
C86   C     C_R   0.292569 0.148853 0.021521 -0.052063
C87   C     C_R   0.684432 0.164295 0.021293 -0.038640
C88   C     C_R   0.840712 0.315492 0.943511 0.150970
F1    F     F_    0.723810 0.224746 0.121693 -0.715104
F2    F     F_    0.143391 0.151956 0.108575 -0.638940
F3    F     F_    0.356607 0.651956 0.891409 -0.638924
F4    F     F_    0.776176 0.724733 0.878327 -0.715063
H1    H     H_    0.851488 0.740133 0.059623 0.114436
H2    H     H_    0.301149 0.674660 0.297158 0.132587
H3    H     H_    0.198828 0.174599 0.702808 0.132592
H4    H     H_    0.752857 0.169841 0.286197 0.170850
H5    H     H_    0.845993 0.598447 0.552742 0.186987
H6    H     H_    0.199558 0.616708 0.465868 0.189351
H7    H     H_    0.300373 0.116586 0.534152 0.189314
H8    H     H_    0.653782 0.098557 0.447312 0.187015
H9    H     H_    0.774287 0.602657 0.514844 0.224601
H10   H     H_    0.271717 0.531871 0.430132 0.227183
H11   H     H_    0.228138 0.031811 0.569878 0.227190
H12   H     H_    0.159200 0.732592 0.923110 0.103870
H13   H     H_    0.725540 0.102617 0.485126 0.224580
H14   H     H_    0.220137 0.800599 0.977405 0.132338
H15   H     H_    0.705904 0.759674 0.135301 0.128710
H16   H     H_    0.794088 0.259674 0.864712 0.128709
H17   H     H_    0.279862 0.300596 0.022603 0.132341
H18   H     H_    0.821673 0.291501 0.196856 0.147540
H19   H     H_    0.077030 0.245132 0.829563 0.167879
H20   H     H_    0.422964 0.745132 0.170428 0.167884
H21   H     H_    0.678330 0.791504 0.803150 0.147550
H22   H     H_    0.851072 0.419153 0.850419 0.123220
H23   H     H_    0.340790 0.232588 0.076904 0.103865
H24   H     H_    0.149566 0.420728 0.148688 0.126752
H25   H     H_    0.350435 0.920729 0.851311 0.126750
H26   H     H_    0.648923 0.919152 0.149587 0.123223
H27   H     H_    0.922399 0.580233 0.351342 0.110821
H28   H     H_    0.153082 0.541726 0.621479 0.112783
H29   H     H_    0.346881 0.041702 0.378504 0.112797
H30   H     H_    0.577589 0.080237 0.648672 0.110826
H31   H     H_    0.895311 0.754534 0.178575 0.096540
H32   H     H_    0.152934 0.735903 0.796276 0.095162
H33   H     H_    0.347095 0.235919 0.203709 0.095166
H34   H     H_    0.648499 0.240139 0.940396 0.114431
H35   H     H_    0.604686 0.254529 0.821435 0.096523
H36   H     H_    0.848979 0.456852 0.381717 0.096115
H37   H     H_    0.082303 0.424534 0.644106 0.087331
H38   H     H_    0.417691 0.924524 0.355902 0.087343
H39   H     H_    0.651038 0.956861 0.618282 0.096123
H40   H     H_    0.835913 0.566278 0.870601 0.123108
H41   H     H_    0.194513 0.548345 0.079375 0.126479
H42   H     H_    0.305487 0.048343 0.920625 0.126480
H43   H     H_    0.664075 0.066285 0.129416 0.123106
H44   H     H_    0.215142 0.267417 0.346261 0.131473
H45   H     H_    0.118934 0.340376 0.512321 0.125727
H46   H     H_    0.622696 0.345747 0.696284 0.140565
H47   H     H_    0.877375 0.845755 0.303719 0.140590
H48   H     H_    0.284918 0.767347 0.653698 0.131495
H49   H     H_    0.708771 0.425159 0.530639 0.137834
H50   H     H_    0.791302 0.925172 0.469367 0.137873
H51   H     H_    0.381125 0.840325 0.487640 0.125733
H52   H     H_    0.746963 0.669764 0.713841 0.170772
I1    I     I_    0.616620 0.669995 0.694039 -0.272345
I2    I     I_    0.421735 0.551844 0.207454 -0.311680
I3    I     I_    0.078169 0.051850 0.792565 -0.311657
I4    I     I_    0.883237 0.169877 0.305926 -0.272379
I5    I     I_    0.907160 0.186653 0.018270 -0.315632
I6    I     I_    0.139866 0.192246 0.928264 -0.326881
I7    I     I_    0.360168 0.692241 0.071685 -0.326840
I8    I     I_    0.592830 0.686650 0.981741 -0.315721
N1    N     N_R   0.908660 0.628630 0.995840 -0.034439
N2    N     N_R   0.096530 0.421430 0.063580 -0.064610
N3    N     N_R   0.403470 0.921430 0.936420 -0.064610
N4    N     N_R   0.596530 0.921430 0.063580 -0.062872
N5    N     N_R   0.927500 0.575670 0.211370 -0.043484
N6    N     N_R   0.072500 0.575670 0.788630 -0.044570
N7    N     N_R   0.427500 0.075670 0.211370 -0.044572
N8    N     N_R   0.572500 0.075670 0.788630 -0.043486
N9    N     N_R   0.908660 0.365680 0.995820 -0.090501
N10   N     N_R   0.091340 0.365680 0.004180 -0.080288
N11   N     N_R   0.408660 0.865680 0.995820 -0.080285
N12   N     N_R   0.091340 0.628630 0.004160 -0.030944
N13   N     N_R   0.591340 0.865680 0.004180 -0.090494
N14   N     N_R   0.922310 0.631420 0.151980 -0.040326
N15   N     N_R   0.077690 0.631420 0.848020 -0.039995
N16   N     N_R   0.422310 0.131420 0.151980 -0.039993
N17   N     N_R   0.577690 0.131420 0.848020 -0.040326
N18   N     N_R   0.927500 0.426330 0.211360 -0.045694
N19   N     N_R   0.072500 0.426330 0.788640 -0.044220
N20   N     N_R   0.427500 0.926330 0.211360 -0.044219
N21   N     N_R   0.572500 0.926330 0.788640 -0.045687
N22   N     N_R   0.903470 0.570760 0.936440 -0.049663
N23   N     N_R   0.408660 0.128630 0.995840 -0.030945
N24   N     N_R   0.096530 0.570760 0.063560 -0.047280
N25   N     N_R   0.403470 0.070760 0.936440 -0.047283
N26   N     N_R   0.596530 0.070760 0.063560 -0.049660
N27   N     N_R   0.591340 0.128630 0.004160 -0.034437
N28   N     N_R   0.922310 0.368460 0.151950 -0.039948
N29   N     N_R   0.077690 0.368460 0.848050 -0.043113
N30   N     N_R   0.422310 0.868460 0.151950 -0.043108
N31   N     N_R   0.577690 0.868460 0.848050 -0.039931
N32   N     N_R   0.903470 0.421430 0.936420 -0.062874
Ni1   Ni    Ni4+2 1.000000 0.630300 0.000000 0.231099
Ni2   Ni    Ni4+2 0.500000 0.130300 0.000000 0.231094
Ni3   Ni    Ni4+2 0.000000 0.369700 0.000000 0.273593
Ni4   Ni    Ni4+2 0.500000 0.869700 0.000000 0.273587
Ni5   Ni    Ni4+2 0.988090 0.497570 0.863760 0.212302
Ni6   Ni    Ni4+2 0.011910 0.497570 0.136240 0.219157
Ni7   Ni    Ni4+2 0.488090 0.997570 0.863760 0.219165
Ni8   Ni    Ni4+2 0.511910 0.997570 0.136240 0.212302

loop_
_geom_bond_atom_site_label_1
_geom_bond_atom_site_label_2
_ccdc_geom_bond_type
C81   H41   S    
C83   C87   A    
C21   C26   A    
C82   H42   S    
N25   Ni7   S    
N14   Ni1   S    
C49   C87   S    
C11   C47   S    
C25   H50   S    
C67   C77   A    
C80   C84   A    
C51   C85   S    
C4    C70   A    
N26   N27   A    
N29   Ni3   S    
C2    C57   S    
N23   N25   A    
N27   Ni2   S    
N20   Ni8   S    
C1    C84   A    
C6    C72   A    
C46   H10   S    
C22   H45   S    
C54   H15   S    
C56   C76   A    
C20   H47   S    
C71   H31   S    
C3    C69   A    
N17   Ni2   S    
C12   H12   S    
C2    C68   A    
C10   C15   A    
C73   N16   A    
C66   C88   A    
N10   Ni3   S    
C23   N23   A    
C20   C25   A    
C64   H29   S    
N15   Ni1   S    
C47   H7    S    
N7    N16   A    
N19   Ni5   S    
C44   H5    S    
C58   N32   A    
C75   H36   S    
C76   H37   S    
C55   C88   S    
C52   C84   S    
C79   N21   A    
N5    Ni6   S    
C74   N17   A    
C42   H20   S    
C51   F3    S    
C6    C15   S    
C40   N28   A    
C53   H14   S    
C50   F2    S    
C57   H17   S    
C29   C78   S    
C74   H35   S    
C28   C35   A    
C5    C62   A    
C59   H24   S    
C23   C86   A    
C82   N25   A    
C39   I4    S    
C10   C46   S    
N8    N17   A    
C18   H44   S    
N9    Ni3   S    
C37   I2    S    
C5    C14   S    
C83   H43   S    
C30   C67   S    
C77   H38   S    
C3    C60   A    
C46   H6    S    
C8    C65   A    
C18   C22   A    
C72   H32   S    
C41   N29   A    
C34   N27   A    
C65   N8    A    
C59   N2    A    
C52   C54   D    
N6    N15   A    
C25   C29   A    
C40   C45   A    
C48   H8    S    
C28   C45   S    
N13   Ni4   S    
C47   H11   S    
C69   I7    S    
C81   N24   A    
C14   C20   A    
C11   C33   A    
N16   Ni2   S    
C66   I5    S    
C7    C73   A    
N12   Ni1   S    
C70   N13   A    
C9    C31   A    
C78   C79   A    
C40   H18   S    
N3    N11   A    
C82   C86   A    
N1    N22   A    
C71   N14   A    
C42   N30   A    
C66   N9    A    
N18   N28   A    
N11   Ni4   S    
C43   C78   A    
C6    C63   A    
C38   H3    S    
C76   N19   A    
C35   C39   S    
C9    C14   A    
C41   C56   A    
C77   N20   A    
N28   Ni3   S    
N20   N30   A    
C12   N12   A    
N26   Ni8   S    
C11   C16   A    
N24   Ni6   S    
C48   H13   S    
C24   H49   S    
C34   H34   S    
C65   H30   S    
C79   H39   S    
C75   N18   A    
C8    C74   A    
C38   C47   S    
C62   N5    A    
C70   I8    S    
C60   H25   S    
C16   C18   A    
N30   Ni4   S    
C32   C37   S    
C27   C56   S    
C1    N1    A    
C80   H40   S    
C62   H27   S    
N3    Ni7   S    
C12   C85   A    
C1    H1    S    
C7    C16   S    
C26   C30   A    
C22   C27   A    
C42   C67   A    
C72   N15   A    
N6    Ni5   S    
C26   H51   S    
C61   N4    A    
N4    Ni8   S    
C24   C28   A    
C68   I6    S    
C9    C44   S    
C7    C64   A    
C83   N26   A    
C4    C54   S    
C61   H26   S    
C2    C59   A    
C50   C57   D    
N7    Ni8   S    
N2    N10   A    
C69   N11   A    
N8    Ni7   S    
C49   F1    S    
C58   C88   A    
N5    N14   A    
C13   C48   S    
C44   H9    S    
C13   C35   A    
C68   N10   A    
N18   Ni6   S    
C8    C17   S    
C63   N6    A    
C13   C17   A    
C55   H16   S    
C45   C75   A    
N9    N32   A    
C19   C24   A    
C36   H52   S    
C60   N3    A    
C80   N22   A    
C29   C31   A    
C49   C55   D    
N31   Ni4   S    
C43   H21   S    
N23   Ni2   S    
C30   C32   A    
C63   H28   S    
C3    C53   S    
C38   I3    S    
N1    Ni1   S    
N4    N13   A    
C19   H46   S    
C73   H33   S    
C4    C61   A    
C64   N7    A    
C43   N31   A    
C17   C19   A    
N21   Ni7   S    
C37   H2    S    
N12   N24   A    
C34   C87   A    
N2    Ni6   S    
N19   N29   A    
C39   H4    S    
C36   C44   S    
C50   C86   S    
N22   Ni5   S    
C23   H23   S    
C10   C32   A    
C36   I1    S    
C15   C21   A    
N21   N31   A    
C5    C71   A    
C41   H19   S    
C27   C33   A    
C58   H22   S    
C31   C36   S    
C33   C38   S    
C21   H48   S    
C51   C53   D    
C37   C46   S    
N32   Ni5   S    
C52   F4    S    
C81   C85   A    
C39   C48   S    
