data_mof_unit_65923.cif
_audit_creation_date              2012-12-10T19:04:15-0500
_audit_creation_method            fapswitch 2.2
_symmetry_space_group_name_H-M    P1
_symmetry_Int_Tables_number       1
_space_group_crystal_system       triclinic
_cell_length_a                    10.669841
_cell_length_b                    13.063729
_cell_length_c                    13.618723
_cell_angle_alpha                 85.693038
_cell_angle_beta                  89.988321
_cell_angle_gamma                 93.062609
_cell_volume                      1890.20410979

loop_
_atom_site_label
_atom_site_type_symbol
_atom_type_description
_atom_site_fract_x
_atom_site_fract_y
_atom_site_fract_z
_atom_type_partial_charge
C1    C     C_R   0.499145 0.481210 0.685142 1.000549
C2    C     C_1   0.498411 0.466290 0.788338 -0.034656
C3    C     C_2   0.460343 0.032848 0.476613 0.217300
C4    C     C_R   0.742481 0.499674 0.499103 0.910104
C5    C     C_2   0.539391 0.967113 0.523693 0.212077
C6    C     C_1   0.527282 0.854771 0.518413 0.236426
C7    C     C_1   0.472584 0.145210 0.481734 0.219679
C8    C     C_R   0.501292 0.518817 0.314839 0.874521
C9    C     C_R   0.257319 0.500027 0.500958 0.866989
C10   C     C_3   0.921581 0.389376 0.487245 -0.343570
C11   C     C_3   0.063819 0.392305 0.477756 -0.389361
C12   C     C_3   0.120852 0.499505 0.504804 -0.044545
C13   C     C_3   0.933006 0.573564 0.417299 -0.478792
C14   C     C_3   0.927909 0.536519 0.602185 0.148435
C15   C     C_3   0.878278 0.498735 0.502353 0.032277
C16   C     C_2   0.133989 0.621039 0.649399 0.912649
C17   C     C_2   0.105588 0.429875 0.683712 0.990202
C18   C     C_3   0.076536 0.578874 0.422640 -0.370088
C19   C     C_3   0.072928 0.521802 0.611653 -0.213812
C20   C     C_1   0.502048 0.533822 0.211629 -0.152815
C21   C     C_2   0.502353 0.544683 0.020373 -0.134450
C22   C     C_2   0.497742 0.455530 0.979550 -0.138772
C23   C     C_1   0.497898 0.457476 0.875784 0.078017
C24   C     C_1   0.502403 0.542708 0.124161 0.034577
Cl1   Cl    Cl    0.664206 0.014934 0.594813 -0.562103
Cl2   Cl    Cl    0.335422 0.984997 0.405620 -0.569080
Cl3   Cl    Cl    0.834554 0.490027 0.708425 -0.573611
H1    H     H_    0.879731 0.360147 0.419114 0.184337
H2    H     H_    0.114927 0.561654 0.349960 0.175967
H3    H     H_    0.911319 0.620199 0.598403 0.166440
H4    H     H_    0.228521 0.689962 0.757281 0.357155
H5    H     H_    0.054246 0.291703 0.752981 0.362451
H6    H     H_    0.899178 0.652257 0.421763 0.215346
H7    H     H_    0.111677 0.658411 0.434220 0.252051
H8    H     H_    0.494007 0.382273 0.023279 0.172943
H9    H     H_    0.506095 0.617939 0.976635 0.176623
H10   H     H_    0.889930 0.334766 0.550031 0.261900
H11   H     H_    0.100041 0.327449 0.525183 0.218866
H12   H     H_    0.089756 0.378658 0.400727 0.197639
H13   H     H_    0.902195 0.546743 0.344972 0.190433
N1    N     N_1   0.479840 0.234530 0.484780 -0.085799
N2    N     N_1   0.520150 0.765470 0.515220 -0.080863
O1    O     O_R   0.492620 0.402510 0.634760 -0.583699
O2    O     O_R   0.192878 0.619649 0.741368 -0.751386
O3    O     O_2   0.212963 0.423541 0.714162 -0.633614
O4    O     O_R   0.018416 0.348019 0.707812 -0.736594
O5    O     O_R   0.505570 0.572960 0.644530 -0.600410
O6    O     O_R   0.678730 0.414780 0.495130 -0.611558
O7    O     O_R   0.691680 0.585220 0.504900 -0.619967
O8    O     O_R   0.494430 0.427040 0.355470 -0.609558
O9    O     O_R   0.507380 0.597490 0.365240 -0.605267
O10   O     O_R   0.308320 0.414780 0.495100 -0.615687
O11   O     O_R   0.321270 0.585220 0.504870 -0.599554
O12   O     O_2   0.128044 0.703162 0.600671 -0.604239
Zn1   Zn    Zn3+2 0.491360 0.386190 0.493470 1.035026
Zn2   Zn    Zn3+2 0.508640 0.613810 0.506530 1.042866

loop_
_geom_bond_atom_site_label_1
_geom_bond_atom_site_label_2
_ccdc_geom_bond_type
O6    Zn1   S    
C11   C12   S    
C13   H6    S    
C14   Cl3   S    
C11   H11   S    
O7    Zn2   S    
C16   O2    S    
O8    Zn1   S    
O10   Zn1   S    
C4    O7    A    
C10   C11   S    
C4    C15   S    
C7    N1    T    
C21   H9    S    
C21   C22   D    
C11   H12   S    
C22   H8    S    
C18   H7    S    
C8    O9    A    
C8    C20   S    
C9    O10   A    
C13   C18   S    
C14   H3    S    
C10   H10   S    
C5    Cl1   S    
C12   C19   S    
O1    Zn1   S    
C17   C19   S    
C17   O3    D    
C1    C2    S    
C3    C7    S    
C10   C15   S    
C13   C15   S    
C4    O6    A    
C5    C6    S    
C9    C12   S    
C16   O12   D    
O11   Zn2   S    
C9    O11   A    
H4    O2    S    
C10   H1    S    
C8    O8    A    
C17   O4    S    
O9    Zn2   S    
C6    N2    T    
C21   C24   S    
C12   C18   S    
C2    C23   T    
C18   H2    S    
C14   C15   S    
N1    Zn1   S    
C13   H13   S    
N2    Zn2   S    
C22   C23   S    
H5    O4    S    
C14   C19   S    
C1    O1    A    
C3    Cl2   S    
C1    O5    A    
C20   C24   T    
O5    Zn2   S    
C3    C5    D    
C16   C19   S    
