data_mof_unit_62950.cif
_audit_creation_date              2012-12-10T20:49:14-0500
_audit_creation_method            fapswitch 2.2
_symmetry_space_group_name_H-M    P1
_symmetry_Int_Tables_number       1
_space_group_crystal_system       triclinic
_cell_length_a                    19.187953
_cell_length_b                    19.142875
_cell_length_c                    19.428962
_cell_angle_alpha                 90.303539
_cell_angle_beta                  94.640149
_cell_angle_gamma                 84.973124
_cell_volume                      7085.74128213

loop_
_atom_site_label
_atom_site_type_symbol
_atom_type_description
_atom_site_fract_x
_atom_site_fract_y
_atom_site_fract_z
_atom_type_partial_charge
C1    C     C_R   0.492212 0.689290 0.507785 0.501253
C2    C     C_2   0.471819 0.501887 0.016363 -0.140859
C3    C     C_2   0.507846 0.541017 0.977633 -0.143996
C4    C     C_R   0.508545 0.310267 0.493206 0.500638
C5    C     C_R   0.504794 0.498444 0.762551 0.051120
C6    C     C_R   0.512345 0.232533 0.489893 0.023867
C7    C     C_R   0.452997 0.200998 0.507594 -0.176412
C8    C     C_R   0.450544 0.129043 0.504408 -0.118765
C9    C     C_R   0.507897 0.085926 0.484406 0.213219
C10   C     C_R   0.569428 0.115148 0.467552 0.041997
C11   C     C_R   0.572208 0.189514 0.469507 0.006347
C12   C     C_R   0.477493 0.505880 0.092014 0.004197
C13   C     C_R   0.457864 0.880852 0.461702 -0.097711
C14   C     C_R   0.460740 0.807985 0.456579 -0.155108
C15   C     C_R   0.480099 0.912578 0.524286 0.220624
C16   C     C_R   0.689907 0.491739 0.507234 0.503800
C17   C     C_R   0.486837 0.766001 0.513458 0.030861
C18   C     C_R   0.507393 0.797827 0.576264 -0.152780
C19   C     C_R   0.502968 0.870698 0.581796 -0.114743
C20   C     C_R   0.233258 0.513229 0.492635 0.027307
C21   C     C_R   0.200700 0.460953 0.525039 -0.156436
C22   C     C_R   0.128189 0.466124 0.527137 -0.096078
C23   C     C_R   0.419346 0.493092 0.127028 -0.109509
C24   C     C_R   0.086665 0.524024 0.496792 0.223363
C25   C     C_R   0.119237 0.576628 0.465314 -0.116372
C26   C     C_R   0.192004 0.571058 0.462526 -0.154982
C27   C     C_R   0.876608 0.539476 0.534466 -0.096820
C28   C     C_R   0.310120 0.508211 0.492956 0.502399
C29   C     C_R   0.803857 0.542659 0.536329 -0.158629
C30   C     C_R   0.913014 0.480443 0.506054 0.223275
C31   C     C_R   0.766702 0.487504 0.509130 0.029529
C32   C     C_R   0.803347 0.428334 0.481942 -0.153566
C33   C     C_R   0.876042 0.424580 0.481376 -0.115681
C34   C     C_R   0.422871 0.494167 0.199048 0.002819
C35   C     C_R   0.508117 0.492231 0.688091 0.502456
C36   C     C_R   0.491644 0.508044 0.311744 0.490678
C37   C     C_R   0.486560 0.508646 0.236373 0.055243
C38   C     C_R   0.546080 0.521906 0.201330 -0.004640
C39   C     C_R   0.540648 0.519344 0.128973 -0.090333
C40   C     C_3   0.614012 0.538566 0.242278 -0.264829
C41   C     C_3   0.671324 0.563140 0.200127 -0.460953
C42   C     C_3   0.631996 0.065260 0.450532 -0.262613
C43   C     C_3   0.632612 0.053838 0.372738 -0.439503
C44   C     C_3   0.638833 0.221783 0.452141 -0.257757
C45   C     C_R   0.443441 0.548959 0.859354 0.063234
C46   C     C_3   0.679348 0.247601 0.516925 -0.419409
C47   C     C_3   0.379894 0.616802 0.708897 -0.303588
C48   C     C_3   0.632740 0.445958 0.781592 -0.268414
C49   C     C_3   0.688498 0.497496 0.776587 -0.421887
C50   C     C_3   0.378709 0.586986 0.887784 -0.249795
C51   C     C_3   0.390881 0.662364 0.908565 -0.436540
C52   C     C_3   0.358522 0.477021 0.233912 -0.266110
C53   C     C_3   0.305660 0.541218 0.235998 -0.418503
C54   C     C_R   0.443468 0.531995 0.788505 0.123892
C55   C     C_R   0.566017 0.482105 0.806740 -0.017052
C56   C     C_R   0.565138 0.498664 0.876526 -0.128238
C57   C     C_R   0.504951 0.530789 0.902943 0.001524
H1    H     H_    0.611615 0.485115 0.911069 0.116341
H2    H     H_    0.088024 0.621710 0.442342 0.116638
H3    H     H_    0.215999 0.612405 0.437800 0.132535
H4    H     H_    0.775808 0.384846 0.461248 0.125471
H5    H     H_    0.104763 0.425233 0.553135 0.133485
H6    H     H_    0.903643 0.378526 0.460390 0.115577
H7    H     H_    0.231275 0.415988 0.548995 0.134200
H8    H     H_    0.543724 0.577015 0.000578 0.114903
H9    H     H_    0.370939 0.481818 0.097995 0.103285
H10   H     H_    0.436251 0.466444 0.991521 0.122167
H11   H     H_    0.585871 0.525983 0.100878 0.113286
H12   H     H_    0.444091 0.784473 0.407833 0.128569
H13   H     H_    0.691798 0.520181 0.166623 0.144536
H14   H     H_    0.650835 0.609666 0.168352 0.148971
H15   H     H_    0.715696 0.578222 0.235772 0.145094
H16   H     H_    0.601271 0.580841 0.279874 0.143801
H17   H     H_    0.636415 0.491231 0.271871 0.174180
H18   H     H_    0.633830 0.104282 0.345168 0.143483
H19   H     H_    0.679712 0.018955 0.361705 0.134763
H20   H     H_    0.585050 0.028591 0.352847 0.166862
H21   H     H_    0.682311 0.083583 0.472577 0.127281
H22   H     H_    0.630810 0.013393 0.475556 0.172402
H23   H     H_    0.438797 0.912505 0.416933 0.129195
H24   H     H_    0.647520 0.288929 0.543597 0.162108
H25   H     H_    0.694670 0.203197 0.553165 0.140587
H26   H     H_    0.727712 0.269775 0.502477 0.127144
H27   H     H_    0.675259 0.185012 0.425630 0.126327
H28   H     H_    0.627038 0.264040 0.413295 0.179762
H29   H     H_    0.367124 0.510061 0.711077 0.274443
H30   H     H_    0.420743 0.615864 0.671491 0.151492
H31   H     H_    0.388045 0.659341 0.746896 0.149301
H32   H     H_    0.327712 0.628386 0.680311 0.138601
H33   H     H_    0.668886 0.540785 0.740330 0.184491
H34   H     H_    0.526629 0.766352 0.621124 0.127971
H35   H     H_    0.702850 0.519859 0.828134 0.139725
H36   H     H_    0.736305 0.469843 0.757160 0.134356
H37   H     H_    0.653470 0.402976 0.817895 0.133225
H38   H     H_    0.622983 0.420915 0.730459 0.144686
H39   H     H_    0.430513 0.663594 0.953270 0.158250
H40   H     H_    0.408939 0.691126 0.864832 0.145790
H41   H     H_    0.341010 0.689840 0.923593 0.131933
H42   H     H_    0.332360 0.588949 0.849616 0.176322
H43   H     H_    0.363225 0.558395 0.932792 0.131130
H44   H     H_    0.329634 0.584579 0.264747 0.182201
H45   H     H_    0.403105 0.106662 0.516672 0.137196
H46   H     H_    0.287562 0.559250 0.182768 0.139507
H47   H     H_    0.259478 0.527544 0.262426 0.137176
H48   H     H_    0.333150 0.434319 0.205240 0.128239
H49   H     H_    0.372251 0.456833 0.287161 0.153535
H50   H     H_    0.519620 0.894615 0.630324 0.116957
H51   H     H_    0.407027 0.232484 0.522684 0.139192
H52   H     H_    0.776584 0.588666 0.557745 0.130190
H53   H     H_    0.904339 0.582688 0.555472 0.132469
N1    N     N_2   0.503584 0.012645 0.478436 -0.262369
N2    N     N_2   0.481885 0.986127 0.530229 -0.252946
N3    N     N_2   0.012572 0.531386 0.498241 -0.251038
N4    N     N_2   0.986781 0.474248 0.503399 -0.254915
N5    N     N_2   0.382001 0.549804 0.743509 -0.538209
O1    O     O_3   0.500000 0.500000 0.500000 -0.426764
O2    O     O_R   0.546320 0.532340 0.658770 -0.550187
O3    O     O_R   0.450550 0.549430 0.344370 -0.546395
O4    O     O_R   0.467400 0.453980 0.652500 -0.551278
O5    O     O_R   0.535730 0.464240 0.344360 -0.553144
O6    O     O_R   0.656240 0.454400 0.463600 -0.552258
O7    O     O_R   0.340160 0.549180 0.454800 -0.549524
O8    O     O_R   0.536860 0.652450 0.548350 -0.547789
O9    O     O_R   0.466740 0.343960 0.533260 -0.543087
O10   O     O_R   0.451210 0.659450 0.463610 -0.545724
O11   O     O_R   0.545190 0.344140 0.454780 -0.554193
O12   O     O_R   0.656710 0.532590 0.548340 -0.545252
O13   O     O_R   0.346890 0.463830 0.533270 -0.549195
Zn1   Zn    Zn3+2 0.558280 0.441710 0.441700 0.908891
Zn2   Zn    Zn3+2 0.558950 0.553420 0.562770 0.914874
Zn3   Zn    Zn3+2 0.446190 0.441460 0.553820 0.917350
Zn4   Zn    Zn3+2 0.436580 0.563410 0.441710 0.916791

loop_
_geom_bond_atom_site_label_1
_geom_bond_atom_site_label_2
_ccdc_geom_bond_type
C9    N1    S    
C48   C55   S    
C55   C56   A    
C51   H40   S    
C48   H38   S    
C27   C29   A    
C34   C37   A    
C39   H11   S    
C35   O4    A    
N1    N2    D    
C49   H33   S    
C2    C12   S    
C7    C8    A    
C40   H16   S    
C16   C31   S    
C15   C19   A    
C12   C23   A    
C45   C57   A    
C50   H42   S    
C48   H37   S    
C18   H34   S    
C23   H9    S    
C29   H52   S    
C36   C37   S    
C1    O10   A    
C32   H4    S    
C38   C39   A    
C28   O7    A    
C10   C42   S    
C53   H47   S    
C56   C57   A    
C4    O9    A    
C18   C19   A    
C21   H7    S    
C46   H25   S    
O1    Zn1   S    
C27   H53   S    
C53   H44   S    
C8    C9    A    
O4    Zn3   S    
C36   O3    A    
C9    C10   A    
C51   H39   S    
C41   H14   S    
C51   H41   S    
C8    H45   S    
C13   H23   S    
C52   H49   S    
C42   H22   S    
C13   C14   A    
C27   C30   A    
C47   H32   S    
C14   C17   A    
C3    H8    S    
O7    Zn4   S    
C44   C46   S    
C50   C51   S    
C56   H1    S    
C43   H18   S    
O5    Zn1   S    
C5    C54   A    
C24   C25   A    
C4    C6    S    
C2    H10   S    
C6    C11   A    
C20   C28   S    
O11   Zn1   S    
C25   C26   A    
O9    Zn3   S    
H29   N5    S    
C47   H30   S    
C47   N5    S    
C16   O6    A    
C1    O8    A    
C37   C38   A    
C22   H5    S    
C46   H24   S    
C31   C32   A    
O1    Zn4   S    
C33   H6    S    
C23   C34   A    
C54   N5    S    
C17   C18   A    
C11   C44   S    
O2    Zn2   S    
C41   H15   S    
C3    C57   S    
C40   C41   S    
C45   C54   A    
C42   H21   S    
C13   C15   A    
O8    Zn2   S    
C14   H12   S    
C22   C24   A    
C35   O2    A    
C42   C43   S    
C1    C17   S    
C49   H35   S    
C44   H28   S    
O13   Zn3   S    
C52   C53   S    
N3    N4    D    
C30   N4    S    
C43   H19   S    
C48   C49   S    
C30   C33   A    
C50   H43   S    
C15   N2    S    
C5    C55   A    
O6    Zn1   S    
C44   H27   S    
C52   H48   S    
C6    C7    A    
C43   H20   S    
C34   C52   S    
C4    O11   A    
C47   H31   S    
C12   C39   A    
C2    C3    D    
O12   Zn2   S    
C29   C31   A    
C32   C33   A    
C38   C40   S    
O10   Zn4   S    
O1    Zn3   S    
C20   C26   A    
C45   C50   S    
C53   H46   S    
C5    C35   S    
C40   H17   S    
C36   O5    A    
C16   O12   A    
O3    Zn4   S    
C10   C11   A    
C46   H26   S    
C24   N3    S    
O1    Zn2   S    
C20   C21   A    
C7    H51   S    
C25   H2    S    
C49   H36   S    
C21   C22   A    
C26   H3    S    
C28   O13   A    
C41   H13   S    
C19   H50   S    
