data_mof_unit_44916.cif
_audit_creation_date              2012-12-10T16:53:07-0500
_audit_creation_method            fapswitch 2.2
_symmetry_space_group_name_H-M    P1
_symmetry_Int_Tables_number       1
_space_group_crystal_system       triclinic
_cell_length_a                    10.766169
_cell_length_b                    10.904733
_cell_length_c                    9.728706
_cell_angle_alpha                 89.594917
_cell_angle_beta                  90.266406
_cell_angle_gamma                 90.628569
_cell_volume                      1142.06225687

loop_
_atom_site_label
_atom_site_type_symbol
_atom_type_description
_atom_site_fract_x
_atom_site_fract_y
_atom_site_fract_z
_atom_type_partial_charge
C1    C     C_R   0.503348 0.265419 0.500706 0.836487
C2    C     C_R   0.067385 0.613850 0.528090 0.095895
C3    C     C_R   0.128718 0.502643 0.499637 -0.148799
C4    C     C_R   0.061407 0.393785 0.471538 -0.017795
C5    C     C_R   0.932318 0.397476 0.470994 -0.161276
C6    C     C_R   0.870817 0.505678 0.500765 -0.113105
C7    C     C_2   0.554921 0.936464 0.394112 0.018012
C8    C     C_2   0.505101 0.867379 0.496698 -0.337429
C9    C     C_2   0.532740 0.069013 0.390122 -0.239209
C10   C     C_2   0.517497 0.133759 0.504936 -0.314712
C11   C     C_2   0.406657 0.462931 0.921592 -0.037037
C12   C     C_R   0.262810 0.499960 0.499823 0.752032
C13   C     C_2   0.414399 0.444935 0.075767 0.044860
C14   C     C_R   0.505046 0.734627 0.499161 0.861694
C15   C     C_R   0.737162 0.501253 0.500222 0.806988
C16   C     C_R   0.133558 0.724202 0.553571 -0.202958
C17   C     C_R   0.071065 0.832806 0.580128 -0.105069
C18   C     C_R   0.941278 0.834190 0.582415 0.224273
C19   C     C_R   0.874560 0.725618 0.557907 -0.117892
C20   C     C_R   0.936467 0.615016 0.529706 0.052153
Cu1   Cu    Cu3+1 0.500020 0.500020 0.638630 0.951577
Cu2   Cu    Cu3+1 0.499980 0.499980 0.361370 0.973058
H1    H     H_    0.524015 0.091467 0.605932 0.157262
H2    H     H_    0.321424 0.436486 0.869429 0.205514
H3    H     H_    0.582505 0.513959 0.895108 0.203066
H4    H     H_    0.557048 0.561100 0.106137 0.211791
H5    H     H_    0.233949 0.727965 0.552283 0.139816
H6    H     H_    0.124359 0.915965 0.598519 0.154426
H7    H     H_    0.774176 0.728840 0.560226 0.149304
H8    H     H_    0.878447 0.315019 0.449798 0.174146
H9    H     H_    0.452363 0.908637 0.578633 0.134037
H10   H     H_    0.535763 0.115165 0.290748 0.167067
N1    N     N_2   0.498640 0.498660 0.846910 -0.304519
N2    N     N_2   0.498610 0.498630 0.153040 -0.326648
O1    O     O_R   0.500020 0.321960 0.617040 -0.570427
O2    O     O_R   0.499980 0.321920 0.382900 -0.608987
O3    O     O_R   0.319670 0.500020 0.617100 -0.577877
O4    O     O_R   0.319630 0.499980 0.382950 -0.594994
O5    O     O_R   0.500020 0.678080 0.617100 -0.585058
O6    O     O_R   0.499980 0.678040 0.382960 -0.529884
O7    O     O_R   0.680370 0.500020 0.617050 -0.584691
O8    O     O_R   0.680330 0.499980 0.382900 -0.540555
C21   C     C_2   0.124416 0.275178 0.446103 0.394358
H11   H     H_    0.224278 0.267579 0.456820 0.038424
O9    O     O_2   0.065191 0.183674 0.413411 -0.542497
C22   C     C_2   0.318985 0.361637 0.136350 0.419438
H12   H     H_    0.329790 0.322293 0.237048 0.120972
O10   O     O_2   0.225588 0.333466 0.071672 -0.563181
C23   C     C_3   0.872910 0.950720 0.609804 -0.804059
H13   H     H_    0.937907 0.028602 0.629049 0.248761
H14   H     H_    0.813917 0.974191 0.519713 0.253067
H15   H     H_    0.812804 0.938345 0.701409 0.220223
C24   C     C_2   0.632952 0.887706 0.281513 0.403610
H16   H     H_    0.637215 0.936435 0.183952 0.059964
O11   O     O_2   0.698792 0.798396 0.298475 -0.543617

loop_
_geom_bond_atom_site_label_1
_geom_bond_atom_site_label_2
_ccdc_geom_bond_type
C13   N2    D    
C21   H11   S    
Cu1   O1    S    
C4    C21   S    
C2    C16   A    
C11   C13   S    
C9    C10   D    
C15   O8    A    
C19   C20   A    
Cu1   O5    S    
C23   H15   S    
Cu2   O6    S    
C17   H6    S    
C16   H5    S    
C17   C18   A    
C14   O5    A    
C7    C8    D    
C24   H16   S    
C21   O9    D    
C15   O7    A    
Cu2   O8    S    
C6    C20   A    
Cu1   O7    S    
Cu1   Cu2   S    
C2    C3    A    
C13   C22   S    
C24   O11   D    
C12   O4    A    
C5    C6    A    
Cu2   N2    S    
C22   O10   D    
Cu1   N1    S    
C7    C24   S    
C14   O6    A    
C3    C4    A    
Cu2   O4    S    
C16   C17   A    
C11   H2    S    
C11   N1    D    
Cu1   O3    S    
C1    O1    A    
C23   H13   S    
C5    H8    S    
C12   O3    A    
C7    C9    S    
C22   H12   S    
C18   C19   A    
C10   H1    S    
C8    C14   S    
C3    C12   S    
C9    H10   S    
C6    C15   S    
C1    O2    A    
C8    H9    S    
C2    C20   A    
H4    N2    S    
Cu2   O2    S    
C1    C10   S    
C18   C23   S    
H3    N1    S    
C4    C5    A    
C23   H14   S    
C19   H7    S    
