data_mof_unit_60552.cif
_audit_creation_date              2012-12-10T18:03:32-0500
_audit_creation_method            fapswitch 2.2
_symmetry_space_group_name_H-M    P1
_symmetry_Int_Tables_number       1
_space_group_crystal_system       triclinic
_cell_length_a                    10.817927
_cell_length_b                    9.658235
_cell_length_c                    19.488052
_cell_angle_alpha                 89.925359
_cell_angle_beta                  94.523097
_cell_angle_gamma                 89.751504
_cell_volume                      2029.78903496

loop_
_atom_site_label
_atom_site_type_symbol
_atom_type_description
_atom_site_fract_x
_atom_site_fract_y
_atom_site_fract_z
_atom_type_partial_charge
C1    C     C_R   0.871030 0.498956 0.487477 -0.224640
C2    C     C_R   0.128970 0.501044 0.512523 -0.224640
C3    C     C_R   0.420914 0.592359 0.962472 -0.163688
C4    C     C_R   0.579087 0.407641 0.037528 -0.163688
C5    C     C_R   0.426762 0.592988 0.034094 -0.164674
C6    C     C_R   0.573238 0.407012 0.965906 -0.164673
C7    C     C_R   0.505885 0.500636 0.072156 0.164195
C8    C     C_R   0.494115 0.499364 0.927844 0.164193
C9    C     C_R   0.263494 0.500346 0.506535 0.834966
C10   C     C_R   0.736506 0.499654 0.493465 0.834966
C11   C     C_R   0.503048 0.500051 0.367889 0.858267
C12   C     C_R   0.496952 0.499949 0.632111 0.858267
C13   C     C_R   0.064162 0.375281 0.512280 0.131672
C14   C     C_R   0.935838 0.624719 0.487720 0.131672
C15   C     C_R   0.937849 0.373649 0.492487 0.133012
C16   C     C_R   0.062151 0.626351 0.507513 0.133012
C17   C     C_R   0.485686 0.374075 0.744390 0.590903
C18   C     C_R   0.514314 0.625925 0.255610 0.590903
C19   C     C_R   0.511900 0.374378 0.255535 0.590396
C20   C     C_R   0.488100 0.625622 0.744465 0.590396
C21   C     C_R   0.486097 0.374531 0.815849 -0.229443
C22   C     C_R   0.513903 0.625469 0.184151 -0.229444
C23   C     C_R   0.511523 0.375122 0.184094 -0.227922
C24   C     C_R   0.488477 0.624877 0.815906 -0.227922
C25   C     C_R   0.489270 0.499599 0.852151 -0.090747
C26   C     C_R   0.510730 0.500401 0.147849 -0.090747
C27   C     C_R   0.419740 0.074538 0.455206 0.254250
C28   C     C_R   0.580260 0.925462 0.544794 0.254250
C29   C     C_R   0.580015 0.073594 0.544925 0.252478
C30   C     C_R   0.419985 0.926406 0.455075 0.252478
C31   C     C_R   0.490414 0.499866 0.707697 -0.309282
C32   C     C_R   0.509586 0.500133 0.292303 -0.309282
Cu1   Cu    Cu3+1 0.500000 0.640660 0.500000 1.085197
Cu2   Cu    Cu3+1 0.500000 0.359340 0.500000 1.085197
H1    H     H_    0.482862 0.276700 0.842883 0.184623
H2    H     H_    0.517138 0.723300 0.157117 0.184623
H3    H     H_    0.509821 0.277258 0.156977 0.183844
H4    H     H_    0.490179 0.722742 0.843023 0.183844
H5    H     H_    0.357987 0.663241 0.934126 0.150057
H6    H     H_    0.642015 0.336759 0.065874 0.150057
H7    H     H_    0.368041 0.664164 0.059745 0.149971
H8    H     H_    0.631959 0.335836 0.940254 0.149971
N1    N     N_R   0.500000 0.852070 0.500000 -0.242449
N2    N     N_R   0.500000 0.147930 0.500000 -0.242449
O1    O     O_R   0.319640 0.618740 0.500000 -0.559462
O2    O     O_R   0.680360 0.381260 0.500000 -0.559462
O3    O     O_R   0.680360 0.618740 0.500000 -0.558488
O4    O     O_R   0.319640 0.381260 0.500000 -0.558488
O5    O     O_R   0.500020 0.618830 0.400190 -0.517543
O6    O     O_R   0.499980 0.381170 0.599810 -0.517543
O7    O     O_R   0.499980 0.618830 0.599810 -0.517700
O8    O     O_R   0.500020 0.381170 0.400190 -0.517700
I1    I     I_    0.289214 0.179480 0.383889 -0.119275
I2    I     I_    0.710786 0.820520 0.616110 -0.119275
I3    I     I_    0.708192 0.177214 0.617459 -0.120154
I4    I     I_    0.291808 0.822786 0.382541 -0.120154
I5    I     I_    0.141977 0.197644 0.564899 -0.153859
I6    I     I_    0.858023 0.802356 0.435101 -0.153859
I7    I     I_    0.864784 0.189034 0.445648 -0.158508
I8    I     I_    0.135216 0.810966 0.554352 -0.158507
F1    F     F_    0.478836 0.250045 0.711754 -0.602611
F2    F     F_    0.521164 0.749954 0.288246 -0.602611
F3    F     F_    0.515477 0.249967 0.288030 -0.603387
F4    F     F_    0.484523 0.750033 0.711970 -0.603387

loop_
_geom_bond_atom_site_label_1
_geom_bond_atom_site_label_2
_ccdc_geom_bond_type
C10   O2    A    
C12   O6    A    
C27   I1    S    
C9    O1    A    
Cu1   O1    S    
C1    C15   A    
Cu1   O7    S    
C2    C16   A    
C22   C26   A    
C28   N1    A    
C24   H4    S    
C15   I7    S    
C3    C5    A    
C21   H1    S    
C20   F4    S    
C12   O7    A    
Cu1   Cu2   S    
C18   C32   A    
C3    H5    S    
C12   C31   S    
C23   H3    S    
C24   C25   A    
C27   C30   A    
C8    C25   S    
C2    C13   A    
C1    C14   A    
C7    C26   S    
C21   C25   A    
C4    C7    A    
Cu2   O2    S    
C19   C32   A    
C28   C29   A    
C17   C31   A    
C11   C32   S    
C13   C15   A    
C29   N2    A    
C16   I8    S    
Cu1   O3    S    
C14   C16   A    
C30   N1    A    
Cu2   O6    S    
Cu2   O4    S    
Cu1   O5    S    
Cu1   N1    S    
Cu2   O8    S    
C20   C24   A    
C13   I5    S    
C22   H2    S    
C11   O5    A    
C9    O4    A    
C4    C6    A    
C3    C8    A    
C6    H8    S    
C23   C26   A    
C10   O3    A    
C5    C7    A    
Cu2   N2    S    
C28   I2    S    
C19   C23   A    
C18   F2    S    
C6    C8    A    
C11   O8    A    
C29   I3    S    
C17   F1    S    
C18   C22   A    
C2    C9    S    
C30   I4    S    
C27   N2    A    
C17   C21   A    
C1    C10   S    
C4    H6    S    
C14   I6    S    
C19   F3    S    
C5    H7    S    
C20   C31   A    
