data_mof_unit_65625.cif
_audit_creation_date              2013-03-05T16:15:22-0500
_audit_creation_method            fapswitch 2.2
_symmetry_space_group_name_H-M    P1
_symmetry_Int_Tables_number       1
_space_group_crystal_system       triclinic
_cell_length_a                    23.537009
_cell_length_b                    14.256938
_cell_length_c                    13.365863
_cell_angle_alpha                 89.949548
_cell_angle_beta                  89.995038
_cell_angle_gamma                 89.992743
_cell_volume                      4485.12308832

loop_
_atom_site_label
_atom_site_type_symbol
_atom_site_description
_atom_site_fract_x
_atom_site_fract_y
_atom_site_fract_z
_atom_type_partial_charge
O1    O     O_R   0.500000 0.373710 0.576470 -0.627747
O2    O     O_R   0.500000 0.626290 0.423530 -0.627619
O3    O     O_R   0.500000 0.626290 0.576470 -0.565513
O4    O     O_R   0.500000 0.373710 0.423530 -0.565168
C1    C     C_R   0.499984 0.326546 0.500032 0.973023
C2    C     C_R   0.500014 0.673454 0.499968 0.972424
O5    O     O_R   0.416150 0.500000 0.576470 -0.588311
O6    O     O_R   0.583850 0.500000 0.423530 -0.588379
O7    O     O_R   0.583850 0.500000 0.576470 -0.584616
O8    O     O_R   0.416150 0.500000 0.423530 -0.584639
C3    C     C_R   0.387791 0.500002 0.500006 1.037000
C4    C     C_R   0.612208 0.499987 0.499999 1.037103
Zn1   Zn    Zn3+2 0.500000 0.500000 0.602090 1.078503
Zn2   Zn    Zn3+2 0.500000 0.500000 0.397910 1.078607
C5    C     C_R   0.881003 0.559825 0.438765 0.516979
C6    C     C_R   0.119002 0.438435 0.561328 0.516886
C7    C     C_R   0.881211 0.436609 0.560516 0.516376
C8    C     C_R   0.118781 0.561677 0.439605 0.516517
N1    N     N_R   0.853088 0.498189 0.499757 -0.338412
N2    N     N_R   0.146910 0.500137 0.500402 -0.338419
C9    C     C_R   0.940506 0.435696 0.562016 -0.030216
C10   C     C_R   0.059490 0.562518 0.438033 -0.030225
C11   C     C_R   0.940289 0.561557 0.437574 -0.030024
C12   C     C_R   0.059713 0.436644 0.562460 -0.030038
C13   C     C_R   0.970161 0.498864 0.499909 -0.016804
C14   C     C_R   0.029837 0.499328 0.500118 -0.016818
C15   C     C_R   0.970650 0.373517 0.623792 -0.144243
C16   C     C_R   0.029347 0.624677 0.376235 -0.144231
C17   C     C_R   0.970212 0.624182 0.375986 -0.144190
C18   C     C_R   0.029787 0.374003 0.624029 -0.144174
O9    O     O_2   0.851269 0.619042 0.379822 -0.534276
O10   O     O_2   0.148740 0.379242 0.620286 -0.534252
O11   O     O_2   0.851681 0.376667 0.618932 -0.533479
O12   O     O_2   0.148305 0.621668 0.381236 -0.533480
H1    H     H_    0.948692 0.324410 0.672088 0.198650
H2    H     H_    0.051304 0.673793 0.327948 0.198664
H3    H     H_    0.948084 0.672944 0.327533 0.198611
H4    H     H_    0.051917 0.325242 0.672484 0.198595
C19   C     C_R   0.236882 0.555475 0.571158 0.071568
C20   C     C_R   0.762995 0.443246 0.429133 0.071614
C21   C     C_R   0.236614 0.445075 0.430008 0.082295
C22   C     C_R   0.763507 0.553670 0.570259 0.082276
C23   C     C_R   0.296438 0.554902 0.571041 0.248571
C24   C     C_R   0.703440 0.444319 0.429123 0.248549
C25   C     C_R   0.296220 0.445556 0.429379 0.260961
C26   C     C_R   0.703898 0.553703 0.570750 0.260964
C27   C     C_R   0.325853 0.500205 0.500083 -0.369830
C28   C     C_R   0.674146 0.499331 0.499968 -0.369853
C29   C     C_R   0.207477 0.500521 0.500478 0.230515
C30   C     C_R   0.792520 0.498004 0.499826 0.230480
C31   C     C_1   0.499991 0.225909 0.500069 -0.127623
C32   C     C_1   0.500008 0.774091 0.499931 -0.128121
C33   C     C_1   0.499995 0.141343 0.500047 0.040597
C34   C     C_1   0.500004 0.858658 0.499952 0.040524
C35   C     C_1   0.499998 0.042283 0.500014 0.051449
C36   C     C_1   0.500000 0.957717 0.499986 0.051461
N3    N     N_1   0.500000 0.500000 0.261870 -0.045767
N4    N     N_1   0.500000 0.500000 0.738130 -0.045782
C37   C     C_1   0.499999 0.499990 0.169416 0.170013
C38   C     C_1   0.500000 0.500009 0.830584 0.170069
C39   C     C_1   0.500000 0.499995 0.049526 0.002837
C40   C     C_1   0.500000 0.500005 0.950474 0.002857
C41   C     C_3   0.205412 0.616764 0.645148 -0.690586
H5    H     H_    0.220468 0.690321 0.638545 0.253403
H6    H     H_    0.158830 0.617560 0.633378 0.213025
H7    H     H_    0.213232 0.591192 0.722354 0.267205
C42   C     C_3   0.794336 0.381676 0.355241 -0.690314
H8    H     H_    0.840896 0.380352 0.367266 0.213016
H9    H     H_    0.778983 0.308275 0.361692 0.253493
H10   H     H_    0.786745 0.407403 0.278023 0.267154
C43   C     C_3   0.203013 0.384367 0.358409 -0.729696
H11   H     H_    0.174298 0.337352 0.401175 0.233437
H12   H     H_    0.177129 0.429450 0.308309 0.246674
H13   H     H_    0.229969 0.338824 0.311029 0.274227
C44   C     C_3   0.797243 0.614084 0.641945 -0.729788
H14   H     H_    0.823001 0.568775 0.692017 0.246725
H15   H     H_    0.826086 0.660943 0.599251 0.233335
H16   H     H_    0.770391 0.659761 0.689366 0.274239
N5    N     N_R   0.327063 0.613738 0.639597 0.224069
O13   O     O_R   0.323319 0.599607 0.735533 -0.360600
O14   O     O_R   0.359609 0.680475 0.606005 -0.394575
N6    N     N_R   0.672680 0.385639 0.360596 0.224095
O15   O     O_R   0.676651 0.399416 0.264631 -0.360566
O16   O     O_R   0.639894 0.319242 0.394234 -0.394906
N7    N     N_R   0.326811 0.388942 0.358859 0.217594
O17   O     O_R   0.358171 0.319613 0.389880 -0.393795
O18   O     O_R   0.325970 0.410125 0.264171 -0.357042
N8    N     N_R   0.673434 0.610556 0.641220 0.217559
O19   O     O_R   0.642275 0.680110 0.610142 -0.393541
O20   O     O_R   0.674117 0.589304 0.735894 -0.357128

loop_
_geom_bond_atom_site_label_1
_geom_bond_atom_site_label_2
_geom_bond_distance
_ccdc_geom_bond_type
C35   C36   1.205657 T    
C41   H6    1.107708 S    
C3    C27   1.457836 S    
C4    C28   1.457852 S    
O3    C2    1.223302 A    
N7    O17   1.301102 A    
C5    N1    1.366479 A    
C22   C44   1.514009 S    
O1    C1    1.223568 A    
C11   C17   1.403426 A    
C16   C17   1.391886 A    
C12   C14   1.409281 A    
C24   N6    1.436870 S    
N3    C37   1.235725 T    
N4    C38   1.235725 T    
C18   H4    1.083135 S    
C38   C40   1.602439 S    
C22   C26   1.403016 A    
O7    Zn1   2.003037 S    
C20   C42   1.513724 S    
O3    Zn1   1.832485 S    
O6    C4    1.220761 A    
C21   C43   1.513990 S    
C25   C27   1.410005 A    
C9    C15   1.403440 A    
C41   H7    1.109509 S    
C6    C12   1.395803 A    
C10   C16   1.403424 A    
C15   C18   1.391947 A    
O2    C2    1.223571 A    
C7    O11   1.349785 S    
C21   C29   1.408327 A    
O7    C4    1.220697 A    
C32   C34   1.205662 T    
O5    C3    1.220714 A    
C26   N8    1.435051 S    
C33   C35   1.412283 S    
C34   C36   1.412284 S    
C37   C39   1.602439 S    
N7    O18   1.301013 A    
C42   H8    1.107777 S    
O8    Zn2   2.003039 S    
N5    O14   1.301182 A    
C19   C23   1.401772 A    
Zn1   N4    1.818292 S    
C15   H1    1.083130 S    
C13   C14   1.404607 A    
C7    C9    1.395827 A    
C41   H5    1.110429 S    
C42   H9    1.110428 S    
C25   N7    1.435061 S    
C44   H14   1.109924 S    
N2    C29   1.425582 S    
C44   H15   1.110045 S    
C20   C24   1.401819 A    
C6    N2    1.366480 A    
C8    O12   1.349791 S    
C22   C30   1.408351 A    
C19   C29   1.409567 A    
N8    O20   1.301009 A    
N6    O16   1.301186 A    
O1    Zn1   1.833079 S    
C43   H12   1.109906 S    
Zn2   N3    1.818292 S    
C9    C13   1.409290 A    
O6    Zn2   2.003095 S    
C8    C10   1.395752 A    
O4    C1    1.223303 A    
C43   H13   1.107130 S    
C5    O9    1.349808 S    
C6    O10   1.349771 S    
C19   C41   1.513736 S    
C42   H10   1.109505 S    
C2    C32   1.434779 S    
C43   H11   1.110032 S    
N1    C30   1.425581 S    
C23   C27   1.409974 A    
C20   C30   1.409519 A    
C5    C11   1.395726 A    
C7    N1    1.366433 A    
C8    N2    1.366426 A    
C11   C13   1.409264 A    
O4    Zn2   1.832487 S    
C39   C40   1.323909 T    
O2    Zn2   1.833078 S    
C44   H16   1.107161 S    
C12   C18   1.403446 A    
O8    C3    1.220748 A    
N5    O13   1.300798 A    
C26   C28   1.409919 A    
O5    Zn1   2.003097 S    
N8    O19   1.301108 A    
C16   H2    1.083140 S    
N6    O15   1.300791 A    
C10   C14   1.409285 A    
C17   H3    1.083134 S    
C21   C25   1.403008 A    
C1    C31   1.434778 S    
C31   C33   1.205661 T    
C23   N5    1.436820 S    
C24   C28   1.410051 A    
