data_mof_unit_6850.cif
_audit_creation_date              2012-12-10T17:29:15-0500
_audit_creation_method            fapswitch 2.2
_symmetry_space_group_name_H-M    P1
_symmetry_Int_Tables_number       1
_space_group_crystal_system       triclinic
_cell_length_a                    11.969725
_cell_length_b                    12.834287
_cell_length_c                    13.084656
_cell_angle_alpha                 87.402202
_cell_angle_beta                  112.91235
_cell_angle_gamma                 94.081222
_cell_volume                      1846.47391738

loop_
_atom_site_label
_atom_site_type_symbol
_atom_type_description
_atom_site_fract_x
_atom_site_fract_y
_atom_site_fract_z
_atom_type_partial_charge
C1    C     C_R   0.477480 0.299232 0.500381 0.942693
C2    C     C_R   0.565727 0.562740 0.987438 0.075094
C3    C     C_R   0.534008 0.570842 0.871846 0.069842
C4    C     C_R   0.473696 0.575803 0.028122 -0.017359
C5    C     C_R   0.352263 0.588477 0.953260 0.102482
C6    C     C_R   0.329595 0.616068 0.843410 -0.213716
C7    C     C_R   0.422370 0.614097 0.805050 -0.177510
C8    C     C_R   0.496428 0.569944 0.140467 0.527802
C9    C     C_R   0.281154 0.543883 0.100338 -0.298998
C10   C     C_R   0.611404 0.530234 0.826280 -0.147858
C11   C     C_R   0.538775 0.812727 0.495989 -0.196003
C12   C     C_R   0.567093 0.506669 0.707892 0.888038
C13   C     C_R   0.462516 0.187513 0.496167 -0.162467
C14   C     C_R   0.339278 0.030989 0.426937 -0.168816
C15   C     C_R   0.348271 0.137772 0.441006 -0.298151
C16   C     C_R   0.567467 0.131648 0.537830 0.554186
C17   C     C_R   0.562035 0.027784 0.510201 -0.062981
C18   C     C_R   0.445168 0.976007 0.461811 0.091713
C19   C     C_R   0.434982 0.869119 0.453452 -0.330381
C20   C     C_R   0.655014 0.863318 0.533072 0.570945
C21   C     C_R   0.667904 0.972212 0.533075 -0.000927
C22   C     C_R   0.015144 0.610716 0.404404 -0.008616
C23   C     C_R   0.523124 0.700851 0.500176 0.932055
C24   C     C_R   0.135586 0.596882 0.414511 -0.023057
C25   C     C_R   0.153962 0.452679 0.538350 -0.064698
C26   C     C_R   0.034711 0.461734 0.532015 0.070103
C27   C     C_R   0.964042 0.541347 0.464804 0.015719
C28   C     C_R   0.844286 0.548521 0.460882 0.003370
C29   C     C_R   0.866506 0.403743 0.584701 0.023259
C30   C     C_R   0.985092 0.393027 0.591951 -0.326545
C31   C     C_R   0.435467 0.511341 0.291926 0.909276
C32   C     C_R   0.256532 0.574233 0.990229 -0.194074
C33   C     C_R   0.402147 0.540421 0.175495 -0.166250
C34   C     C_R   0.729079 0.504127 0.895966 -0.206249
C35   C     C_R   0.766577 0.506820 0.010925 0.132763
C36   C     C_R   0.683292 0.530895 0.055936 -0.185898
H1    H     H_    0.206823 0.526261 0.127178 0.179201
H2    H     H_    0.250180 0.991640 0.387875 0.146332
H3    H     H_    0.266866 0.181222 0.408869 0.182218
H4    H     H_    0.786696 0.608184 0.411219 0.189862
H5    H     H_    0.828797 0.350561 0.631058 0.183565
H6    H     H_    0.037564 0.331368 0.644046 0.153398
H7    H     H_    0.178390 0.647314 0.370405 0.135471
H8    H     H_    0.240140 0.637368 0.786874 0.156490
H9    H     H_    0.209179 0.392294 0.590064 0.143486
H10   H     H_    0.163162 0.581632 0.933172 0.155237
H11   H     H_    0.790288 0.477425 0.860996 0.162410
H12   H     H_    0.711989 0.519816 0.144200 0.199865
H13   H     H_    0.403214 0.642713 0.721368 0.184017
H14   H     H_    0.345443 0.829381 0.418928 0.174237
N1    N     N_R   0.798200 0.480260 0.519790 -0.103236
N2    N     N_R   0.201820 0.519740 0.480210 -0.118106
O1    O     O_R   0.579910 0.341070 0.505280 -0.579459
O2    O     O_R   0.388440 0.353740 0.492580 -0.629383
O3    O     O_R   0.643280 0.490550 0.663120 -0.609033
O4    O     O_R   0.451810 0.503220 0.650420 -0.623457
O5    O     O_R   0.611560 0.646260 0.507420 -0.552276
O6    O     O_R   0.420090 0.658930 0.494720 -0.653410
O7    O     O_R   0.548190 0.496780 0.349580 -0.565919
O8    O     O_R   0.356720 0.509450 0.336880 -0.635182
Zn1   Zn    Zn3+2 0.627850 0.491540 0.508480 1.013620
Zn2   Zn    Zn3+2 0.372150 0.508460 0.491520 0.919187
F1    F     F_    0.755935 0.807141 0.571442 -0.681459
C37   C     C_3   0.792761 0.023988 0.550769 -0.304398
C38   C     C_3   0.834296 0.996947 0.458090 -0.366089
C39   C     C_3   0.956656 0.052920 0.473546 -0.897847
H15   H     H_    0.949901 0.138994 0.470626 0.264516
H16   H     H_    0.027311 0.029652 0.554377 0.273779
H17   H     H_    0.984681 0.031492 0.406092 0.251552
H18   H     H_    0.843538 0.911632 0.456989 0.271757
H19   H     H_    0.765598 0.020862 0.376303 0.219654
H20   H     H_    0.794191 0.110009 0.549959 0.250782
H21   H     H_    0.859717 0.998498 0.632738 0.231410
F2    F     F_    0.670416 0.176882 0.614371 -0.708044
C40   C     C_3   0.940717 0.697370 0.331294 -0.418854
C41   C     C_3   0.004311 0.769225 0.270681 -0.385550
C42   C     C_3   0.919763 0.851080 0.199045 -0.831872
H22   H     H_    0.838686 0.812567 0.134196 0.274894
H23   H     H_    0.889844 0.899424 0.250938 0.259479
H24   H     H_    0.968421 0.903029 0.157746 0.246568
H25   H     H_    0.086238 0.810150 0.332261 0.217961
H26   H     H_    0.031897 0.722488 0.215840 0.217928
H27   H     H_    0.857068 0.660568 0.267916 0.237816
H28   H     H_    0.913485 0.746988 0.384217 0.222181
F3    F     F_    0.606695 0.603828 0.215725 -0.716851
C43   C     C_3   0.893979 0.480009 0.085845 -0.440136
C44   C     C_3   0.894789 0.374514 0.146090 -0.339800
C45   C     C_3   0.024285 0.346318 0.217851 -0.853138
H29   H     H_    0.077500 0.339309 0.165590 0.257343
H30   H     H_    0.069849 0.407037 0.280807 0.271809
H31   H     H_    0.022152 0.270400 0.261500 0.244655
H32   H     H_    0.843088 0.377520 0.200299 0.223132
H33   H     H_    0.850957 0.312335 0.084185 0.233375
H34   H     H_    0.951561 0.477246 0.036800 0.199748
H35   H     H_    0.935111 0.542680 0.147586 0.205778

loop_
_geom_bond_atom_site_label_1
_geom_bond_atom_site_label_2
_ccdc_geom_bond_type
O6    Zn2   S    
C23   O6    A    
C39   H16   S    
C44   C45   S    
C24   N2    A    
C14   C18   A    
C35   C36   A    
N1    Zn1   S    
C4    C8    A    
C42   H22   S    
C11   C19   A    
C26   C27   A    
C16   F2    S    
C8    F3    S    
C3    C7    A    
C5    C6    A    
C28   N1    A    
C40   H28   S    
C39   H17   S    
C28   H4    S    
C38   H18   S    
O3    Zn1   S    
O8    Zn2   S    
C34   C35   A    
C31   O7    A    
C1    O1    A    
C21   C37   S    
C43   H34   S    
C9    C32   A    
O1    Zn1   S    
C16   C17   A    
C37   H21   S    
C31   C33   S    
C5    C32   A    
C39   H15   S    
C6    H8    S    
C44   H32   S    
C9    C33   A    
C22   C40   S    
C42   H23   S    
C11   C20   A    
O7    Zn1   S    
C41   C42   S    
C7    H13   S    
C41   H26   S    
C43   C44   S    
C18   C19   A    
O2    Zn2   S    
C25   C26   A    
C38   H19   S    
C17   C21   A    
C31   O8    A    
C2    C4    A    
C40   C41   S    
C29   C30   A    
C14   H2    S    
C45   H31   S    
C9    H1    S    
C17   C18   A    
C10   C34   A    
C20   C21   A    
C15   H3    S    
C12   O4    A    
C10   C12   S    
C1    O2    A    
C45   H30   S    
C26   C30   A    
C22   C27   A    
C13   C15   A    
O4    Zn2   S    
C1    C13   S    
C25   H9    S    
C29   N1    A    
C42   H24   S    
C2    C36   A    
C23   O5    A    
C29   H5    S    
C32   H10   S    
C4    C5    A    
C41   H25   S    
O5    Zn1   S    
C6    C7    A    
C37   C38   S    
C20   F1    S    
C2    C3    A    
C25   N2    A    
C3    C10   A    
N2    Zn2   S    
C19   H14   S    
C40   H27   S    
C44   H33   S    
C11   C23   S    
C35   C43   S    
C36   H12   S    
C22   C24   A    
C8    C33   A    
C37   H20   S    
C12   O3    A    
C43   H35   S    
C45   H29   S    
C38   C39   S    
C13   C16   A    
C27   C28   A    
C24   H7    S    
C14   C15   A    
C30   H6    S    
C34   H11   S    
