data_mof_unit_49100.cif
_audit_creation_date              2013-03-05T16:56:16-0500
_audit_creation_method            fapswitch 2.2
_symmetry_space_group_name_H-M    P1
_symmetry_Int_Tables_number       1
_space_group_crystal_system       triclinic
_cell_length_a                    17.69981
_cell_length_b                    16.704747
_cell_length_c                    11.071383
_cell_angle_alpha                 88.710064
_cell_angle_beta                  91.138106
_cell_angle_gamma                 88.606387
_cell_volume                      3271.00534846

loop_
_atom_site_label
_atom_site_type_symbol
_atom_site_description
_atom_site_fract_x
_atom_site_fract_y
_atom_site_fract_z
_atom_type_partial_charge
O1    O     O_R   0.389130 0.566570 0.500000 -0.636354
O2    O     O_R   0.389130 0.433430 0.500000 -0.630069
C1    C     C_R   0.353903 0.501182 0.517155 0.902544
O3    O     O_R   0.500000 0.566540 0.314800 -0.667603
O4    O     O_R   0.500000 0.433460 0.314800 -0.620676
C2    C     C_R   0.501992 0.500696 0.256398 0.828033
Zn1   Zn    Zn3+2 0.500020 0.588860 0.500010 0.981286
Zn2   Zn    Zn3+2 0.500020 0.411140 0.500010 1.050266
O5    O     O_R   0.610900 0.566520 0.500010 -0.567447
O6    O     O_R   0.610900 0.433480 0.500010 -0.550419
O7    O     O_R   0.500030 0.566540 0.685210 -0.648027
O8    O     O_R   0.500030 0.433460 0.685210 -0.530034
C3    C     C_R   0.648325 0.499770 0.505327 1.009476
C4    C     C_R   0.506451 0.498210 0.742500 0.972043
C5    C     C_3   0.546078 0.581132 0.061490 -0.152052
C6    C     C_3   0.425690 0.503666 0.058566 -0.183523
H1    H     H_    0.502228 0.628487 0.075057 0.128894
H2    H     H_    0.408149 0.567892 0.055583 0.150246
C7    C     C_3   0.544275 0.574623 0.922135 -0.440242
C8    C     C_3   0.430391 0.489245 0.921543 -0.536075
H3    H     H_    0.508733 0.625502 0.883770 0.174001
H4    H     H_    0.395531 0.536510 0.873181 0.161364
H5    H     H_    0.599183 0.582969 0.881878 0.253655
H6    H     H_    0.404842 0.434600 0.889430 0.200762
C9    C     C_3   0.559149 0.418174 0.082460 -0.177593
C10   C     C_3   0.510050 0.499759 0.120029 -0.047011
C11   C     C_3   0.512660 0.493404 0.878597 -0.071134
C12   C     C_3   0.565900 0.419473 0.933193 0.611322
C13   C     C_R   0.844522 0.589288 0.530390 -0.198983
C14   C     C_R   0.861724 0.450288 0.488291 -0.199242
H7    H     H_    0.869947 0.646187 0.549148 0.238853
H8    H     H_    0.900918 0.400759 0.474119 0.253959
C15   C     C_R   0.767502 0.578984 0.546339 0.446611
C16   C     C_R   0.784620 0.437504 0.498628 0.435801
C17   C     C_R   0.733542 0.503755 0.518728 -0.322650
C18   C     C_R   0.890696 0.525459 0.501168 -0.098516
C19   C     C_1   0.969967 0.531743 0.512704 0.145100
C20   C     C_1   0.036350 0.530662 0.532209 0.170846
C21   C     C_R   0.157549 0.592196 0.573660 0.318790
C22   C     C_R   0.147997 0.447009 0.576179 0.307162
C23   C     C_R   0.237064 0.584059 0.570071 -0.180932
C24   C     C_R   0.227257 0.437786 0.565121 -0.132543
C25   C     C_R   0.272146 0.506971 0.551043 -0.252044
C26   C     C_R   0.114876 0.523599 0.561297 -0.186599
C27   C     C_R   0.465359 0.834228 0.403513 -0.289367
C28   C     C_R   0.432132 0.170483 0.469639 -0.274093
H9    H     H_    0.438227 0.866690 0.328101 0.143867
H10   H     H_    0.380836 0.141770 0.441316 0.136159
C29   C     C_R   0.465066 0.749959 0.407437 -0.043565
C30   C     C_R   0.435109 0.254954 0.469387 0.058081
H11   H     H_    0.435865 0.718742 0.336600 0.112189
H12   H     H_    0.386131 0.290079 0.440128 0.138212
N1    N     N_R   0.500030 0.707230 0.500030 -0.091134
N2    N     N_R   0.500030 0.292770 0.500030 -0.089677
C31   C     C_R   0.529123 0.746691 0.596358 0.141357
C32   C     C_R   0.563876 0.247382 0.521681 0.085754
H13   H     H_    0.550938 0.713276 0.674257 0.166689
H14   H     H_    0.615446 0.276222 0.536945 0.241583
C33   C     C_R   0.529809 0.830861 0.596950 -0.263876
C34   C     C_R   0.563190 0.163356 0.527700 -0.282454
H15   H     H_    0.553768 0.860657 0.674141 0.148201
H16   H     H_    0.615082 0.129749 0.548661 0.168500
C35   C     C_R   0.498143 0.875625 0.499167 0.144290
C36   C     C_R   0.496430 0.123754 0.501859 0.140860
C37   C     C_1   0.496575 0.963209 0.499554 -0.042220
C38   C     C_1   0.495811 0.036236 0.500501 -0.040450
C39   C     C_R   0.612801 0.631015 0.112624 0.075963
C40   C     C_R   0.682912 0.642056 0.054674 -0.054916
C41   C     C_R   0.738915 0.689984 0.103845 -0.171125
C42   C     C_R   0.724588 0.734321 0.205919 -0.118702
C43   C     C_R   0.653414 0.732550 0.256225 -0.064682
C44   C     C_R   0.598903 0.681919 0.210217 -0.164435
H17   H     H_    0.695671 0.619546 0.967991 0.219302
H18   H     H_    0.792455 0.695520 0.059144 0.173526
H19   H     H_    0.767089 0.773312 0.241779 0.164597
H20   H     H_    0.639249 0.772583 0.328197 0.186867
H21   H     H_    0.543441 0.687461 0.244817 0.158069
C45   C     C_R   0.352620 0.477199 0.121970 0.115319
C46   C     C_R   0.298866 0.426290 0.067749 -0.148718
C47   C     C_R   0.227913 0.415078 0.117664 -0.133475
C48   C     C_R   0.205268 0.459954 0.215284 -0.112739
C49   C     C_R   0.253700 0.515940 0.262794 -0.136563
C50   C     C_R   0.327000 0.522823 0.219879 -0.152815
H22   H     H_    0.308198 0.396555 0.983938 0.113801
H23   H     H_    0.188841 0.374506 0.076240 0.151008
H24   H     H_    0.149004 0.454021 0.250506 0.145066
H25   H     H_    0.233366 0.556341 0.330062 0.141480
H26   H     H_    0.361158 0.569693 0.256053 0.137047
C51   C     C_R   0.281679 0.656273 0.592740 0.228184
C52   C     C_R   0.281432 0.719966 0.507729 -0.036264
C53   C     C_R   0.311242 0.793496 0.539398 -0.079588
C54   C     C_R   0.344889 0.802537 0.653437 -0.079285
C55   C     C_R   0.348610 0.738107 0.736193 -0.148650
C56   C     C_R   0.316212 0.665501 0.706510 -0.120209
H27   H     H_    0.254887 0.713793 0.419570 0.126570
H28   H     H_    0.308328 0.843478 0.475440 0.130222
H29   H     H_    0.368195 0.859443 0.677552 0.130649
H30   H     H_    0.374509 0.745157 0.824578 0.121435
H31   H     H_    0.314190 0.617975 0.773902 0.102539
C57   C     C_R   0.260733 0.355992 0.576565 0.170496
C58   C     C_R   0.298086 0.331909 0.684925 -0.058538
C59   C     C_R   0.311030 0.250486 0.711998 -0.058646
C60   C     C_R   0.286857 0.192874 0.631243 -0.106070
C61   C     C_R   0.252146 0.216577 0.521171 -0.123224
C62   C     C_R   0.240186 0.297907 0.492829 -0.081080
H32   H     H_    0.312591 0.375780 0.751422 0.109874
H33   H     H_    0.337459 0.231828 0.797322 0.163230
H34   H     H_    0.295816 0.129861 0.653265 0.140390
H35   H     H_    0.233967 0.171910 0.458289 0.144661
H36   H     H_    0.210649 0.315473 0.409429 0.148442
C63   C     C_R   0.642030 0.414924 0.139959 0.120109
C64   C     C_R   0.673041 0.475249 0.211735 -0.058365
C65   C     C_R   0.751046 0.480270 0.231120 -0.130157
C66   C     C_R   0.799536 0.418729 0.196051 -0.025830
C67   C     C_R   0.769711 0.351689 0.142711 -0.014128
C68   C     C_R   0.692368 0.349633 0.115420 -0.038944
H37   H     H_    0.639141 0.519994 0.253083 0.112924
H38   H     H_    0.773700 0.531339 0.276635 0.124306
H39   H     H_    0.859712 0.421829 0.213943 0.127813
H40   H     H_    0.806658 0.302158 0.119041 0.139695
H41   H     H_    0.672488 0.297734 0.069754 0.197458
C69   C     C_R   0.519095 0.338960 0.132305 0.176729
C70   C     C_R   0.447389 0.315822 0.090770 -0.010589
C71   C     C_R   0.417518 0.240704 0.115396 -0.124436
C72   C     C_R   0.459899 0.183911 0.181887 -0.094232
C73   C     C_R   0.529101 0.204961 0.230942 -0.107860
C74   C     C_R   0.554849 0.282787 0.214996 -0.122156
H42   H     H_    0.417946 0.350740 0.026364 0.147004
H43   H     H_    0.363394 0.225192 0.076372 0.126919
H44   H     H_    0.438920 0.124228 0.196606 0.127823
H45   H     H_    0.562626 0.161289 0.283262 0.147713
H46   H     H_    0.604545 0.296217 0.265428 0.181723
S1    S     S_3+6 0.663679 0.433710 0.876224 0.035127
O9    O     O_2   0.660221 0.468587 0.751014 -0.286057
O10   O     O_2   0.710586 0.487174 0.951713 -0.367555
O11   O     O_3   0.712696 0.346288 0.868576 -0.507555
H47   H     H_    0.764993 0.361308 0.849377 0.405118
S2    S     S_3+6 0.543943 0.320896 0.866861 0.030978
O12   O     O_2   0.568100 0.251114 0.947958 -0.343876
O13   O     O_2   0.462174 0.312121 0.832883 -0.375974
O14   O     O_3   0.592508 0.310176 0.740441 -0.448663
H48   H     H_    0.618848 0.257232 0.749531 0.395005
S3    S     S_3+6 0.722173 0.659487 0.619744 0.020440
O15   O     O_2   0.685744 0.715190 0.526678 -0.347860
O16   O     O_2   0.664071 0.628834 0.704303 -0.327573
O17   O     O_3   0.785730 0.710657 0.700260 -0.538050
H49   H     H_    0.755614 0.752325 0.741354 0.377471
S4    S     S_3+6 0.760394 0.336408 0.496032 0.004334
O18   O     O_2   0.731225 0.313299 0.617753 -0.266358
O19   O     O_2   0.702180 0.325313 0.398825 -0.409924
O20   O     O_3   0.835590 0.276674 0.467547 -0.532513
H50   H     H_    0.815181 0.222086 0.462769 0.386982
S5    S     S_3+6 0.110485 0.687222 0.596044 0.028435
O21   O     O_2   0.103608 0.731462 0.476520 -0.270216
O22   O     O_2   0.032540 0.677032 0.644834 -0.286186
O23   O     O_3   0.158583 0.743554 0.693681 -0.512046
H51   H     H_    0.157463 0.713569 0.771832 0.352453
S6    S     S_3+6 0.088550 0.364618 0.613736 0.025661
O24   O     O_2   0.062440 0.326753 0.498894 -0.272998
O25   O     O_2   0.129309 0.302296 0.692236 -0.280319
O26   O     O_3   0.012088 0.396207 0.688792 -0.514752
H52   H     H_    0.032627 0.420808 0.762708 0.353785

loop_
_geom_bond_atom_site_label_1
_geom_bond_atom_site_label_2
_geom_bond_distance
_ccdc_geom_bond_type
S3    O17   1.682861 S    
C23   C51   1.481183 S    
C62   H36   1.083122 S    
C35   C37   1.462771 S    
C55   C56   1.397210 A    
C31   C33   1.406538 A    
C63   C64   1.412051 A    
S4    O20   1.683090 S    
C47   H23   1.082655 S    
C66   C67   1.388427 A    
C52   C53   1.397725 A    
C70   C71   1.396804 A    
C21   C23   1.412073 A    
C15   S3    1.770663 S    
C9    C12   1.658967 S    
C5    C7    1.548872 S    
C13   C18   1.375899 A    
C1    C25   1.503511 S    
C57   C62   1.406229 A    
C73   C74   1.396673 A    
C72   C73   1.386367 A    
C21   S5    1.799099 S    
C73   H45   1.079879 S    
C22   S6    1.798978 S    
O23   H51   0.990749 S    
C7    H3    1.116101 S    
S4    O19   1.492804 D    
C3    C17   1.515889 S    
O4    C2    1.284897 A    
O7    C4    1.294732 A    
S3    O15   1.498170 D    
C67   C68   1.397442 A    
C13   C15   1.392434 A    
C69   C74   1.424271 A    
C34   H16   1.083146 S    
C16   C17   1.435987 A    
C27   H9    1.082970 S    
C51   C56   1.402377 A    
O5    C3    1.282634 A    
C74   H46   1.063740 S    
C64   C65   1.397879 A    
S6    O26   1.682333 S    
C53   H28   1.082143 S    
C65   C66   1.390131 A    
C16   S4    1.753170 S    
C72   H44   1.082361 S    
S3    O16   1.496176 D    
C8    H6    1.091999 S    
C40   C41   1.398819 A    
C29   H11   1.081462 S    
S1    O11   1.685047 S    
C30   H12   1.075298 S    
O20   H50   0.991088 S    
C42   C43   1.388165 A    
C4    C11   1.508803 S    
S5    O22   1.503661 D    
C7    C11   1.562645 S    
C9    C69   1.608244 S    
C66   H39   1.082191 S    
Zn2   O8    2.092283 S    
C22   C24   1.415609 A    
C50   H26   1.080031 S    
S5    O21   1.502420 D    
S6    O25   1.502490 D    
C23   C25   1.437619 A    
C59   C60   1.397209 A    
O3    Zn1   2.092390 S    
C45   C50   1.414717 A    
C61   C62   1.397586 A    
C54   H29   1.082213 S    
C48   C49   1.389036 A    
N2    C32   1.359687 A    
N1    C31   1.365077 A    
C6    C10   1.627801 S    
C28   H10   1.081375 S    
C33   H15   1.083033 S    
C68   H41   1.076363 S    
C14   C16   1.393013 A    
C39   C40   1.422332 A    
C58   C59   1.398618 A    
C52   H27   1.082930 S    
C12   S2    1.864459 S    
S4    O18   1.498528 D    
O3    C2    1.288469 A    
Zn2   N2    1.977332 S    
C53   C54   1.398091 A    
C45   C46   1.424250 A    
O11   H47   0.990786 S    
C5    C10   1.641151 S    
C40   H17   1.064965 S    
S2    O14   1.667798 S    
C12   S1    1.872488 S    
C28   C36   1.399968 A    
O1    C1    1.283127 A    
C36   C38   1.462691 S    
S6    O24   1.502457 D    
C7    H5    1.087936 S    
C20   C26   1.421963 S    
C19   C20   1.190055 T    
C24   C57   1.477795 S    
O4    Zn2   2.075871 S    
Zn1   O7    2.075765 S    
C27   C29   1.407520 A    
C6    C8    1.544941 S    
C5    C39   1.565926 S    
C41   H18   1.082754 S    
C30   N2    1.365293 A    
S5    O23   1.681354 S    
C60   H34   1.082303 S    
S2    O13   1.499625 D    
Zn2   O6    2.006616 S    
C8    H4    1.111266 S    
C37   C38   1.219917 T    
C31   H13   1.076614 S    
S1    O9    1.491113 D    
C46   C47   1.397141 A    
C24   C25   1.425743 A    
Zn1   N1    1.977350 S    
C59   H33   1.081859 S    
C43   H20   1.081112 S    
C42   H19   1.082295 S    
C39   C44   1.411672 A    
S1    O10   1.492497 D    
O17   H49   0.990702 S    
C58   H32   1.082098 S    
Zn1   O5    1.988783 S    
C18   C19   1.413020 S    
C46   H22   1.076038 S    
O1    Zn1   2.006616 S    
O2    Zn2   1.988821 S    
C48   H24   1.082639 S    
O8    C4    1.272457 A    
C47   C48   1.389165 A    
O6    C3    1.305979 A    
C44   H21   1.063530 S    
C5    H1    1.109419 S    
C21   C26   1.395472 A    
C8    C11   1.543433 S    
C28   C30   1.413279 A    
C33   C35   1.401555 A    
C14   C18   1.377162 A    
C64   H37   1.064322 S    
C34   C36   1.396014 A    
C63   C68   1.425782 A    
O2    C1    1.298397 A    
C9    C10   1.663691 S    
C43   C44   1.394721 A    
C13   H7    1.083999 S    
O26   H52   0.990628 S    
O14   H48   0.991840 S    
C14   H8    1.082901 S    
C70   H42   1.035364 S    
C2    C10   1.519726 S    
C27   C35   1.401619 A    
C56   H31   1.078909 S    
C29   N1    1.365181 A    
C54   C55   1.397121 A    
C15   C17   1.442472 A    
C32   H14   1.054876 S    
C71   H43   1.082691 S    
C6    C45   1.552679 S    
C41   C42   1.389219 A    
S2    O12   1.503721 D    
C9    C63   1.586727 S    
C65   H38   1.081879 S    
C32   C34   1.404069 A    
C22   C26   1.399254 A    
C6    H2    1.109208 S    
C67   H40   1.082212 S    
C60   C61   1.398583 A    
C69   C70   1.407256 A    
C61   H35   1.082181 S    
C57   C58   1.404302 A    
C49   C50   1.396955 A    
C51   C52   1.404420 A    
C55   H30   1.082391 S    
C49   H25   1.077564 S    
C71   C72   1.384441 A    
C11   C12   1.632710 S    
