data_mof_unit_43943.cif
_audit_creation_date              2013-03-05T15:45:10-0500
_audit_creation_method            fapswitch 2.2
_symmetry_space_group_name_H-M    P1
_symmetry_Int_Tables_number       1
_space_group_crystal_system       triclinic
_cell_length_a                    24.351257
_cell_length_b                    17.135125
_cell_length_c                    15.742969
_cell_angle_alpha                 89.919156
_cell_angle_beta                  51.115979
_cell_angle_gamma                 89.866499
_cell_volume                      5113.36895178

loop_
_atom_site_label
_atom_site_type_symbol
_atom_site_description
_atom_site_fract_x
_atom_site_fract_y
_atom_site_fract_z
_atom_type_partial_charge
C1    C     C_R   0.334081 0.109043 0.801682 0.307252
C2    C     C_R   0.665772 0.890506 0.198596 0.308439
C3    C     C_R   0.666261 0.107953 0.197824 0.304170
C4    C     C_R   0.334117 0.890903 0.801523 0.307241
C5    C     C_R   0.852925 0.643821 0.751266 0.356125
C6    C     C_R   0.147211 0.356293 0.248348 0.356989
C7    C     C_R   0.147199 0.643523 0.248145 0.355697
C8    C     C_R   0.852279 0.356911 0.753129 0.356582
N1    N     N_R   0.388930 0.078160 0.705470 -0.100725
N2    N     N_R   0.611070 0.921840 0.294530 -0.099836
N3    N     N_R   0.611070 0.078160 0.294530 -0.101299
N4    N     N_R   0.388930 0.921840 0.705470 -0.100020
N5    N     N_R   0.888930 0.578160 0.705470 -0.094472
N6    N     N_R   0.111070 0.421840 0.294530 -0.094752
N7    N     N_R   0.111070 0.578160 0.294530 -0.094832
N8    N     N_R   0.888930 0.421840 0.705470 -0.094052
C9    C     C_R   0.585809 0.145566 0.593368 -0.117700
C10   C     C_R   0.412701 0.856042 0.406029 -0.100312
C11   C     C_R   0.412566 0.143861 0.405905 -0.116175
C12   C     C_R   0.587428 0.856217 0.594124 -0.104012
C13   C     C_R   0.114664 0.600698 0.593025 -0.142557
C14   C     C_R   0.886203 0.397810 0.406591 -0.140849
C15   C     C_R   0.884842 0.601825 0.407861 -0.131759
C16   C     C_R   0.114835 0.396983 0.592126 -0.130902
H1    H     H_    0.559421 0.158329 0.677884 0.123911
H2    H     H_    0.439626 0.844268 0.321244 0.136257
H3    H     H_    0.439143 0.155043 0.321049 0.124574
H4    H     H_    0.560310 0.844796 0.679003 0.137240
H5    H     H_    0.091471 0.595334 0.677525 0.113501
H6    H     H_    0.908030 0.407255 0.323190 0.137077
H7    H     H_    0.907909 0.599951 0.323072 0.136216
H8    H     H_    0.091034 0.396815 0.677212 0.115806
N9    N     N_R   0.580500 0.077840 0.556650 -0.049261
N10   N     N_R   0.419500 0.922160 0.443350 -0.052908
N11   N     N_R   0.419500 0.077840 0.443350 -0.049887
N12   N     N_R   0.580500 0.922160 0.556650 -0.052788
N13   N     N_R   0.080500 0.577840 0.556650 -0.048264
N14   N     N_R   0.919500 0.422160 0.443350 -0.049502
N15   N     N_R   0.919500 0.577840 0.443350 -0.051438
N16   N     N_R   0.080500 0.422160 0.556650 -0.050079
C17   C     C_R   0.653267 0.149730 0.413340 -0.030343
C18   C     C_R   0.343641 0.851576 0.586521 -0.053085
C19   C     C_R   0.343129 0.148490 0.586438 -0.040946
C20   C     C_R   0.657335 0.851778 0.413509 -0.054575
C21   C     C_R   0.189848 0.596045 0.413441 -0.020675
C22   C     C_R   0.810956 0.399930 0.586329 -0.031794
C23   C     C_R   0.809888 0.595272 0.587409 -0.024074
C24   C     C_R   0.190040 0.404322 0.412631 -0.018260
H9    H     H_    0.682929 0.172767 0.333581 0.146722
H10   H     H_    0.310745 0.829348 0.666885 0.157530
H11   H     H_    0.308885 0.170482 0.666979 0.158067
H12   H     H_    0.692127 0.829981 0.332887 0.162937
H13   H     H_    0.238387 0.583140 0.333955 0.149356
H14   H     H_    0.761831 0.410732 0.665905 0.153572
H15   H     H_    0.761698 0.581153 0.666711 0.149805
H16   H     H_    0.238226 0.418594 0.333418 0.145576
N17   N     N_R   0.626210 0.077590 0.443410 -0.030835
N18   N     N_R   0.373790 0.922410 0.556590 -0.031527
N19   N     N_R   0.373790 0.077590 0.556590 -0.032747
N20   N     N_R   0.626210 0.922410 0.443410 -0.032393
N21   N     N_R   0.126210 0.577590 0.443410 -0.061901
N22   N     N_R   0.873790 0.422410 0.556590 -0.061526
N23   N     N_R   0.873790 0.577590 0.556590 -0.061081
N24   N     N_R   0.126210 0.422410 0.443410 -0.062205
C25   C     C_R   0.574807 0.106191 0.199779 -0.210630
C26   C     C_R   0.425489 0.893118 0.799712 -0.197278
C27   C     C_R   0.425473 0.106531 0.799793 -0.210869
C28   C     C_R   0.574357 0.892996 0.200535 -0.197645
C29   C     C_R   0.055302 0.644727 0.249481 -0.161722
C30   C     C_R   0.944439 0.355459 0.751098 -0.160279
C31   C     C_R   0.944816 0.644851 0.749935 -0.160374
C32   C     C_R   0.055293 0.355282 0.249720 -0.166263
H17   H     H_    0.543921 0.103208 0.172115 0.137489
H18   H     H_    0.456273 0.896161 0.827547 0.133642
H19   H     H_    0.456416 0.103327 0.827370 0.137633
H20   H     H_    0.543494 0.896158 0.172827 0.133538
H21   H     H_    0.017110 0.661668 0.239090 0.137005
H22   H     H_    0.982574 0.338401 0.761519 0.140058
H23   H     H_    0.983065 0.661729 0.760132 0.135234
H24   H     H_    0.017048 0.338461 0.239478 0.139638
N25   N     N_R   0.554800 0.077270 0.294580 -0.068702
N26   N     N_R   0.445200 0.922730 0.705420 -0.068208
N27   N     N_R   0.445200 0.077270 0.705420 -0.068630
N28   N     N_R   0.554800 0.922730 0.294580 -0.068292
N29   N     N_R   0.054800 0.577270 0.294580 -0.066787
N30   N     N_R   0.945200 0.422730 0.705420 -0.066877
N31   N     N_R   0.945200 0.577270 0.705420 -0.066584
N32   N     N_R   0.054800 0.422730 0.294580 -0.065784
C33   C     C_R   0.355699 0.126453 0.862398 0.000681
C34   C     C_R   0.644023 0.872737 0.138156 -0.002202
C35   C     C_R   0.644778 0.125402 0.136826 -0.000394
C36   C     C_R   0.355778 0.873094 0.862148 -0.003162
C37   C     C_R   0.886784 0.688160 0.779660 -0.031596
C38   C     C_R   0.113398 0.312017 0.219778 -0.030418
C39   C     C_R   0.113412 0.687838 0.219367 -0.031460
C40   C     C_R   0.886053 0.312606 0.781959 -0.033782
C41   C     C_R   0.630180 0.193729 0.504231 0.003486
C42   C     C_R   0.366561 0.808419 0.494741 0.009888
C43   C     C_R   0.366517 0.191846 0.494413 0.012649
C44   C     C_R   0.633897 0.808529 0.505619 0.011847
C45   C     C_R   0.184653 0.612011 0.504765 0.038014
C46   C     C_R   0.817319 0.381362 0.494453 0.042143
C47   C     C_R   0.814618 0.611646 0.496893 0.038438
C48   C     C_R   0.185212 0.387325 0.503161 0.041823
Ni1   Ni    Ni4+2 0.382710 0.000000 0.629850 0.320310
Ni2   Ni    Ni4+2 0.617290 1.000000 0.370150 0.320432
Ni3   Ni    Ni4+2 0.882710 0.500000 0.629850 0.280002
Ni4   Ni    Ni4+2 0.117290 0.500000 0.370150 0.278612
Ni5   Ni    Ni4+2 0.513020 0.000000 0.629850 0.199976
Ni6   Ni    Ni4+2 0.486980 1.000000 0.370150 0.199734
Ni7   Ni    Ni4+2 0.013020 0.500000 0.629850 0.198477
Ni8   Ni    Ni4+2 0.986980 0.500000 0.370150 0.197158
C49   C     C_R   0.282418 0.301881 0.593911 -0.206335
C50   C     C_R   0.717872 0.698538 0.406322 -0.284989
C51   C     C_R   0.721412 0.294185 0.399971 -0.240804
C52   C     C_R   0.280455 0.701512 0.595933 -0.243399
C53   C     C_R   0.689255 0.649623 0.598753 -0.272460
C54   C     C_R   0.310822 0.349657 0.401381 -0.188242
C55   C     C_R   0.310247 0.648281 0.404651 -0.261828
C56   C     C_R   0.690620 0.350774 0.590335 -0.207597
H25   H     H_    0.272684 0.284585 0.668021 0.163536
H26   H     H_    0.729309 0.715511 0.330606 0.156811
H27   H     H_    0.735086 0.273884 0.324001 0.162776
H28   H     H_    0.267228 0.721413 0.671686 0.166153
H29   H     H_    0.676611 0.631124 0.674811 0.148062
H30   H     H_    0.322108 0.368168 0.326543 0.157147
H31   H     H_    0.323551 0.627718 0.328952 0.144363
H32   H     H_    0.677561 0.375917 0.663593 0.150562
C57   C     C_R   0.640420 0.696307 0.603495 0.200311
C58   C     C_R   0.360794 0.304578 0.396535 0.196291
C59   C     C_R   0.359276 0.695141 0.399080 0.201836
C60   C     C_R   0.638928 0.308341 0.596129 0.199101
C61   C     C_R   0.235556 0.353157 0.599034 0.196487
C62   C     C_R   0.764345 0.647455 0.401512 0.210557
C63   C     C_R   0.773961 0.331676 0.394066 0.177932
C64   C     C_R   0.233017 0.651737 0.602142 0.183443
C65   C     C_R   0.661030 0.731325 0.506111 0.078372
C66   C     C_R   0.339389 0.269253 0.494093 -0.010576
C67   C     C_R   0.338629 0.731617 0.495541 0.062146
C68   C     C_R   0.659558 0.270237 0.500735 0.008485
C69   C     C_R   0.244822 0.366476 0.502059 -0.018669
C70   C     C_R   0.755082 0.632524 0.498145 0.063976
C71   C     C_R   0.760236 0.356320 0.491665 0.031865
C72   C     C_R   0.243425 0.633803 0.505172 0.039186
H33   H     H_    0.216382 0.890807 0.033445 0.156994
H34   H     H_    0.784465 0.108294 0.965628 0.157566
H35   H     H_    0.783259 0.890645 0.966862 0.156710
H36   H     H_    0.216201 0.109016 0.033298 0.157595
H37   H     H_    0.757897 0.279902 0.939403 0.157708
H38   H     H_    0.241710 0.719261 0.062191 0.157784
H39   H     H_    0.241682 0.279848 0.063166 0.157865
H40   H     H_    0.758572 0.719354 0.937224 0.158172
C73   C     C_2   0.685962 0.158314 0.027993 -0.182484
C74   C     C_2   0.314651 0.839776 0.970676 -0.185542
C75   C     C_2   0.314461 0.159216 0.971238 -0.182537
C76   C     C_2   0.685164 0.839587 0.029588 -0.184938
C77   C     C_2   0.138820 0.762522 0.161836 -0.153199
C78   C     C_2   0.861089 0.237611 0.838776 -0.153728
C79   C     C_2   0.861241 0.762807 0.837231 -0.154270
C80   C     C_2   0.138741 0.237228 0.162500 -0.155932
C81   C     C_2   0.756190 0.155189 0.961327 -0.048019
C82   C     C_2   0.244433 0.843642 0.037776 -0.044533
C83   C     C_2   0.244248 0.155680 0.038151 -0.048332
C84   C     C_2   0.755355 0.843599 0.962339 -0.046498
C85   C     C_2   0.208413 0.770754 0.089170 0.035649
C86   C     C_2   0.791591 0.228676 0.911439 0.039742
C87   C     C_2   0.791646 0.770888 0.910313 0.037468
C88   C     C_2   0.208313 0.228597 0.089993 0.037741
H41   H     H_    0.341423 0.795791 0.982902 0.162319
H42   H     H_    0.659080 0.201950 0.015507 0.163909
H43   H     H_    0.658511 0.795717 0.017250 0.162493
H44   H     H_    0.341182 0.202634 0.984040 0.163435
H45   H     H_    0.897559 0.190239 0.816802 0.152147
H46   H     H_    0.102685 0.810060 0.182885 0.151803
H47   H     H_    0.102546 0.190023 0.183254 0.150564
H48   H     H_    0.897227 0.810342 0.816152 0.151225
N33   N     N_R   0.264340 0.120902 0.836176 0.202262
O1    O     O_R   0.234285 0.188763 0.874213 -0.450305
O2    O     O_R   0.238335 0.073074 0.805976 -0.353614
N34   N     N_R   0.735597 0.878901 0.163807 0.201762
O3    O     O_R   0.761943 0.927333 0.192787 -0.354433
O4    O     O_R   0.765705 0.811033 0.126091 -0.445726
N35   N     N_R   0.736078 0.118682 0.163699 0.204284
O5    O     O_R   0.767139 0.185730 0.123471 -0.448465
O6    O     O_R   0.759638 0.072726 0.199909 -0.356579
N36   N     N_R   0.264266 0.879946 0.836155 0.203124
O7    O     O_R   0.239001 0.927680 0.804403 -0.353093
O8    O     O_R   0.233794 0.812433 0.874723 -0.447906
N37   N     N_R   0.787209 0.660748 0.774692 0.196680
O9    O     O_R   0.777780 0.727076 0.745060 -0.421901
O10   O     O_R   0.733599 0.614961 0.839848 -0.433108
N38   N     N_R   0.212879 0.339335 0.225065 0.196248
O11   O     O_R   0.266517 0.385110 0.160000 -0.436945
O12   O     O_R   0.222222 0.273042 0.254885 -0.419952
N39   N     N_R   0.212971 0.660084 0.224508 0.196366
O13   O     O_R   0.222558 0.726368 0.253740 -0.422071
O14   O     O_R   0.266418 0.613782 0.159919 -0.434647
N40   N     N_R   0.785623 0.341406 0.779300 0.195132
O15   O     O_R   0.733405 0.389446 0.842472 -0.431921
O16   O     O_R   0.774298 0.275155 0.752362 -0.424682
N41   N     N_2   0.573390 0.710859 0.706389 -0.127442
H49   H     H_    0.570185 0.697981 0.773445 0.186083
C89   C     C_3   0.513827 0.681172 0.716734 -0.902439
H50   H     H_    0.464040 0.699385 0.796610 0.257635
H51   H     H_    0.515843 0.616350 0.712455 0.259247
H52   H     H_    0.513532 0.704869 0.651276 0.255865
N42   N     N_2   0.430821 0.292868 0.296607 -0.123220
H53   H     H_    0.468804 0.288389 0.306465 0.167862
C90   C     C_3   0.454523 0.334469 0.198733 -0.870138
H54   H     H_    0.510383 0.319073 0.131181 0.256232
H55   H     H_    0.450984 0.398491 0.212526 0.252598
H56   H     H_    0.422889 0.317029 0.173253 0.268663
N43   N     N_2   0.426467 0.708696 0.296077 -0.126840
H57   H     H_    0.429834 0.694816 0.229163 0.185602
C91   C     C_3   0.485840 0.679389 0.286806 -0.901314
H58   H     H_    0.535749 0.696790 0.206635 0.258039
H59   H     H_    0.483703 0.614631 0.292600 0.258969
H60   H     H_    0.486002 0.704107 0.351864 0.255822
N44   N     N_2   0.567884 0.301363 0.695351 -0.121941
H61   H     H_    0.530787 0.293970 0.684096 0.167341
C92   C     C_3   0.543614 0.349758 0.788407 -0.869216
H62   H     H_    0.486840 0.338208 0.855581 0.257623
H63   H     H_    0.550006 0.412505 0.766071 0.250454
H64   H     H_    0.572795 0.335226 0.819183 0.267140
N45   N     N_2   0.179404 0.390353 0.698876 -0.126315
H65   H     H_    0.171591 0.447930 0.689881 0.175705
C93   C     C_3   0.167286 0.373533 0.799621 -0.878491
H66   H     H_    0.119706 0.405549 0.867794 0.244278
H67   H     H_    0.213099 0.392719 0.793786 0.255361
H68   H     H_    0.157348 0.310237 0.818545 0.285031
N46   N     N_2   0.821110 0.614829 0.299105 -0.121288
H69   H     H_    0.834522 0.645284 0.231859 0.194986
C94   C     C_3   0.814777 0.531941 0.290155 -0.962134
H70   H     H_    0.863298 0.510222 0.211351 0.252272
H71   H     H_    0.768637 0.519964 0.293431 0.266971
H72   H     H_    0.808440 0.500105 0.357216 0.257178
N47   N     N_2   0.841730 0.336520 0.290065 -0.137134
H73   H     H_    0.840238 0.356880 0.229822 0.184495
C95   C     C_3   0.883306 0.265823 0.256885 -0.856175
H74   H     H_    0.937116 0.276566 0.179384 0.245830
H75   H     H_    0.858679 0.217901 0.243713 0.282116
H76   H     H_    0.888086 0.247725 0.319818 0.258867
N48   N     N_2   0.171931 0.627659 0.706706 -0.128551
H77   H     H_    0.135655 0.672134 0.749034 0.183987
C96   C     C_3   0.184819 0.586730 0.773257 -0.915910
H78   H     H_    0.135831 0.556509 0.840881 0.253866
H79   H     H_    0.199987 0.628347 0.809349 0.271844
H80   H     H_    0.227371 0.542645 0.724056 0.262446

loop_
_geom_bond_atom_site_label_1
_geom_bond_atom_site_label_2
_geom_bond_distance
_ccdc_geom_bond_type
C40   C78   1.462429 S    
C89   H50   1.110776 S    
N48   H77   1.031711 S    
C27   N27   1.339562 A    
C10   C42   1.381934 A    
C59   N43   1.424854 S    
N41   H49   1.032080 S    
C8    N40   1.427246 S    
C95   H74   1.110313 S    
C8    C40   1.386918 A    
C3    N3    1.347896 A    
C24   H16   1.074765 S    
N5    Ni3   1.861637 S    
N29   Ni8   1.853339 S    
C19   H11   1.057118 S    
N25   Ni6   1.853339 S    
C18   N18   1.342544 A    
C31   H23   1.079837 S    
C27   H19   1.081523 S    
N20   Ni2   1.858442 S    
N43   H57   1.032083 S    
N3    N25   1.369869 A    
C89   H51   1.111968 S    
N19   Ni1   1.858442 S    
C2    N34   1.435330 S    
C22   N22   1.345942 A    
N11   N19   1.387731 A    
C30   H22   1.079152 S    
C61   N45   1.430700 S    
C35   C73   1.449823 S    
C92   H64   1.110313 S    
H35   C84   1.086347 S    
C18   C42   1.390927 A    
C25   N25   1.340330 A    
C23   N23   1.341246 A    
N4    Ni1   1.858711 S    
C45   C72   1.483824 S    
C33   C75   1.448912 S    
N31   Ni7   1.850235 S    
H33   C82   1.086339 S    
N1    Ni1   1.861637 S    
H39   C88   1.086876 S    
C14   N14   1.325819 A    
C27   C33   1.367696 A    
C90   H56   1.110412 S    
C25   H17   1.081424 S    
N42   C90   1.448339 S    
C90   H54   1.110770 S    
C3    C35   1.383634 A    
C50   C65   1.402975 A    
C4    N36   1.436181 S    
C37   C79   1.461576 S    
N21   Ni4   1.861491 S    
C58   N42   1.433262 S    
C75   C83   1.332549 D    
N8    Ni3   1.858711 S    
C90   H55   1.111200 S    
C1    N33   1.435686 S    
C75   H44   1.088511 S    
N2    N28   1.369798 A    
C2    N2    1.347889 A    
C15   C47   1.381028 A    
C51   C63   1.383133 A    
C6    C38   1.387317 A    
C93   H68   1.110602 S    
C10   H2    1.074045 S    
C73   H42   1.088599 S    
C28   C34   1.367283 A    
C28   H20   1.081376 S    
N27   Ni5   1.850235 S    
C43   C66   1.481828 S    
N40   O15   1.301282 A    
C4    N4    1.347666 A    
C53   C57   1.394248 A    
C94   H70   1.110210 S    
C41   C68   1.479269 S    
C5    N5    1.326068 A    
C81   C86   1.448380 S    
C19   N19   1.345775 A    
C77   H46   1.085788 S    
N7    N29   1.369869 A    
C52   C67   1.400334 A    
C32   C38   1.390159 A    
C5    C37   1.386881 A    
C20   H12   1.057362 S    
C7    N7    1.325656 A    
N17   Ni2   1.861491 S    
C36   C74   1.449029 S    
C21   H13   1.074459 S    
C8    N8    1.326212 A    
C49   C61   1.400248 A    
C96   H78   1.109711 S    
N36   O8    1.301499 A    
N8    N30   1.369874 A    
C55   C72   1.407649 A    
N41   C89   1.447632 S    
N5    N31   1.369803 A    
C56   C71   1.410683 A    
C9    N9    1.339410 A    
N23   Ni3   1.858442 S    
C17   H9    1.056147 S    
C11   H3    1.074493 S    
C32   N32   1.351364 A    
C32   H24   1.079983 S    
N34   O4    1.301505 A    
N24   Ni4   1.858442 S    
N16   Ni7   1.850375 S    
N43   C91   1.447657 S    
H34   C81   1.086350 S    
C1    C33   1.383136 A    
C23   C47   1.384032 A    
N4    N26   1.369874 A    
N42   H53   1.032158 S    
C28   N28   1.339457 A    
C1    N1    1.348048 A    
C89   H52   1.111296 S    
C51   H27   1.078387 S    
N48   C96   1.448352 S    
C91   H60   1.111168 S    
C77   C85   1.329366 D    
N44   H61   1.032002 S    
C59   C67   1.411434 A    
C11   C43   1.382840 A    
C7    N39   1.427503 S    
C26   C36   1.368367 A    
N22   Ni3   1.861493 S    
C12   H4    1.073290 S    
N33   O2    1.296232 A    
H38   C85   1.087042 S    
C13   H5    1.074097 S    
C95   H75   1.111683 S    
N28   Ni6   1.850238 S    
C50   H26   1.079647 S    
C63   N47   1.420900 S    
C74   H41   1.088547 S    
C73   C81   1.332416 D    
C16   C48   1.382688 A    
N38   O12   1.301491 A    
N7    Ni4   1.858712 S    
C30   C40   1.390433 A    
N35   O5    1.301414 A    
C16   H8    1.074943 S    
C92   H62   1.110844 S    
C54   C58   1.400897 A    
C62   C70   1.413861 A    
C82   C85   1.447464 S    
C22   C46   1.391767 A    
C78   H45   1.085817 S    
C55   C59   1.396658 A    
C93   H66   1.110296 S    
C12   C44   1.381651 A    
C48   C69   1.483587 S    
C22   H14   1.073696 S    
N3    Ni2   1.858712 S    
N45   H65   1.030620 S    
C50   C62   1.393040 A    
C57   C65   1.412499 A    
N46   C94   1.445582 S    
C62   N46   1.422502 S    
C20   N20   1.345452 A    
C94   H71   1.111505 S    
N26   Ni5   1.853338 S    
N11   Ni6   1.850372 S    
C21   C45   1.389404 A    
C18   H10   1.055970 S    
C30   N30   1.351740 A    
C31   N31   1.351377 A    
C5    N37   1.427650 S    
N15   Ni8   1.850372 S    
C93   H67   1.110875 S    
N1    N27   1.369803 A    
C79   H48   1.085797 S    
N47   C95   1.448263 S    
C4    C36   1.383037 A    
N10   Ni6   1.853546 S    
C80   H47   1.085769 S    
C17   C41   1.386723 A    
N2    Ni2   1.861641 S    
N9    Ni5   1.853546 S    
C46   C71   1.482466 S    
C34   C76   1.448427 S    
C58   C66   1.410918 A    
C47   C70   1.480519 S    
C56   C60   1.407608 A    
N46   H69   1.031942 S    
H40   C87   1.087096 S    
C29   N29   1.351725 A    
N34   O3    1.295951 A    
C78   C86   1.329002 D    
C23   H15   1.074883 S    
C31   C37   1.390161 A    
C57   N41   1.424812 S    
C6    N6    1.326267 A    
C25   C35   1.369446 A    
C16   N16   1.334542 A    
C38   C80   1.461906 S    
N30   Ni7   1.853338 S    
C14   H6    1.075279 S    
C64   N48   1.421062 S    
C26   H18   1.081359 S    
C39   C77   1.462074 S    
H36   C83   1.086233 S    
C74   C82   1.332645 D    
C84   C87   1.446763 S    
H37   C86   1.087074 S    
C19   C43   1.392180 A    
C29   C39   1.390867 A    
N16   N24   1.387731 A    
N13   N21   1.387731 A    
C7    C39   1.386670 A    
C56   H32   1.075713 S    
C52   C64   1.390672 A    
N9    N17   1.387731 A    
C60   C68   1.409987 A    
C49   H25   1.075808 S    
N15   N23   1.387731 A    
C76   H43   1.088575 S    
C61   C69   1.414385 A    
C14   C46   1.376408 A    
C42   C67   1.479214 S    
C92   H63   1.111257 S    
C60   N44   1.433491 S    
C9    H1    1.076014 S    
N38   O11   1.301254 A    
N18   Ni1   1.861493 S    
C96   H79   1.110707 S    
C83   C88   1.447087 S    
C17   N17   1.340441 A    
C13   C45   1.378608 A    
C64   C72   1.415763 A    
C11   N11   1.333421 A    
N32   Ni8   1.850238 S    
C20   C44   1.391968 A    
C29   H21   1.079619 S    
C3    N35   1.437802 S    
C10   N10   1.334571 A    
C21   N21   1.344621 A    
C15   N15   1.335307 A    
C54   C69   1.406832 A    
N6    Ni4   1.861641 S    
C63   C71   1.416795 A    
N45   C93   1.448157 S    
C79   C87   1.329026 D    
C53   C70   1.405554 A    
C95   H76   1.111323 S    
N44   C92   1.448181 S    
C80   C88   1.329059 D    
C91   H58   1.110737 S    
N37   O9    1.301481 A    
C94   H72   1.109157 S    
N47   H73   1.031877 S    
N13   Ni7   1.853546 S    
C91   H59   1.111912 S    
C24   N24   1.341424 A    
C44   C65   1.479525 S    
N6    N32   1.369798 A    
N39   O13   1.301506 A    
C12   N12   1.332466 A    
N14   Ni8   1.853546 S    
C13   N13   1.331825 A    
C51   C68   1.398117 A    
C76   C84   1.332480 D    
N35   O6    1.296715 A    
C2    C34   1.383032 A    
N33   O1    1.301592 A    
C96   H80   1.111138 S    
C6    N38   1.427646 S    
N12   Ni5   1.850375 S    
N10   N18   1.387731 A    
N12   N20   1.387731 A    
C49   C66   1.403000 A    
N40   O16   1.301643 A    
C54   H30   1.075661 S    
N14   N22   1.387731 A    
N36   O7    1.296159 A    
C52   H28   1.077341 S    
C53   H29   1.079589 S    
C9    C41   1.383831 A    
C26   N26   1.340090 A    
C55   H31   1.079469 S    
N37   O10   1.301252 A    
N39   O14   1.301255 A    
C15   H7    1.075645 S    
C24   C48   1.385098 A    
