data_mof_unit_54929.cif
_audit_creation_date              2012-12-11T14:08:01-0500
_audit_creation_method            fapswitch 2.2
_symmetry_space_group_name_H-M    P1
_symmetry_Int_Tables_number       1
_space_group_crystal_system       triclinic
_cell_length_a                    10.940738
_cell_length_b                    10.967362
_cell_length_c                    18.680273
_cell_angle_alpha                 89.893501
_cell_angle_beta                  89.603632
_cell_angle_gamma                 60.160636
_cell_volume                      1944.25059019

loop_
_atom_site_label
_atom_site_type_symbol
_atom_type_description
_atom_site_fract_x
_atom_site_fract_y
_atom_site_fract_z
_atom_type_partial_charge
C1    C     C_R   0.238726 0.644458 0.609412 0.560943
C2    C     C_2   0.785556 0.142631 0.705245 -0.172314
C3    C     C_2   0.190823 0.657760 0.683410 -0.086279
C4    C     C_R   0.656813 0.623887 0.599901 0.555466
C5    C     C_2   0.203087 0.663310 0.842059 -0.142752
C6    C     C_2   0.216228 0.555821 0.803005 -0.164304
C7    C     C_2   0.253947 0.545607 0.727047 -0.111056
C8    C     C_2   0.649093 0.646046 0.316813 -0.108076
C9    C     C_2   0.632279 0.664631 0.159235 -0.110468
C10   C     C_2   0.705447 0.545003 0.195369 -0.159635
C11   C     C_2   0.686236 0.536769 0.272001 -0.154889
C12   C     C_3   0.661107 0.564326 0.800395 -0.256265
C13   C     C_2   0.632969 0.199029 0.318244 -0.105242
C14   C     C_2   0.636027 0.202905 0.163352 -0.104431
C15   C     C_2   0.522056 0.230472 0.201207 -0.163581
C16   C     C_R   0.628205 0.226798 0.601717 0.540253
C17   C     C_2   0.516699 0.258723 0.276978 -0.152102
C18   C     C_2   0.190364 0.660602 0.325920 -0.095868
C19   C     C_2   0.184742 0.642643 0.172580 -0.105553
C20   C     C_2   0.242745 0.708157 0.205593 -0.159603
C21   C     C_2   0.271311 0.687102 0.281172 -0.148107
C22   C     C_R   0.703546 0.101993 0.897454 0.543313
C23   C     C_3   0.704419 0.676486 0.811227 0.009979
C24   C     C_R   0.725331 0.689544 0.887700 0.544656
C25   C     C_R   0.120468 0.706344 0.908058 0.545407
C26   C     C_R   0.672740 0.114377 0.101079 0.558338
C27   C     C_R   0.691979 0.688348 0.094601 0.557303
C28   C     C_R   0.225553 0.648056 0.400201 0.554103
C29   C     C_R   0.099638 0.705120 0.110477 0.557987
C30   C     C_R   0.641279 0.621165 0.392483 0.547381
C31   C     C_R   0.614042 0.234396 0.393214 0.546500
C32   C     C_3   0.590775 0.818681 0.778391 -0.245936
C33   C     C_3   0.577804 0.802257 0.697548 -0.289204
C34   C     C_3   0.678577 0.647161 0.674955 0.037616
C35   C     C_3   0.846573 0.630739 0.771768 -0.189468
C36   C     C_3   0.834177 0.612490 0.690996 0.146580
C37   C     C_3   0.637386 0.553211 0.720678 -0.211567
C38   C     C_2   0.673562 0.154418 0.670411 -0.140556
C39   C     C_2   0.691260 0.164344 0.827049 -0.121531
C40   C     C_2   0.803094 0.112484 0.782456 -0.162292
Cr1   Cr    Cr6+3 0.393010 0.398050 0.501480 1.045953
Cr2   Cr    Cr6+3 0.398820 0.707980 0.501630 1.025679
Cr3   Cr    Cr6+3 0.708140 0.393940 0.496850 1.074176
Cr4   Cr    Cr6+3 0.937950 0.938450 0.008940 1.024079
Cr5   Cr    Cr6+3 0.626180 0.937030 0.994750 1.020770
Cr6   Cr    Cr6+3 0.937790 0.625760 0.001410 1.021559
H1    H     H_    0.619635 0.901566 0.787257 0.146084
H2    H     H_    0.235808 0.734290 0.819581 0.110102
H3    H     H_    0.486943 0.853981 0.804843 0.145757
H4    H     H_    0.116377 0.761248 0.704306 0.094424
H5    H     H_    0.792385 0.453203 0.170258 0.152613
H6    H     H_    0.716854 0.432907 0.292887 0.155401
H7    H     H_    0.540017 0.753478 0.182959 0.100631
H8    H     H_    0.617101 0.751320 0.297933 0.096483
H9    H     H_    0.438458 0.216047 0.179142 0.154779
H10   H     H_    0.412124 0.323014 0.299973 0.162951
H11   H     H_    0.715342 0.224709 0.184855 0.101573
H12   H     H_    0.696620 0.441381 0.704170 0.185721
H13   H     H_    0.738511 0.134548 0.296636 0.095953
H14   H     H_    0.253430 0.791266 0.179728 0.151777
H15   H     H_    0.466140 0.834579 0.685730 0.165690
H16   H     H_    0.353068 0.706534 0.301318 0.158529
H17   H     H_    0.184269 0.552435 0.196574 0.103330
H18   H     H_    0.107171 0.641498 0.308027 0.092842
H19   H     H_    0.603944 0.873916 0.667274 0.113837
H20   H     H_    0.879827 0.710519 0.780386 0.089218
H21   H     H_    0.851020 0.692387 0.662655 0.107091
H22   H     H_    0.744889 0.460510 0.820366 0.155253
H23   H     H_    0.929725 0.530949 0.795406 0.199192
H24   H     H_    0.562741 0.592742 0.830976 0.113538
H25   H     H_    0.524092 0.587297 0.712323 0.108580
H26   H     H_    0.098502 0.365336 0.562544 0.360617
H27   H     H_    0.908781 0.042997 0.802114 0.160229
H28   H     H_    0.864352 0.156763 0.677195 0.208874
H29   H     H_    0.585893 0.234454 0.807137 0.106003
H30   H     H_    0.601660 0.127724 0.697431 0.115213
H31   H     H_    0.190367 0.479780 0.825183 0.182575
H32   H     H_    0.329046 0.442429 0.706058 0.175673
O1    O     O_R   0.507110 0.256280 0.580300 -0.512775
O2    O     O_R   0.837080 0.593860 0.915300 -0.527942
O3    O     O_R   0.064770 0.636080 0.932550 -0.501851
O4    O     O_R   0.280830 0.527190 0.577940 -0.466926
O5    O     O_R   0.068250 0.829200 0.092940 -0.511941
O6    O     O_R   0.799650 0.057040 0.080330 -0.499134
O7    O     O_R   0.586130 0.079760 0.077080 -0.513655
O8    O     O_R   0.627700 0.809630 0.066580 -0.496604
O9    O     O_R   0.816140 0.597180 0.075920 -0.509850
O10   O     O_R   0.045360 0.639170 0.081440 -0.499825
O11   O     O_3   0.833980 0.833750 0.001700 -0.250672
O12   O     O_R   0.524640 0.695370 0.425100 -0.503982
O13   O     O_R   0.261360 0.738990 0.584270 -0.517383
O14   O     O_R   0.532590 0.694780 0.574370 -0.523265
O15   O     O_R   0.744470 0.503750 0.577000 -0.418854
O16   O     O_R   0.698520 0.277230 0.571620 -0.485029
O17   O     O_R   0.498530 0.256920 0.419280 -0.514754
O18   O     O_R   0.272880 0.527780 0.428680 -0.496314
O19   O     O_R   0.252780 0.739630 0.423250 -0.508977
O20   O     O_2   0.108775 0.400689 0.703815 -0.330392
O21   O     O_2   0.941970 0.329099 0.667923 -0.306837
O22   O     O_3   0.015298 0.457331 0.574585 -0.500450
O23   O     O_R   0.735890 0.504390 0.415980 -0.500143
O24   O     O_R   0.690560 0.277820 0.422350 -0.504753
O25   O     O_3   0.499990 0.499990 0.499980 -0.274208
O26   O     O_R   0.089190 0.825870 0.932320 -0.518617
O27   O     O_R   0.819070 0.053960 0.931440 -0.495608
O28   O     O_R   0.607070 0.076440 0.916460 -0.518768
O29   O     O_R   0.647110 0.806550 0.917690 -0.507015
S1    S     S_3+6 0.978595 0.443287 0.660813 -0.010970

loop_
_geom_bond_atom_site_label_1
_geom_bond_atom_site_label_2
_ccdc_geom_bond_type
C28   O19   A    
C36   S1    S    
C18   C21   D    
C35   C36   S    
C30   O12   A    
Cr4   O5    S    
Cr2   O25   S    
Cr4   O26   S    
C36   H21   S    
C33   H19   S    
Cr6   O11   S    
C38   H30   S    
Cr4   O27   S    
O21   S1    D    
C12   H22   S    
C12   C23   S    
C29   O5    A    
C3    C7    D    
C8    C11   D    
C5    C6    D    
Cr1   O18   S    
Cr1   O4    S    
C34   C37   S    
Cr3   O16   S    
O20   S1    D    
C40   H27   S    
Cr2   O13   S    
C12   C37   S    
C29   O10   A    
C11   H6    S    
C24   O2    A    
C19   C20   D    
C19   H17   S    
C23   C24   S    
C39   H29   S    
C20   H14   S    
Cr5   O11   S    
C9    C10   D    
Cr2   O14   S    
C37   H12   S    
C2    H28   S    
C1    O13   A    
C25   O3    A    
C10   H5    S    
C3    H4    S    
Cr6   O10   S    
C5    H2    S    
C4    C34   S    
O22   S1    S    
C31   O24   A    
C18   C28   S    
Cr2   O19   S    
C8    H8    S    
C39   C40   D    
C6    H31   S    
C35   H20   S    
C1    O4    A    
C22   O28   A    
Cr1   O25   S    
C1    C3    S    
C15   H9    S    
C27   O8    A    
Cr5   O7    S    
Cr3   O23   S    
Cr6   O3    S    
C2    C38   D    
C33   C34   S    
C24   O29   A    
C14   C26   S    
C27   O9    A    
C17   H10   S    
C21   H16   S    
C7    H32   S    
C5    C25   S    
C23   C35   S    
C37   H25   S    
C32   H1    S    
C9    H7    S    
C19   C29   S    
Cr5   O28   S    
C9    C27   S    
Cr6   O9    S    
H26   O22   S    
C15   C17   S    
C14   H11   S    
C12   H24   S    
C26   O6    A    
C13   C31   S    
Cr4   O6    S    
Cr1   O1    S    
C25   O26   A    
C6    C7    S    
C13   H13   S    
C22   O27   A    
C16   O16   A    
C13   C17   D    
C28   O18   A    
C16   O1    A    
C8    C30   S    
C23   C32   S    
Cr5   O8    S    
Cr3   O24   S    
C32   C33   S    
Cr6   O2    S    
C18   H18   S    
Cr1   O17   S    
C26   O7    A    
C31   O17   A    
C22   C39   S    
C30   O23   A    
Cr3   O15   S    
C34   C36   S    
Cr3   O25   S    
C32   H3    S    
C10   C11   S    
C4    O15   A    
C2    C40   S    
C20   C21   S    
C35   H23   S    
C33   H15   S    
C14   C15   D    
Cr2   O12   S    
Cr4   O11   S    
Cr5   O29   S    
C16   C38   S    
C4    O14   A    
