data_mof_unit_40517.cif
_audit_creation_date              2013-03-05T16:08:20-0500
_audit_creation_method            fapswitch 2.2
_symmetry_space_group_name_H-M    P1
_symmetry_Int_Tables_number       1
_space_group_crystal_system       triclinic
_cell_length_a                    6.990935
_cell_length_b                    14.563341
_cell_length_c                    16.040722
_cell_angle_alpha                 90.036629
_cell_angle_beta                  89.8526
_cell_angle_gamma                 90.108653
_cell_volume                      1633.1192182

loop_
_atom_site_label
_atom_site_type_symbol
_atom_site_description
_atom_site_fract_x
_atom_site_fract_y
_atom_site_fract_z
_atom_type_partial_charge
O1    O     O_R   0.505700 0.583890 0.413310 -0.606117
O2    O     O_R   0.175960 0.594920 0.586080 -0.610131
O3    O     O_R   0.005660 0.416110 0.586690 -0.595312
C1    C     C_R   0.344698 0.616851 0.614775 0.911191
O4    O     O_R   0.175980 0.594920 0.413930 -0.557357
O5    O     O_R   0.005680 0.416110 0.413310 -0.553632
C2    C     C_R   0.345534 0.616407 0.384823 0.939357
O6    O     O_R   0.505680 0.583890 0.586690 -0.601518
O7    O     O_3   0.339200 0.441330 0.500000 -0.238372
V1    V     V_3+5 0.064350 0.510880 0.500000 1.203915
O8    O     O_R   0.675960 0.405080 0.413920 -0.566012
C3    C     C_R   0.844184 0.381163 0.386779 1.028669
O9    O     O_R   0.675940 0.405080 0.586070 -0.595594
C4    C     C_R   0.844615 0.383006 0.614648 0.930748
V2    V     V_3+5 0.564340 0.489120 0.500000 1.207501
O10   O     O_3   0.839360 0.558670 0.500000 -0.288751
C5    C     C_R   0.011431 0.254381 0.690343 0.049316
C6    C     C_R   0.853198 0.312598 0.681294 -0.154284
C7    C     C_R   0.702359 0.302424 0.738990 -0.187019
H1    H     H_    0.579558 0.347138 0.735637 0.134611
C8    C     C_R   0.715654 0.239668 0.805667 -0.019976
H2    H     H_    0.604783 0.237909 0.852280 0.213783
C9    C     C_R   0.877754 0.184114 0.816160 -0.236912
C10   C     C_R   0.022874 0.192050 0.756649 -0.081849
C11   C     C_3   0.231203 0.212184 0.769131 1.154942
C12   C     C_3   0.219571 0.278432 0.693710 -0.736670
H3    H     H_    0.294778 0.255993 0.636371 0.222847
H4    H     H_    0.242823 0.352482 0.705832 0.189585
C13   C     C_R   0.727150 0.247162 0.189207 0.057232
C14   C     C_R   0.880430 0.185640 0.182658 -0.169223
C15   C     C_R   0.022214 0.189490 0.244723 -0.052131
H5    H     H_    0.141360 0.142195 0.242992 0.124372
C16   C     C_R   0.006924 0.251427 0.311887 -0.023772
H6    H     H_    0.112762 0.250302 0.360418 0.175839
C17   C     C_R   0.851432 0.311676 0.319061 -0.181179
C18   C     C_R   0.709331 0.306834 0.257492 -0.100671
C19   C     C_3   0.499890 0.280261 0.266504 0.629297
C20   C     C_3   0.518840 0.225251 0.184785 -0.021135
H7    H     H_    0.483936 0.150976 0.188549 0.109171
C21   C     C_R   0.506613 0.683110 0.741326 0.165317
C22   C     C_R   0.352678 0.682392 0.685499 -0.221770
C23   C     C_R   0.201487 0.743819 0.701433 -0.163009
H8    H     H_    0.079048 0.745561 0.660512 0.139230
C24   C     C_R   0.212821 0.808133 0.766922 -0.154694
H9    H     H_    0.098200 0.857209 0.774565 0.134181
C25   C     C_R   0.375911 0.813120 0.818343 -0.240887
C26   C     C_R   0.518160 0.746918 0.805936 0.231729
C27   C     C_3   0.728075 0.759163 0.793994 -0.460325
C28   C     C_3   0.715633 0.689268 0.723835 -0.484533
H10   H     H_    0.811372 0.734421 0.848448 0.233604
H11   H     H_    0.764679 0.829432 0.772080 0.176344
H12   H     H_    0.791135 0.623986 0.737874 0.198112
H13   H     H_    0.745737 0.718804 0.661264 0.192341
C29   C     C_R   0.502047 0.679414 0.253810 -0.057655
C30   C     C_R   0.355985 0.682581 0.314524 -0.194945
C31   C     C_R   0.213673 0.750132 0.304903 -0.089975
H14   H     H_    0.099105 0.754964 0.350012 0.109171
C32   C     C_R   0.225528 0.816124 0.240776 -0.073033
H15   H     H_    0.123977 0.871702 0.239310 0.170006
C33   C     C_R   0.375681 0.814668 0.182379 -0.167780
C34   C     C_R   0.511297 0.745251 0.190346 0.019356
C35   C     C_3   0.724271 0.753802 0.195064 0.722502
C36   C     C_3   0.716636 0.678620 0.263166 -0.080059
H16   H     H_    0.764397 0.699210 0.326423 0.101806
O11   O     O_R   0.229000 0.916070 0.913330 -0.599403
O12   O     O_R   0.558770 0.905070 0.086080 -0.557351
O13   O     O_R   0.729000 0.083900 0.086690 -0.602995
C37   C     C_R   0.389535 0.884168 0.115407 0.967339
O14   O     O_R   0.558720 0.905070 0.913930 -0.594145
O15   O     O_R   0.728960 0.083900 0.913310 -0.583857
C38   C     C_R   0.389743 0.883294 0.885101 0.977476
O16   O     O_R   0.229050 0.916070 0.086710 -0.587604
O17   O     O_3   0.395460 0.058650 0.000020 -0.245532
V3    V     V_3+5 0.670340 0.989120 0.000000 1.261702
O18   O     O_R   0.058670 0.094960 0.913900 -0.554291
C39   C     C_R   0.889831 0.117496 0.885782 0.968078
O19   O     O_R   0.058720 0.094960 0.086050 -0.579867
C40   C     C_R   0.889840 0.116537 0.114958 0.974272
V4    V     V_3+5 0.170330 0.010930 0.999970 1.271448
O20   O     O_3   0.895340 0.941350 0.999980 -0.258418
N1    N     N_R   0.472748 0.221155 0.340263 0.200573
O21   O     O_R   0.494296 0.132466 0.336145 -0.495986
O22   O     O_R   0.444556 0.258310 0.412996 -0.396516
N2    N     N_R   0.430654 0.268576 0.111772 0.261716
O23   O     O_R   0.246017 0.277746 0.108073 -0.365976
O24   O     O_R   0.532048 0.286269 0.045446 -0.385283
O25   O     O_3   0.788632 0.843520 0.218022 -0.634230
C41   C     C_3   0.733314 0.874424 0.298340 -0.376505
H17   H     H_    0.838736 0.852336 0.345599 0.148229
H18   H     H_    0.588099 0.852636 0.317682 0.153092
H19   H     H_    0.733995 0.950593 0.297979 0.216889
N3    N     N_R   0.817103 0.725014 0.117043 0.268022
O26   O     O_R   0.720467 0.718500 0.047955 -0.395708
O27   O     O_R   0.000829 0.711430 0.115143 -0.353142
N4    N     N_R   0.800065 0.590849 0.236986 0.250854
O28   O     O_R   0.747627 0.550698 0.168186 -0.381201
O29   O     O_R   0.936122 0.554500 0.280818 -0.397557
O30   O     O_3   0.350526 0.133216 0.759335 -0.618750
C42   C     C_3   0.333778 0.085649 0.682660 -0.335780
H20   H     H_    0.430133 0.116611 0.635278 0.185070
H21   H     H_    0.185184 0.081157 0.658812 0.141161
H22   H     H_    0.383108 0.014098 0.692400 0.177130
O31   O     O_3   0.266043 0.250626 0.849894 -0.618098
C43   C     C_3   0.203979 0.341937 0.862699 -0.223026
H23   H     H_    0.060583 0.355883 0.836230 0.131564
H24   H     H_    0.311899 0.391085 0.838275 0.132155
H25   H     H_    0.193127 0.353995 0.930818 0.239265
O32   O     O_3   0.355943 0.349631 0.263738 -0.626634
C44   C     C_3   0.420830 0.435611 0.235137 0.055415
H26   H     H_    0.485047 0.430456 0.172033 0.175494
H27   H     H_    0.522531 0.466307 0.280024 0.124129
H28   H     H_    0.296413 0.482415 0.230609 0.176991

loop_
_geom_bond_atom_site_label_1
_geom_bond_atom_site_label_2
_geom_bond_distance
_ccdc_geom_bond_type
C21   C26   1.393938 A    
O12   C37   1.307543 A    
O25   C41   1.417519 S    
O11   V4    2.001232 S    
O17   V3    2.173827 S    
C4    C6    1.483171 S    
N4    O28   1.301811 A    
C2    C30   1.485382 S    
C9    C39   1.482492 S    
C1    O6    1.303498 A    
C43   H24   1.109871 S    
N1    O21   1.302261 A    
O19   C40   1.306158 A    
O32   C44   1.407714 S    
C13   C18   1.403207 A    
C12   H3    1.107689 S    
C35   C36   1.547916 S    
C5    C12   1.497111 S    
C18   C19   1.520309 S    
C7    C8    1.410643 A    
N2    O24   1.302511 A    
O16   V4    2.005109 S    
C44   H27   1.106691 S    
O5    C3    1.309509 A    
C14   C15   1.407686 A    
C1    C22   1.483206 S    
C32   C33   1.405278 A    
C21   C28   1.489774 S    
O12   V3    2.001555 S    
C36   N4    1.466728 S    
C31   H14   1.080363 S    
C6    C7    1.408908 A    
C22   C23   1.408790 A    
O14   C38   1.308089 A    
C29   C30   1.410064 A    
O8    V2    2.002334 S    
C27   H11   1.111450 S    
C26   C27   1.489851 S    
C35   N3    1.469479 S    
C13   C20   1.492096 S    
O15   V3    2.001068 S    
C9    C10   1.395923 A    
C15   C16   1.408637 A    
O1    V2    2.003532 S    
C13   C14   1.401778 A    
O7    V1    2.173779 S    
C27   H10   1.111627 S    
V3    O20   1.721143 S    
O9    C4    1.307058 A    
C19   N1    1.475233 S    
O13   C40   1.302372 A    
C23   C24   1.409248 A    
C43   H23   1.108847 S    
N1    O22   1.300475 A    
C24   C25   1.410676 A    
C16   H6    1.075537 S    
O19   V4    2.002215 S    
C5    C10   1.401276 A    
C10   C11   1.499006 S    
C19   O32   1.428075 S    
C44   H28   1.108625 S    
O4    C2    1.310294 A    
C11   O31   1.432211 S    
C32   H15   1.077951 S    
O11   C38   1.301855 A    
V4    O20   2.171448 S    
C33   C34   1.393415 A    
C17   C18   1.404251 A    
O2    C1    1.306367 A    
O18   C39   1.307191 A    
C19   C20   1.541371 S    
C42   H20   1.109685 S    
C41   H19   1.109298 S    
C37   O16   1.300547 A    
C28   H12   1.111750 S    
C30   C31   1.409307 A    
N3    O27   1.300209 A    
C5    C6    1.402895 A    
O17   V4    1.719272 S    
O14   V3    2.003272 S    
O13   V3    2.001362 S    
N2    O23   1.299439 A    
C3    C17   1.484939 S    
C25   C38   1.482976 S    
O3    C4    1.302587 A    
C21   C22   1.401803 A    
C42   H21   1.109733 S    
C41   H18   1.106724 S    
O6    V2    2.000867 S    
C8    C9    1.404189 A    
O15   C39   1.301849 A    
C23   H8    1.080361 S    
O2    V1    2.003264 S    
C24   H9    1.081435 S    
C25   C26   1.400170 A    
C27   C28   1.519513 S    
C20   N2    1.468328 S    
O1    C2    1.300667 A    
C15   H5    1.082132 S    
O5    V1    2.001279 S    
O8    C3    1.301026 A    
N4    O29   1.298119 A    
C29   C34   1.400185 A    
C35   O25   1.429432 S    
C12   H4    1.107452 S    
C7    H1    1.079981 S    
O9    V2    2.006011 S    
C11   C12   1.550288 S    
O4    V1    2.001519 S    
O3    V1    2.001066 S    
V1    O10   1.721199 S    
C44   H26   1.108829 S    
C20   H7    1.110072 S    
C28   H13   1.111672 S    
N3    O26   1.302712 A    
C16   C17   1.402723 A    
C31   C32   1.410375 A    
O7    V2    1.719744 S    
C34   C35   1.495956 S    
C36   H16   1.109930 S    
C14   C40   1.481519 S    
C11   O30   1.430340 S    
C42   H22   1.109498 S    
C41   H17   1.106975 S    
C33   C37   1.479313 S    
O30   C42   1.416204 S    
C29   C36   1.508112 S    
O31   C43   1.414275 S    
C8    H2    1.075854 S    
O18   V4    2.006088 S    
C43   H25   1.109024 S    
V2    O10   2.171431 S    
