data_mof_unit_21030.cif
_audit_creation_date              2012-12-10T17:33:47-0500
_audit_creation_method            fapswitch 2.2
_symmetry_space_group_name_H-M    P1
_symmetry_Int_Tables_number       1
_space_group_crystal_system       triclinic
_cell_length_a                    11.683542
_cell_length_b                    12.36754
_cell_length_c                    13.157031
_cell_angle_alpha                 116.550489
_cell_angle_beta                  77.836691
_cell_angle_gamma                 100.720104
_cell_volume                      1653.28330789

loop_
_atom_site_label
_atom_site_type_symbol
_atom_type_description
_atom_site_fract_x
_atom_site_fract_y
_atom_site_fract_z
_atom_type_partial_charge
C1    C     C_R   0.512076 0.854846 0.286405 0.787370
C2    C     C_R   0.347048 0.487305 0.159428 -0.244445
C3    C     C_R   0.384386 0.609443 0.190968 -0.169879
C4    C     C_R   0.715588 0.999389 0.499825 0.811676
C5    C     C_R   0.518627 0.346765 0.870774 -0.263970
C6    C     C_R   0.388410 0.191002 0.913648 -0.188703
C7    C     C_R   0.526798 0.771783 0.163258 -0.182741
C8    C     C_R   0.707584 0.362592 0.357697 -0.304482
C9    C     C_R   0.341215 0.762862 0.644664 -0.129758
C10   C     C_R   0.309234 0.673019 0.685150 0.351166
C11   C     C_R   0.369985 0.569357 0.633887 0.436744
C12   C     C_R   0.467270 0.226718 0.835590 -0.040606
C13   C     C_R   0.462410 0.554137 0.539470 -0.200456
C14   C     C_R   0.496366 0.654197 0.508985 0.191978
C15   C     C_R   0.527369 0.448667 0.478346 -0.099397
C16   C     C_R   0.485086 0.144731 0.713422 0.801394
C17   C     C_R   0.634774 0.456677 0.406835 0.107431
C18   C     C_R   0.666869 0.556374 0.380978 -0.243710
C19   C     C_R   0.595855 0.649871 0.426418 -0.111634
C20   C     C_R   0.489347 0.332638 0.479186 0.666126
C21   C     C_R   0.673682 0.259745 0.378258 -0.031084
C22   C     C_R   0.284428 0.000563 0.500087 0.823677
C23   C     C_R   0.604826 0.811800 0.087400 -0.263414
C24   C     C_1   0.837231 0.998722 0.499939 -0.180486
C25   C     C_1   0.939966 0.999318 0.499850 0.002368
C26   C     C_1   0.060130 0.000535 0.499726 -0.000174
C27   C     C_1   0.162831 0.001139 0.499762 -0.171752
C28   C     C_R   0.353219 0.277553 0.023470 -0.196874
C29   C     C_3   0.311386 0.274382 0.417362 -0.250293
C30   C     C_3   0.410673 0.515786 0.765124 -0.214856
C31   C     C_3   0.230331 0.790413 0.870756 -0.301814
C32   C     C_3   0.674275 0.750249 0.807138 -0.304661
C33   C     C_R   0.641748 0.730494 0.975703 0.548514
C34   C     C_R   0.607755 0.605940 0.941908 -0.309090
C35   C     C_R   0.523573 0.562516 0.013694 0.007362
C36   C     C_R   0.477861 0.648488 0.123452 0.081682
C37   C     C_R   0.481916 0.436961 0.979780 0.095490
C38   C     C_R   0.395487 0.400465 0.055397 0.171962
Cu1   Cu    Cu3+1 0.526510 0.098270 0.475420 0.973296
Cu2   Cu    Cu3+1 0.473490 0.901730 0.524580 0.924127
H1    H     H_    0.348733 0.097913 0.887759 0.140949
H2    H     H_    0.648952 0.546468 0.859079 0.147131
H3    H     H_    0.336894 0.672869 0.268201 0.169493
H4    H     H_    0.731839 0.189058 0.343996 0.158005
H5    H     H_    0.218826 0.240519 0.438407 0.191027
H6    H     H_    0.349767 0.201947 0.335877 0.135809
H7    H     H_    0.309611 0.357421 0.405193 0.136356
H8    H     H_    0.409116 0.611948 0.830236 0.135597
H9    H     H_    0.502316 0.495754 0.724222 0.122754
H10   H     H_    0.375880 0.457668 0.811145 0.204271
H11   H     H_    0.202041 0.866716 0.862565 0.154670
H12   H     H_    0.746012 0.560471 0.321927 0.149399
H13   H     H_    0.322523 0.812484 0.890075 0.127964
H14   H     H_    0.172994 0.780314 0.945411 0.200448
H15   H     H_    0.584036 0.779356 0.829637 0.135979
H16   H     H_    0.673886 0.652858 0.745614 0.156146
H17   H     H_    0.730553 0.803547 0.762671 0.204873
H18   H     H_    0.791007 0.369318 0.304951 0.156434
H19   H     H_    0.293393 0.841851 0.681527 0.171557
H20   H     H_    0.623675 0.718646 0.396044 0.198799
H21   H     H_    0.277205 0.460975 0.215355 0.139954
H22   H     H_    0.288264 0.249340 0.081451 0.127769
H23   H     H_    0.581916 0.367930 0.808248 0.146863
H24   H     H_    0.641399 0.906097 0.116038 0.175746
N1    N     N_R   0.566700 0.246290 0.438210 -0.232767
N2    N     N_R   0.434010 0.754320 0.561170 -0.225786
O1    O     O_R   0.533340 0.972510 0.318140 -0.583911
O2    O     O_3   0.338473 0.487044 0.681585 -0.497170
O3    O     O_3   0.215271 0.680732 0.771758 -0.526776
O4    O     O_3   0.722851 0.773377 0.905424 -0.567774
O5    O     O_R   0.488570 0.806530 0.359650 -0.596093
O6    O     O_R   0.685190 0.083000 0.479260 -0.581473
O7    O     O_R   0.640410 0.917020 0.520770 -0.590135
O8    O     O_R   0.511430 0.193470 0.640350 -0.563463
O9    O     O_R   0.466660 0.027490 0.681860 -0.588892
O10   O     O_R   0.359590 0.082980 0.479230 -0.518395
O11   O     O_R   0.314810 0.917000 0.520740 -0.586821
O12   O     O_3   0.372338 0.299998 0.508910 -0.506621

loop_
_geom_bond_atom_site_label_1
_geom_bond_atom_site_label_2
_ccdc_geom_bond_type
Cu2   O5    S    
C5    C37   A    
C16   O9    A    
C7    C36   A    
C35   C36   A    
C34   H2    S    
C22   O10   A    
C18   H12   S    
C3    H3    S    
C26   C27   T    
C1    O5    A    
C29   H7    S    
C16   O8    A    
C30   H8    S    
C35   C37   A    
C18   C19   A    
C6    C12   A    
C4    C24   S    
Cu2   O7    S    
C5    H23   S    
C17   C18   A    
C34   C35   A    
Cu1   O8    S    
C9    N2    A    
C8    H18   S    
C6    C28   A    
C29   O12   S    
C12   C16   S    
C23   C33   A    
C6    H1    S    
Cu1   O6    S    
C9    C10   A    
C32   H15   S    
C2    H21   S    
C30   H10   S    
Cu2   N2    S    
C13   C14   A    
Cu1   N1    S    
C32   H17   S    
C33   C34   A    
C15   C20   A    
C20   N1    A    
C24   C25   T    
C5    C12   A    
Cu1   Cu2   S    
C32   O4    S    
C25   C26   S    
C29   H5    S    
C9    H19   S    
C37   C38   A    
C21   H4    S    
C2    C38   A    
C28   C38   A    
C8    C21   A    
C14   N2    A    
Cu1   O10   S    
C31   H13   S    
C4    O7    A    
C33   O4    S    
C23   H24   S    
C30   H9    S    
C22   C27   S    
C13   C15   A    
C4    O6    A    
C11   O2    S    
C15   C17   A    
C21   N1    A    
C1    C7    S    
Cu1   O1    S    
C14   C19   A    
C22   O11   A    
C31   H11   S    
C19   H20   S    
C8    C17   A    
Cu2   O9    S    
C20   O12   S    
C29   H6    S    
C2    C3    A    
C11   C13   A    
C3    C36   A    
C7    C23   A    
C1    O1    A    
C31   H14   S    
C10   C11   A    
C10   O3    S    
C31   O3    S    
Cu2   O11   S    
C32   H16   S    
C30   O2    S    
C28   H22   S    
