data_mof_unit_25264.cif
_audit_creation_date              2012-12-10T17:41:01-0500
_audit_creation_method            fapswitch 2.2
_symmetry_space_group_name_H-M    P1
_symmetry_Int_Tables_number       1
_space_group_crystal_system       triclinic
_cell_length_a                    14.664501
_cell_length_b                    15.706047
_cell_length_c                    9.973672
_cell_angle_alpha                 87.023378
_cell_angle_beta                  91.537387
_cell_angle_gamma                 90.690767
_cell_volume                      2293.0936201

loop_
_atom_site_label
_atom_site_type_symbol
_atom_type_description
_atom_site_fract_x
_atom_site_fract_y
_atom_site_fract_z
_atom_type_partial_charge
C1    C     C_R   0.382544 0.876421 0.502329 0.868593
C2    C     C_R   0.757306 0.184818 0.385392 -0.218294
C3    C     C_R   0.191193 0.266881 0.398419 -0.208585
C4    C     C_R   0.257331 0.684765 0.385381 -0.218257
C5    C     C_R   0.684424 0.811420 0.514213 -0.142989
C6    C     C_R   0.714345 0.157021 0.502704 -0.160908
C7    C     C_R   0.184469 0.311459 0.514211 -0.142965
C8    C     C_R   0.214375 0.656976 0.502697 -0.160943
C9    C     C_R   0.334625 0.999344 0.132454 -0.194257
C10   C     C_R   0.834624 0.499240 0.132457 -0.194190
C11   C     C_R   0.252125 0.002600 0.059965 -0.191512
C12   C     C_R   0.383534 0.123085 0.496622 0.879114
C13   C     C_R   0.752122 0.502349 0.059975 -0.191071
C14   C     C_R   0.251725 0.008287 0.921076 -0.192577
C15   C     C_R   0.751717 0.508020 0.921086 -0.192270
C16   C     C_R   0.333666 0.008011 0.854118 -0.177849
C17   C     C_R   0.833661 0.507891 0.854120 -0.177985
C18   C     C_R   0.418302 0.004292 0.924385 0.180386
C19   C     C_R   0.918300 0.504251 0.924385 0.180077
C20   C     C_R   0.418474 0.002171 0.068462 0.152863
C21   C     C_R   0.918473 0.502135 0.068463 0.152729
C22   C     C_R   0.578173 0.995266 0.074883 -0.114131
C23   C     C_R   0.882553 0.376417 0.502342 0.868634
C24   C     C_R   0.078173 0.495262 0.074886 -0.114280
C25   C     C_R   0.629396 0.109315 0.500113 0.879942
C26   C     C_R   0.619301 0.879395 0.504762 0.874030
C27   C     C_R   0.129414 0.609286 0.500115 0.879989
C28   C     C_R   0.119315 0.379407 0.504763 0.873973
C29   C     C_R   0.577952 0.994409 0.932266 -0.122007
C30   C     C_R   0.077954 0.494417 0.932268 -0.121917
C31   C     C_R   0.395917 0.249481 0.700466 -0.192682
C32   C     C_R   0.302868 0.793719 0.756918 -0.214966
C33   C     C_R   0.895899 0.749499 0.700411 -0.192644
C34   C     C_R   0.883522 0.623076 0.496621 0.879151
C35   C     C_R   0.803164 0.293554 0.757053 -0.214970
C36   C     C_R   0.382676 0.276239 0.830105 0.254388
C37   C     C_R   0.300444 0.740829 0.873738 0.238806
C38   C     C_R   0.882666 0.776263 0.830045 0.254366
C39   C     C_R   0.800867 0.240578 0.873777 0.238809
C40   C     C_R   0.796317 0.806979 0.861555 0.235830
C41   C     C_R   0.783643 0.152973 0.864419 0.252255
C42   C     C_R   0.296343 0.307003 0.861585 0.235862
C43   C     C_R   0.283399 0.653187 0.864483 0.252443
C44   C     C_R   0.730278 0.820226 0.758227 -0.251638
C45   C     C_R   0.256553 0.206404 0.388478 0.171311
C46   C     C_R   0.753993 0.123715 0.740684 -0.190038
C47   C     C_R   0.230324 0.320279 0.758235 -0.251719
C48   C     C_R   0.253946 0.623804 0.740735 -0.190150
C49   C     C_R   0.745046 0.795173 0.625959 0.055922
C50   C     C_R   0.752737 0.179442 0.625524 0.061728
C51   C     C_R   0.245085 0.295207 0.625970 0.055951
C52   C     C_R   0.252722 0.679464 0.625501 0.061735
C53   C     C_R   0.323119 0.247902 0.604612 0.008297
C54   C     C_R   0.293836 0.759622 0.629912 0.003342
C55   C     C_R   0.823089 0.747888 0.604586 0.008264
C56   C     C_R   0.325914 0.746417 0.394011 0.204647
C57   C     C_R   0.793934 0.259565 0.629989 0.003364
C58   C     C_R   0.323887 0.196301 0.491742 -0.118725
C59   C     C_R   0.328968 0.796896 0.507990 -0.128923
C60   C     C_R   0.823847 0.696269 0.491739 -0.118731
C61   C     C_R   0.828995 0.296886 0.508047 -0.128901
C62   C     C_3   0.247255 0.150971 0.271227 -0.888464
C63   C     C_3   0.405717 0.742713 0.302676 -0.888457
C64   C     C_3   0.747151 0.650844 0.271319 -0.888597
C65   C     C_3   0.905826 0.242607 0.302939 -0.888500
C66   C     C_3   0.459299 0.266775 0.933479 -0.909415
C67   C     C_R   0.756476 0.706325 0.388516 0.171441
C68   C     C_3   0.327082 0.776884 0.004143 -0.942608
C69   C     C_3   0.959305 0.766834 0.933393 -0.909459
C70   C     C_3   0.827696 0.276506 0.004204 -0.942067
C71   C     C_3   0.770229 0.823610 0.003133 -0.936476
C72   C     C_3   0.797177 0.091500 0.983664 -0.964171
C73   C     C_3   0.270260 0.323697 0.003142 -0.936500
C74   C     C_3   0.296824 0.591818 0.983894 -0.963756
C75   C     C_R   0.825924 0.246430 0.394062 0.204605
C76   C     C_R   0.691121 0.766814 0.398443 -0.208556
H1    H     H_    0.187556 0.009619 0.864768 0.153904
H2    H     H_    0.813755 0.359674 0.768914 0.182085
H3    H     H_    0.641767 0.776511 0.316185 0.173878
H4    H     H_    0.742226 0.154961 0.291776 0.161291
H5    H     H_    0.141850 0.276586 0.316147 0.173936
H6    H     H_    0.242255 0.654890 0.291779 0.161325
H7    H     H_    0.642131 0.990754 0.131118 0.147490
H8    H     H_    0.142124 0.490722 0.131133 0.147506
H9    H     H_    0.188199 0.000200 0.111894 0.156073
H10   H     H_    0.688200 0.499888 0.111912 0.155958
H11   H     H_    0.188138 0.167814 0.203461 0.225043
H12   H     H_    0.687547 0.509270 0.864782 0.153822
H13   H     H_    0.309066 0.157667 0.209749 0.273370
H14   H     H_    0.234365 0.085003 0.311153 0.226400
H15   H     H_    0.401387 0.685458 0.241911 0.230049
H16   H     H_    0.410089 0.800472 0.235301 0.276407
H17   H     H_    0.469897 0.737451 0.364089 0.234936
H18   H     H_    0.687990 0.667639 0.203607 0.225020
H19   H     H_    0.808929 0.657550 0.209772 0.273359
H20   H     H_    0.734321 0.584875 0.311298 0.226385
H21   H     H_    0.901553 0.185266 0.242360 0.230155
H22   H     H_    0.910291 0.300305 0.235439 0.276422
H23   H     H_    0.327546 0.004364 0.747935 0.198497
H24   H     H_    0.969945 0.237391 0.364506 0.234901
H25   H     H_    0.522802 0.243984 0.889387 0.242812
H26   H     H_    0.474730 0.329300 0.976513 0.240654
H27   H     H_    0.439671 0.219534 0.014652 0.248453
H28   H     H_    0.329205 0.847087 0.997323 0.256646
H29   H     H_    0.277679 0.756607 0.082153 0.263084
H30   H     H_    0.396881 0.754296 0.030047 0.245589
H31   H     H_    0.022805 0.744044 0.889300 0.242843
H32   H     H_    0.974728 0.829368 0.976376 0.240657
H33   H     H_    0.939704 0.719610 0.014596 0.248490
H34   H     H_    0.827553 0.504289 0.747926 0.198557
H35   H     H_    0.830514 0.346718 0.997340 0.256255
H36   H     H_    0.778006 0.256643 0.082054 0.262987
H37   H     H_    0.897255 0.253357 0.030376 0.245556
H38   H     H_    0.826080 0.812101 0.078531 0.262103
H39   H     H_    0.748319 0.890298 0.008852 0.224633
H40   H     H_    0.711932 0.781443 0.031761 0.245438
H41   H     H_    0.867205 0.098651 0.026918 0.251244
H42   H     H_    0.746840 0.103949 0.061016 0.241093
H43   H     H_    0.789767 0.024845 0.954384 0.231051
H44   H     H_    0.326027 0.311964 0.078618 0.262114
H45   H     H_    0.641350 0.988384 0.881947 0.135791
H46   H     H_    0.248635 0.390466 0.008852 0.224668
H47   H     H_    0.211775 0.281735 0.031680 0.245359
H48   H     H_    0.366700 0.599284 0.027746 0.251197
H49   H     H_    0.246075 0.604111 0.060827 0.240935
H50   H     H_    0.289860 0.525109 0.954584 0.230994
H51   H     H_    0.665364 0.842940 0.787994 0.194653
H52   H     H_    0.736879 0.056977 0.731889 0.150191
H53   H     H_    0.165428 0.343037 0.787995 0.194669
H54   H     H_    0.236903 0.557045 0.732016 0.150118
H55   H     H_    0.331304 0.995203 0.238769 0.213354
H56   H     H_    0.141359 0.488397 0.881960 0.135819
H57   H     H_    0.831303 0.495160 0.238770 0.213321
H58   H     H_    0.462449 0.226222 0.676508 0.173926
H59   H     H_    0.313368 0.859869 0.768643 0.181896
H60   H     H_    0.962433 0.726254 0.676439 0.173919
N1    N     N_R   0.498810 0.000000 0.142780 -0.123351
N2    N     N_R   0.998810 0.500000 0.142780 -0.123303
N3    N     N_R   0.498740 0.000000 0.857170 -0.121385
N4    N     N_R   0.998740 0.500000 0.857170 -0.121364
O1    O     O_R   0.408390 0.908380 0.614690 -0.644046
O2    O     O_R   0.591620 0.908390 0.614640 -0.638975
O3    O     O_R   0.091620 0.591610 0.614640 -0.622192
O4    O     O_R   0.091620 0.408390 0.614640 -0.638986
O5    O     O_R   0.591610 0.091610 0.385310 -0.613583
O6    O     O_R   0.591610 0.908390 0.385310 -0.623398
O7    O     O_R   0.091610 0.591610 0.385310 -0.613596
O8    O     O_R   0.091610 0.408390 0.385310 -0.623427
O9    O     O_R   0.408390 0.091620 0.614690 -0.637235
O10   O     O_R   0.908390 0.408380 0.614690 -0.644190
O11   O     O_R   0.908390 0.591620 0.614690 -0.637188
O12   O     O_R   0.408370 0.908380 0.385360 -0.632288
O13   O     O_R   0.408370 0.091620 0.385360 -0.621587
O14   O     O_R   0.908370 0.408380 0.385360 -0.632250
O15   O     O_R   0.908370 0.591620 0.385360 -0.621564
O16   O     O_R   0.591620 0.091610 0.614640 -0.622232
Zn1   Zn    Zn3+2 0.500010 0.000000 0.653130 0.922029
Zn2   Zn    Zn3+2 0.000010 0.500000 0.653130 0.922000
Zn3   Zn    Zn3+2 0.499980 0.000000 0.346870 0.924044
Zn4   Zn    Zn3+2 0.999980 0.500000 0.346870 0.924043

loop_
_geom_bond_atom_site_label_1
_geom_bond_atom_site_label_2
_ccdc_geom_bond_type
C44   C49   A    
C33   C55   A    
C74   H48   S    
C62   H13   S    
C44   H51   S    
C37   C43   A    
C40   C71   S    
C66   H26   S    
C36   C42   A    
C10   H57   S    
C12   O13   A    
C4    C8    A    
C5    C49   A    
C17   H34   S    
C69   H31   S    
C39   C41   A    
C34   O15   A    
C61   C75   A    
C22   N1    A    
C47   H53   S    
C46   H52   S    
O16   Zn1   S    
C22   C29   A    
C65   H22   S    
C3    C7    A    
C1    C59   S    
O5    Zn3   S    
C11   C14   A    
C36   C66   S    
C74   H49   S    
C37   C68   S    
C45   C62   S    
C1    O12   A    
O8    Zn4   S    
C14   H1    S    
C26   O6    A    
N4    Zn2   S    
C69   H33   S    
C60   C67   A    
C19   N4    A    
C73   H47   S    
C29   H45   S    
C72   H41   S    
C3    H5    S    
C27   O3    A    
C41   C46   A    
C76   H3    S    
C28   O4    A    
C43   C48   A    
C8    C52   A    
C40   C44   A    
C12   C58   S    
C43   C74   S    
O12   Zn3   S    
C10   C21   A    
C73   H44   S    
C55   C60   A    
C4    C56   A    
C25   O16   A    
C34   C60   S    
C66   H25   S    
C48   H54   S    
C2    C6    A    
C68   H30   S    
C21   N2    A    
C31   H58   S    
O7    Zn4   S    
C66   H27   S    
C32   C54   A    
C69   H32   S    
C52   C54   A    
C54   C59   A    
C9    H55   S    
C70   H37   S    
C29   N3    A    
C45   C58   A    
C28   O8    A    
C30   N4    A    
N1    Zn3   S    
C64   C67   S    
C2    H4    S    
C64   H20   S    
C47   C51   A    
O6    Zn3   S    
C24   N2    A    
C49   C55   A    
C3    C45   A    
C6    C50   A    
C7    C28   S    
C71   H38   S    
C51   C53   A    
C20   N1    A    
O13   Zn3   S    
C35   C39   A    
O11   Zn2   S    
O14   Zn4   S    
C9    C20   A    
C23   C61   S    
C53   C58   A    
C56   C63   S    
C71   H39   S    
C16   C18   A    
C32   C37   A    
C31   C53   A    
C9    C11   A    
N3    Zn1   S    
C70   H36   S    
C41   C72   S    
C63   H16   S    
O1    Zn1   S    
C23   O10   A    
C13   C15   A    
C14   C16   A    
C68   H29   S    
O2    Zn1   S    
O4    Zn2   S    
O3    Zn2   S    
C15   C17   A    
C46   C50   A    
C42   C73   S    
O10   Zn2   S    
C19   C21   A    
O15   Zn4   S    
C50   C57   A    
C12   O9    A    
C68   H28   S    
C64   H19   S    
C65   H24   S    
C10   C13   A    
C32   H59   S    
C34   O11   A    
C16   H23   S    
C57   C61   A    
C62   H11   S    
C63   H17   S    
C35   H2    S    
C33   C38   A    
C65   C75   S    
C56   C59   A    
C35   C57   A    
C22   H7    S    
C5    C76   A    
C24   H8    S    
C7    C51   A    
C38   C40   A    
C33   H60   S    
C74   H50   S    
C11   H9    S    
C30   H56   S    
C62   H14   S    
C72   H43   S    
C17   C19   A    
C39   C70   S    
C71   H40   S    
C18   C20   A    
C42   C47   A    
C13   H10   S    
C18   N3    A    
C24   C30   A    
C38   C69   S    
C1    O1    A    
C70   H35   S    
C64   H18   S    
C5    C26   S    
C6    C25   S    
N2    Zn4   S    
C48   C52   A    
C4    H6    S    
C63   H15   S    
C65   H21   S    
C27   O7    A    
C73   H46   S    
C23   O14   A    
C72   H42   S    
C8    C27   S    
C31   C36   A    
C25   O5    A    
C67   C76   A    
C26   O2    A    
O9    Zn1   S    
C2    C75   A    
C15   H12   S    
