data_mof_unit_59537.cif
_audit_creation_date              2012-12-10T16:37:23-0500
_audit_creation_method            fapswitch 2.2
_symmetry_space_group_name_H-M    P1
_symmetry_Int_Tables_number       1
_space_group_crystal_system       triclinic
_cell_length_a                    16.852167
_cell_length_b                    16.911074
_cell_length_c                    16.580517
_cell_angle_alpha                 65.397442
_cell_angle_beta                  65.552168
_cell_angle_gamma                 65.646769
_cell_volume                      3742.95839017

loop_
_atom_site_label
_atom_site_type_symbol
_atom_type_description
_atom_site_fract_x
_atom_site_fract_y
_atom_site_fract_z
_atom_type_partial_charge
C1    C     C_R   0.402724 0.115309 0.626421 0.554002
C2    C     C_R   0.472899 0.698710 0.909870 0.576749
C3    C     C_3   0.484952 0.756669 0.756313 -0.344347
C4    C     C_3   0.730683 0.666925 0.409686 -0.196951
C5    C     C_3   0.009147 0.283797 0.741393 -0.231386
C6    C     C_R   0.884561 0.597363 0.372598 0.553558
C7    C     C_R   0.070607 0.399547 0.647346 0.511791
C8    C     C_R   0.974267 0.178116 0.431138 0.934883
C9    C     C_R   0.023997 0.822125 0.568488 0.937918
C10   C     C_R   0.179896 0.438099 0.961195 0.914751
C11   C     C_R   0.820418 0.561600 0.038592 0.902195
C12   C     C_R   0.439447 0.959417 0.180268 0.934275
C13   C     C_R   0.558668 0.045526 0.820832 0.895432
C14   C     C_R   0.568755 0.822820 0.022971 0.932719
C15   C     C_R   0.600990 0.931837 0.351703 0.511849
C16   C     C_R   0.437847 0.179778 0.961286 0.904222
C17   C     C_R   0.040298 0.560741 0.819820 0.910918
C18   C     C_R   0.954589 0.441236 0.179087 0.908452
C19   C     C_R   0.821924 0.025772 0.568781 0.937209
C20   C     C_R   0.177938 0.975776 0.431649 0.939794
C21   C     C_R   0.445513 0.109869 0.686263 -0.287113
C22   C     C_R   0.555725 0.922474 0.303194 -0.278284
C23   C     C_R   0.957490 0.734414 0.493632 -0.294720
C24   C     C_R   0.061144 0.270599 0.474817 -0.295077
C25   C     C_R   0.702220 0.447918 0.066380 -0.262205
C26   C     C_R   0.948634 0.692693 0.442593 0.583287
C27   C     C_R   0.295143 0.555443 0.928918 -0.271192
C28   C     C_R   0.265578 0.043081 0.505133 -0.293894
C29   C     C_R   0.729897 0.937899 0.526535 -0.292720
C30   C     C_R   0.556153 0.291547 0.929766 -0.264385
C31   C     C_R   0.514959 0.740119 0.931991 -0.294597
C32   C     C_R   0.889628 0.554486 0.313206 -0.293359
C33   C     C_R   0.079064 0.444878 0.696256 -0.279216
C34   C     C_R   0.542673 0.017115 0.551885 -0.104399
C35   C     C_R   0.454875 0.991988 0.455480 -0.098530
C36   C     C_R   0.008354 0.545375 0.544141 -0.097142
C37   C     C_R   0.087914 0.316350 0.508153 0.591521
C38   C     C_R   0.982297 0.457530 0.448422 -0.103334
C39   C     C_R   0.560023 0.550926 0.985117 -0.117051
C40   C     C_R   0.469021 0.464569 0.951331 -0.115751
C41   C     C_R   0.593677 0.963790 0.489853 -0.059883
C42   C     C_R   0.402560 0.035061 0.527108 -0.072037
C43   C     C_R   0.040237 0.449190 0.566602 -0.044615
C44   C     C_R   0.943579 0.552711 0.430733 -0.052864
C45   C     C_R   0.485795 0.603557 0.947631 -0.043700
C46   C     C_R   0.555098 0.416515 0.967661 -0.050629
C47   C     C_R   0.551201 0.960735 0.432962 -0.047502
C48   C     C_R   0.659350 0.404249 0.048036 0.558949
C49   C     C_R   0.447423 0.056188 0.568888 -0.053569
C50   C     C_R   0.431841 0.558161 0.945015 -0.038725
C51   C     C_R   0.592864 0.455969 0.999303 -0.051950
C52   C     C_R   0.036412 0.406728 0.510166 -0.056711
C53   C     C_R   0.964998 0.597549 0.472358 -0.071696
C54   C     C_R   0.538900 0.070633 0.670101 -0.008552
C55   C     C_R   0.460365 0.945116 0.329941 -0.006321
C56   C     C_R   0.001394 0.685193 0.563881 -0.033760
C57   C     C_R   0.996653 0.317423 0.425867 -0.032437
C58   C     C_R   0.676699 0.543114 0.043420 -0.011712
C59   C     C_R   0.341299 0.601234 0.939526 0.557071
C60   C     C_R   0.330552 0.462043 0.935375 -0.011500
C61   C     C_R   0.314965 0.998852 0.435530 -0.034160
C62   C     C_R   0.682847 0.002206 0.575202 -0.037014
C63   C     C_R   0.462148 0.327918 0.937707 -0.015947
C64   C     C_R   0.573476 0.688815 0.988665 -0.025187
C65   C     C_R   0.928468 0.461169 0.330083 -0.004708
C66   C     C_R   0.055325 0.540023 0.669864 -0.003909
C67   C     C_R   0.586645 0.075662 0.719668 -0.154156
C68   C     C_R   0.412305 0.936148 0.281677 -0.152186
C69   C     C_R   0.031383 0.726356 0.602869 -0.144649
C70   C     C_R   0.307237 0.051724 0.556405 0.572234
C71   C     C_R   0.964014 0.274214 0.393285 -0.144921
C72   C     C_R   0.721207 0.589783 0.058338 -0.142517
C73   C     C_R   0.280570 0.411108 0.933881 -0.145780
C74   C     C_R   0.273747 0.968585 0.397029 -0.146168
C75   C     C_R   0.726001 0.035379 0.607109 -0.145438
C76   C     C_R   0.410602 0.279899 0.934639 -0.146979
C77   C     C_R   0.606253 0.728084 0.026276 -0.136879
C78   C     C_R   0.923775 0.413494 0.280341 -0.159628
C79   C     C_R   0.063983 0.587887 0.718352 -0.151422
C80   C     C_R   0.674802 0.079620 0.675221 0.096546
C81   C     C_R   0.684352 0.912406 0.491784 0.593457
C82   C     C_R   0.326512 0.927050 0.327585 0.078124
C83   C     C_R   0.073038 0.673509 0.672516 0.077748
C84   C     C_R   0.919739 0.325514 0.324892 0.094444
C85   C     C_R   0.674575 0.674765 0.069145 0.074307
C86   C     C_R   0.326726 0.327143 0.917628 0.075485
C87   C     C_R   0.587949 0.031264 0.597870 0.053108
C88   C     C_R   0.410336 0.977743 0.407745 0.059996
C89   C     C_R   0.022562 0.589945 0.591875 0.059294
C90   C     C_R   0.967634 0.412220 0.402818 0.055613
C91   C     C_R   0.602441 0.593953 0.006967 0.055148
C92   C     C_R   0.602158 0.333855 0.945122 0.558414
C93   C     C_R   0.420547 0.418368 0.941158 0.054006
C94   C     C_3   0.333901 0.269190 0.589727 -0.193435
C95   C     C_3   0.713445 0.998035 0.257085 -0.216906
C96   C     C_3   0.014048 0.745018 0.288043 -0.276549
C97   C     C_3   0.239647 0.289622 0.437685 -0.317942
C98   C     C_3   0.615157 0.288384 0.169866 -0.295984
C99   C     C_3   0.251616 0.678288 0.045172 -0.302065
C100  C     C_3   0.255784 0.987101 0.711335 -0.217681
C101  C     C_3   0.707932 0.760849 0.558861 -0.333762
C102  C     C_3   0.739532 0.341222 0.839658 -0.298802
H1    H     H_    0.408191 0.146426 0.737291 0.192716
H2    H     H_    0.503742 0.812508 0.900244 0.194995
H3    H     H_    0.853176 0.591936 0.261736 0.193385
H4    H     H_    0.107474 0.403839 0.753654 0.212019
H5    H     H_    0.391114 0.278243 0.524643 0.108037
H6    H     H_    0.344971 0.281938 0.644095 0.163942
H7    H     H_    0.271235 0.322232 0.575360 0.228545
H8    H     H_    0.688581 0.047624 0.296246 0.132872
H9    H     H_    0.683957 0.027825 0.198183 0.148747
H10   H     H_    0.788378 0.984597 0.227491 0.207650
H11   H     H_    0.051444 0.675167 0.281604 0.138792
H12   H     H_    0.597018 0.894598 0.245701 0.213707
H13   H     H_    0.057578 0.771965 0.299277 0.161854
H14   H     H_    0.999536 0.789162 0.221199 0.197498
H15   H     H_    0.234016 0.263473 0.389336 0.142743
H16   H     H_    0.307619 0.250378 0.448114 0.207662
H17   H     H_    0.237497 0.362522 0.405045 0.146153
H18   H     H_    0.545263 0.314263 0.162789 0.147363
H19   H     H_    0.617092 0.314339 0.220498 0.166303
H20   H     H_    0.631811 0.213334 0.198223 0.186517
H21   H     H_    0.302994 0.646922 0.083836 0.156853
H22   H     H_    0.201923 0.638496 0.075855 0.151769
H23   H     H_    0.931408 0.806802 0.471847 0.203579
H24   H     H_    0.213406 0.747111 0.053502 0.197920
H25   H     H_    0.325591 0.952129 0.719076 0.161397
H26   H     H_    0.231548 0.941461 0.700076 0.162572
H27   H     H_    0.209884 0.001738 0.777545 0.200330
H28   H     H_    0.721892 0.768559 0.614890 0.136483
H29   H     H_    0.754386 0.694240 0.549377 0.211701
H30   H     H_    0.636734 0.758620 0.581507 0.141543
H31   H     H_    0.725886 0.414142 0.830806 0.149347
H32   H     H_    0.720003 0.334463 0.786868 0.171442
H33   H     H_    0.813847 0.308933 0.827254 0.187018
H34   H     H_    0.099521 0.201183 0.477195 0.164589
H35   H     H_    0.521714 0.687897 0.746667 0.156031
H36   H     H_    0.534253 0.792871 0.740485 0.151162
H37   H     H_    0.445367 0.796072 0.705473 0.199976
H38   H     H_    0.678156 0.731118 0.419770 0.227743
H39   H     H_    0.721007 0.612803 0.477361 0.109523
H40   H     H_    0.717664 0.651514 0.358320 0.164584
H41   H     H_    0.958928 0.307380 0.702933 0.127792
H42   H     H_    0.978949 0.312106 0.800953 0.144214
H43   H     H_    0.025159 0.208760 0.769962 0.208916
H44   H     H_    0.751822 0.405948 0.104275 0.204945
H45   H     H_    0.231887 0.597040 0.913147 0.216660
H46   H     H_    0.193097 0.069561 0.526217 0.202175
H47   H     H_    0.799425 0.899311 0.524726 0.164829
H48   H     H_    0.597804 0.232815 0.905585 0.212622
I1    I     I_    0.720582 0.159283 0.710184 -0.357163
I2    I     I_    0.286686 0.840063 0.295766 -0.321865
I3    I     I_    0.160349 0.712877 0.704743 -0.324292
I4    I     I_    0.840183 0.279911 0.289398 -0.342578
I5    I     I_    0.704155 0.713067 0.159846 -0.384313
I6    I     I_    0.278126 0.280448 0.849030 -0.375979
O1    O     O_R   0.982940 0.138950 0.510160 -0.630153
O2    O     O_R   0.982940 0.510160 0.138950 -0.621483
O3    O     O_R   0.861050 0.017060 0.489840 -0.629046
O4    O     O_R   0.138950 0.982940 0.510160 -0.646061
O5    O     O_R   0.867700 0.025880 0.612340 -0.595491
O6    O     O_R   0.132300 0.974120 0.387660 -0.591962
O7    O     O_R   0.025880 0.612340 0.867700 -0.588966
O8    O     O_R   0.974120 0.387660 0.132300 -0.589794
O9    O     O_R   0.612340 0.867700 0.025880 -0.593004
O10   O     O_R   0.387660 0.132300 0.974120 -0.587683
O11   O     O_R   0.387660 0.974120 0.132300 -0.582588
O12   O     O_R   0.017060 0.861050 0.489840 -0.647329
O13   O     O_R   0.612340 0.025880 0.867700 -0.597271
O14   O     O_R   0.132300 0.387660 0.974120 -0.582261
O15   O     O_R   0.867700 0.612340 0.025880 -0.589614
O16   O     O_R   0.974120 0.132300 0.387660 -0.594464
O17   O     O_R   0.025880 0.867700 0.612340 -0.590267
O18   O     O_3   0.321220 0.182481 0.619615 -0.507158
O19   O     O_3   0.694364 0.915255 0.315737 -0.533195
O20   O     O_3   0.930625 0.747293 0.359187 -0.515259
O21   O     O_3   0.171847 0.277160 0.524462 -0.512741
O22   O     O_3   0.680122 0.310691 0.083356 -0.552399
O23   O     O_R   0.138950 0.510160 0.982940 -0.643794
O24   O     O_3   0.293517 0.686997 0.949775 -0.553142
O25   O     O_3   0.252314 0.070035 0.639412 -0.530888
O26   O     O_3   0.724469 0.829748 0.473586 -0.510336
O27   O     O_3   0.695134 0.296258 0.930421 -0.553674
O28   O     O_3   0.424098 0.751796 0.846372 -0.552730
O29   O     O_3   0.817987 0.679252 0.377918 -0.508882
O30   O     O_3   0.090364 0.306067 0.682091 -0.527781
O31   O     O_R   0.861050 0.489840 0.017060 -0.632838
O32   O     O_R   0.510160 0.982940 0.138950 -0.633635
O33   O     O_R   0.489840 0.017060 0.861050 -0.631358
O34   O     O_R   0.489840 0.861050 0.017060 -0.630066
O35   O     O_R   0.510160 0.138950 0.982940 -0.638660
O36   O     O_R   0.017060 0.489840 0.861050 -0.633788
Zn1   Zn    Zn3+2 0.004880 0.004880 0.583590 1.015730
Zn2   Zn    Zn3+2 0.995120 0.995120 0.416410 1.015073
Zn3   Zn    Zn3+2 0.004880 0.583590 0.004880 1.006311
Zn4   Zn    Zn3+2 0.995120 0.416410 0.995120 1.015279
Zn5   Zn    Zn3+2 0.583590 0.004880 0.004880 1.010240
Zn6   Zn    Zn3+2 0.416410 0.995120 0.995120 1.023217

loop_
_geom_bond_atom_site_label_1
_geom_bond_atom_site_label_2
_ccdc_geom_bond_type
O33   Zn6   S    
C36   C89   A    
O3    Zn2   S    
C39   C51   A    
C1    C21   A    
O31   Zn4   S    
C98   H19   S    
C100  H25   S    
C64   C77   A    
C7    O30   S    
O16   Zn2   S    
C17   C79   S    
C40   C93   A    
C35   C47   A    
C12   O11   A    
C48   O22   S    
C72   C85   A    
C5    O30   S    
C23   C56   A    
O23   Zn3   S    
C11   O15   A    
C66   C79   A    
C12   C68   S    
C6    O29   S    
C94   H6    S    
C100  H26   S    
O1    Zn1   S    
C102  O27   S    
O36   Zn4   S    
C99   H21   S    
C59   O24   S    
C16   O35   A    
C9    C69   S    
C27   C60   A    
C4    H40   S    
C54   C87   A    
C10   C73   S    
C43   C52   A    
C30   H48   S    
C46   C92   A    
C63   C76   A    
C12   O32   A    
C60   C73   A    
C42   C70   A    
C13   O33   A    
C85   I5    S    
C14   C77   S    
C55   C88   A    
C23   C26   A    
C35   C42   A    
C86   I6    S    
C102  H33   S    
C95   O19   S    
C36   C53   A    
C17   O7    A    
C84   I4    S    
C44   C53   A    
C15   C22   A    
C16   O10   A    
C24   C57   A    
C8    C71   S    
C10   O23   A    
C96   H13   S    
C9    O17   A    
C25   H44   S    
C3    H35   S    
C7    C43   A    
C98   O22   S    
C23   H23   S    
C3    O28   S    
C39   C45   A    
C60   C93   A    
C24   H34   S    
C13   O13   A    
C42   C49   A    
C20   O6    A    
C17   O36   A    
O12   Zn2   S    
C30   C63   A    
C7    C33   A    
O6    Zn2   S    
C34   C41   A    
C18   O8    A    
C81   O26   S    
C74   C82   A    
C8    O1    A    
C39   C91   A    
C33   C66   A    
C55   C68   A    
C66   C89   A    
C19   O5    A    
C48   C51   A    
C2    C45   A    
C65   C90   A    
C1    O18   S    
C28   C70   A    
C94   H5    S    
C28   H46   S    
C5    H43   S    
C57   C90   A    
C67   C80   A    
O5    Zn1   S    
C95   H9    S    
C99   H24   S    
C95   H10   S    
C30   C92   A    
C4    H39   S    
C37   C52   A    
C11   C72   S    
C5    H42   S    
C54   C67   A    
C26   O20   S    
C29   H47   S    
C46   C51   A    
C92   O27   S    
C2    C31   A    
C14   O34   A    
C4    O29   S    
C97   H17   S    
C40   C46   A    
C102  H32   S    
C38   C44   A    
C18   O2    A    
C61   C88   A    
O9    Zn5   S    
C4    H38   S    
C35   C88   A    
C70   O25   S    
C97   O21   S    
O7    Zn3   S    
C18   C78   S    
C41   C81   A    
C100  H27   S    
C24   C37   A    
C41   C47   A    
C20   C74   S    
O10   Zn6   S    
C3    H36   S    
C2    O28   S    
C57   C71   A    
C14   O9    A    
C100  O25   S    
C25   C48   A    
C97   H16   S    
C94   O18   S    
C101  H29   S    
O15   Zn3   S    
C56   C89   A    
C29   C81   A    
C56   C69   A    
C32   H3    S    
O17   Zn1   S    
C11   O31   A    
C96   H11   S    
C3    H37   S    
C25   C58   A    
C50   C59   A    
C26   C53   A    
C76   C86   A    
O4    Zn1   S    
O34   Zn6   S    
O13   Zn5   S    
C71   C84   A    
C58   C91   A    
C80   I1    S    
C98   H20   S    
C63   C93   A    
C29   C62   A    
C34   C49   A    
C13   C67   S    
C96   O20   S    
C16   C76   S    
C31   C64   A    
C9    O12   A    
C69   C83   A    
C33   H4    S    
O35   Zn5   S    
C36   C43   A    
C95   H8    S    
O8    Zn4   S    
C98   H18   S    
C22   C55   A    
C83   I3    S    
C61   C74   A    
C10   O14   A    
C37   O21   S    
C62   C87   A    
C38   C90   A    
C94   H7    S    
O2    Zn3   S    
C15   O19   S    
C65   C78   A    
C19   O3    A    
C31   H2    S    
C19   C75   S    
C102  H31   S    
C68   C82   A    
C99   O24   S    
C27   C59   A    
C28   C61   A    
C79   C83   A    
O14   Zn4   S    
C58   C72   A    
C21   C54   A    
O32   Zn5   S    
C40   C50   A    
O11   Zn6   S    
C34   C87   A    
C97   H15   S    
C62   C75   A    
C73   C86   A    
C5    H41   S    
C101  H28   S    
C77   C85   A    
C21   H1    S    
C101  H30   S    
C78   C84   A    
C22   H12   S    
C75   C80   A    
C38   C52   A    
C27   H45   S    
C6    C32   A    
C20   O4    A    
C96   H14   S    
C15   C47   A    
C6    C44   A    
C45   C50   A    
C99   H22   S    
C64   C91   A    
C1    C49   A    
C82   I2    S    
C101  O26   S    
C8    O16   A    
C32   C65   A    
