data_mof_unit_50436.cif
_audit_creation_date              2013-03-05T15:45:35-0500
_audit_creation_method            fapswitch 2.2
_symmetry_space_group_name_H-M    P1
_symmetry_Int_Tables_number       1
_space_group_crystal_system       triclinic
_cell_length_a                    8.447603
_cell_length_b                    14.560302
_cell_length_c                    19.199863
_cell_angle_alpha                 92.842273
_cell_angle_beta                  94.534344
_cell_angle_gamma                 90.787646
_cell_volume                      2350.91876273

loop_
_atom_site_label
_atom_site_type_symbol
_atom_site_description
_atom_site_fract_x
_atom_site_fract_y
_atom_site_fract_z
_atom_type_partial_charge
P1    P     P_3+3 0.937730 0.712710 0.546710 0.437390
O1    O     O_2   0.108370 0.727470 0.525290 -0.366376
O2    O     O_3   0.865330 0.611210 0.531230 -0.407432
O3    O     O_3   0.346360 0.671710 0.401620 -0.374974
O4    O     O_2   0.230889 0.832786 0.443378 -0.350740
O5    O     O_3   0.982331 0.719704 0.637437 -0.587599
O6    O     O_3   0.339348 0.828632 0.320292 -0.551016
C1    C     C_3   0.542524 0.903035 0.259698 -0.002686
H1    H     H_    0.597536 0.942518 0.306371 0.136954
P2    P     P_3+3 0.357970 0.428340 0.344000 0.478000
P3    P     P_3+3 0.898110 0.607973 0.277837 0.423014
O7    O     O_2   0.182890 0.456530 0.332150 -0.388470
O8    O     O_3   0.933230 0.625130 0.368420 -0.380442
O9    O     O_2   0.047999 0.570550 0.245133 -0.425200
O10   O     O_3   0.357021 0.311513 0.318039 -0.579725
O11   O     O_3   0.866320 0.715929 0.243772 -0.575954
C2    C     C_3   0.992252 0.777616 0.264225 0.563025
H2    H     H_    0.098247 0.742428 0.287060 0.115538
C3    C     C_3   0.042904 0.819509 0.197493 -0.106900
H3    H     H_    0.090320 0.763512 0.164283 0.145384
C4    C     C_3   0.770913 0.333381 0.330009 0.307991
H4    H     H_    0.655882 0.344449 0.352480 0.142520
H5    H     H_    0.844144 0.397702 0.336283 0.052216
C5    C     C_3   0.739684 0.307536 0.252008 -0.145019
H6    H     H_    0.654794 0.355114 0.227252 0.117541
H7    H     H_    0.851192 0.312550 0.225536 0.125512
Ba1   Ba    Ba6+2 0.150350 0.545800 0.464500 1.541470
C6    C     C_3   0.867565 0.770254 0.670896 0.252606
H8    H     H_    0.786118 0.722182 0.694008 0.117562
H9    H     H_    0.792455 0.811130 0.635105 0.033719
C7    C     C_3   0.952179 0.835882 0.727478 0.038571
H10   H     H_    0.048059 0.872614 0.702888 0.129029
C8    C     C_3   0.254900 0.260868 0.354915 0.672854
H11   H     H_    0.142884 0.296209 0.364326 0.062441
C9    C     C_3   0.220507 0.167399 0.316183 -0.412178
H12   H     H_    0.163015 0.121728 0.351788 0.181167
H13   H     H_    0.334840 0.136449 0.304073 0.301495
P4    P     P_3+3 0.872570 0.287280 0.453240 0.475965
O12   O     O_2   0.701930 0.272470 0.474700 -0.309733
O13   O     O_3   0.944970 0.388780 0.468720 -0.435985
O14   O     O_3   0.463940 0.328280 0.598320 -0.324493
O15   O     O_3   0.851499 0.262268 0.362972 -0.568834
P5    P     P_3+3 0.900905 0.383496 0.725527 0.498034
O16   O     O_3   0.372010 0.546630 0.581240 -0.436239
O17   O     O_3   0.877070 0.374860 0.631520 -0.392791
O18   O     O_2   0.770642 0.446630 0.752001 -0.357158
O19   O     O_3   0.850669 0.277163 0.755970 -0.457715
Ba2   Ba    Ba6+2 0.659830 0.454190 0.535450 1.572019
P6    P     P_3+3 0.371351 0.791826 0.406129 0.469539
C10   C     C_3   0.473200 0.811402 0.282011 0.514304
H14   H     H_    0.571620 0.780610 0.314551 -0.023598
H15   H     H_    0.637038 0.889288 0.224666 0.176699
O20   O     O_3   0.438280 0.453360 0.418700 -0.365975
C11   C     C_3   0.453953 0.735344 0.624377 0.484081
H16   H     H_    0.568554 0.725080 0.601088 0.031560
H17   H     H_    0.357859 0.709267 0.586139 0.159289
C12   C     C_3   0.425789 0.837203 0.637926 -1.109908
H18   H     H_    0.508036 0.864915 0.681789 0.272390
H19   H     H_    0.444055 0.875017 0.590316 0.248201
H20   H     H_    0.302462 0.847514 0.652312 0.260016
P7    P     P_3+3 0.448583 0.571876 0.669848 0.428252
O21   O     O_2   0.627420 0.543410 0.667830 -0.344431
O22   O     O_3   0.453929 0.691021 0.687686 -0.584599
H21   H     H_    0.137084 0.871552 0.210456 0.188809
C13   C     C_3   0.956397 0.211007 0.732526 0.464248
H22   H     H_    0.898296 0.172122 0.686036 0.096942
H23   H     H_    0.071407 0.239607 0.717804 0.004573
C14   C     C_3   0.993989 0.146758 0.791161 -1.008142
H24   H     H_    0.883780 0.122518 0.812571 0.276201
H25   H     H_    0.059276 0.086544 0.771653 0.218365
H26   H     H_    0.067509 0.184141 0.833955 0.299546
P8    P     P_3+3 0.434820 0.211287 0.612915 0.516708
C15   C     C_3   0.418776 0.129702 0.729564 0.245017
H27   H     H_    0.451118 0.064807 0.701615 0.094445
O23   O     O_2   0.569163 0.162397 0.575747 -0.336920
O24   O     O_3   0.492755 0.205198 0.702169 -0.490371
H28   H     H_    0.288320 0.137559 0.724790 0.048578
C16   C     C_3   0.477588 0.127283 0.807207 -0.325315
H29   H     H_    0.463410 0.196648 0.832629 0.226837
H30   H     H_    0.606285 0.112740 0.811610 0.189092
C17   C     C_R   0.006495 0.941924 0.541680 -0.136659
C18   C     C_R   0.820449 0.807363 0.505416 0.209951
C19   C     C_R   0.674206 0.777673 0.472809 -0.523236
C20   C     C_R   0.562266 0.839173 0.448278 0.148707
C21   C     C_R   0.598736 0.933928 0.451902 0.195088
C22   C     C_R   0.751472 0.967401 0.478565 -0.030336
C23   C     C_R   0.861828 0.904613 0.508965 -0.054233
H31   H     H_    0.643515 0.705050 0.468904 0.187543
C24   C     C_R   0.939823 0.099466 0.506734 -0.048366
C25   C     C_R   0.044979 0.037751 0.542024 0.128357
C26   C     C_R   0.984404 0.195909 0.505231 0.238816
C27   C     C_R   0.126245 0.225775 0.542765 -0.417610
C28   C     C_R   0.231841 0.165916 0.577120 0.239971
C29   C     C_R   0.190179 0.071954 0.576214 -0.303693
C30   C     C_R   0.794520 0.062235 0.475353 -0.086379
H32   H     H_    0.272776 0.024938 0.600742 0.133642
H33   H     H_    0.164036 0.295850 0.537802 0.161168
H34   H     H_    0.090026 0.896811 0.567632 0.155399
H35   H     H_    0.714391 0.107231 0.447737 0.225268
C31   C     C_R   0.611162 0.526044 0.299239 -0.554186
C32   C     C_R   0.461251 0.488813 0.278914 0.351073
C33   C     C_R   0.410161 0.478111 0.207269 -0.267983
C34   C     C_R   0.511353 0.503260 0.155941 0.031328
C35   C     C_R   0.665860 0.535556 0.177806 -0.275639
C36   C     C_R   0.715105 0.545962 0.249195 0.286653
C37   C     C_R   0.490128 0.566687 0.036016 -0.176238
C38   C     C_R   0.434652 0.561381 0.965292 -0.205211
C39   C     C_R   0.352349 0.482603 0.935117 0.061662
C40   C     C_R   0.328200 0.408454 0.978800 0.333060
C41   C     C_R   0.376465 0.416729 0.050545 -0.213085
C42   C     C_R   0.457417 0.495734 0.079996 0.124270
C43   C     C_R   0.146383 0.441281 0.834393 -0.240186
C44   C     C_R   0.103142 0.428682 0.762521 0.176053
C45   C     C_R   0.349422 0.506675 0.737189 0.292006
C46   C     C_R   0.395324 0.515872 0.809137 -0.272529
C47   C     C_R   0.298277 0.478558 0.858568 0.081840
C48   C     C_R   0.213362 0.454275 0.715877 -0.135100
H36   H     H_    0.505980 0.551486 0.826120 0.153044
H37   H     H_    0.456520 0.619571 0.934196 0.142370
H38   H     H_    0.556811 0.627375 0.056553 0.152942
H39   H     H_    0.293764 0.448610 0.191659 0.153159
H40   H     H_    0.356435 0.359482 0.082926 0.167512
H41   H     H_    0.062577 0.421831 0.871075 0.183854
H42   H     H_    0.746243 0.555283 0.139694 0.167133
H43   H     H_    0.650442 0.535365 0.354224 0.178222
C49   C     C_3   0.431445 0.737531 0.221939 -0.391618
C50   C     C_3   0.416697 0.768564 0.146694 -0.843429
H44   H     H_    0.334244 0.825732 0.139273 0.294828
H45   H     H_    0.534647 0.788276 0.129977 0.298154
H46   H     H_    0.367099 0.710726 0.111703 0.242963
H47   H     H_    0.526315 0.686386 0.223845 0.203987
H48   H     H_    0.321949 0.699112 0.231922 0.205607
Br1   Br    Br    0.647552 0.185066 0.235954 -0.434968
C51   C     C_3   0.036240 0.783927 0.788135 -0.342186
C52   C     C_3   0.926965 0.723415 0.827342 -0.854728
H49   H     H_    0.824970 0.762888 0.845230 0.258837
H50   H     H_    0.883084 0.662311 0.794163 0.256387
H51   H     H_    0.995218 0.697984 0.874127 0.254483
H52   H     H_    0.130512 0.740133 0.767407 0.219509
H53   H     H_    0.096669 0.834944 0.826532 0.196634
C53   C     C_3   0.838561 0.909559 0.753632 -0.375910
C54   C     C_3   0.796896 0.980295 0.698588 -0.951795
H54   H     H_    0.906211 0.007998 0.678371 0.256896
H55   H     H_    0.719429 0.951304 0.653538 0.265004
H56   H     H_    0.731979 0.037640 0.722244 0.274730
H57   H     H_    0.728613 0.875848 0.768257 0.201657
H58   H     H_    0.895261 0.946989 0.801181 0.225326
Br2   Br    Br    0.374522 0.239416 0.439240 -0.446969
Br3   Br    Br    0.393172 0.984977 0.214415 -0.493586
C55   C     C_3   0.110821 0.169476 0.248664 -0.299540
C56   C     C_3   0.168499 0.232901 0.194543 -0.680680
H59   H     H_    0.095195 0.220447 0.144278 0.247386
H60   H     H_    0.155000 0.305901 0.212023 0.226652
H61   H     H_    0.294421 0.219500 0.185447 0.302513
H62   H     H_    0.099974 0.098696 0.224335 0.257292
H63   H     H_    0.991161 0.189021 0.261995 0.242820
C57   C     C_3   0.391277 0.057218 0.848736 -0.294798
C58   C     C_3   0.387123 0.959899 0.815468 -0.922280
H64   H     H_    0.305237 0.955227 0.767212 0.245650
H65   H     H_    0.507639 0.939870 0.802913 0.270025
H66   H     H_    0.344895 0.911243 0.852917 0.262408
H67   H     H_    0.453987 0.056051 0.901809 0.241783
H68   H     H_    0.268852 0.079245 0.856052 0.233162
Br4   Br    Br    0.433195 0.015895 0.423996 -0.522918
C59   C     C_3   0.939996 0.846352 0.321906 -0.328300
C60   C     C_3   0.004268 0.944944 0.321696 -0.835247
H69   H     H_    0.135256 0.947099 0.323151 0.325076
H70   H     H_    0.952867 0.979054 0.274984 0.280045
H71   H     H_    0.969236 0.984591 0.368585 0.255920
H72   H     H_    0.810293 0.849225 0.319279 0.157761
H73   H     H_    0.973530 0.818471 0.373526 0.225245
Br5   Br    Br    0.247007 0.289978 0.943957 -0.619807
C61   C     C_3   0.171328 0.435115 0.641728 -0.430747
C62   C     C_3   0.063982 0.511896 0.616030 -0.418344
H74   H     H_    0.970921 0.530968 0.651451 0.214118
H75   H     H_    0.127806 0.577111 0.611681 0.234271
H76   H     H_    0.006372 0.486889 0.565918 0.287536
H77   H     H_    0.268199 0.423197 0.610430 0.248167
H78   H     H_    0.129588 0.363780 0.635760 0.151955
Br6   Br    Br    0.874593 0.873554 0.139427 -0.505139

loop_
_geom_bond_atom_site_label_1
_geom_bond_atom_site_label_2
_geom_bond_distance
_ccdc_geom_bond_type
Ba1   Ba2   4.661117 S    
P2    Ba1   3.418394 S    
C52   H51   1.110581 S    
C60   H70   1.108196 S    
C59   H73   1.107238 S    
C57   C58   1.523947 S    
C24   C30   1.412774 A    
C15   H27   1.111500 S    
C3    H3    1.108870 S    
C43   C47   1.420621 A    
P8    O24   1.751483 S    
C45   C46   1.404293 A    
C52   H49   1.109732 S    
C21   C22   1.420526 A    
C31   C36   1.390090 A    
C59   C60   1.528093 S    
C19   C20   1.382956 A    
C61   H77   1.064049 S    
P6    C20   1.854441 S    
O19   C13   1.404425 S    
C6    H8    1.107279 S    
C9    H13   1.107728 S    
C5    H7    1.108358 S    
P4    O15   1.747829 S    
P2    O10   1.748416 S    
P8    O23   1.550428 D    
C51   H53   1.109797 S    
P4    O12   1.545432 D    
P3    O9    1.550878 D    
C30   H35   1.076322 S    
C12   H19   1.110142 S    
O11   C2    1.401909 S    
C11   O22   1.404203 S    
C61   H78   1.089959 S    
C18   C23   1.450836 A    
O2    Ba2   2.859838 S    
C39   C40   1.421787 A    
P7    C45   1.883016 S    
C34   C42   1.491132 S    
P1    O1    1.545064 D    
C56   H61   1.109869 S    
P7    O22   1.750801 S    
P2    O20   1.561262 S    
C41   C42   1.401219 A    
C35   C36   1.400798 A    
C58   H66   1.109173 S    
C8    C9    1.531068 S    
C62   H74   1.108808 S    
C52   H50   1.110017 S    
Ba1   O16   2.804160 S    
O5    C6    1.401975 S    
C9    H12   1.110898 S    
C14   H24   1.107331 S    
C13   H23   1.114091 S    
P3    C36   1.812617 S    
C15   C16   1.535879 S    
O1    Ba1   2.875763 S    
C10   C49   1.553637 S    
C9    C55   1.534524 S    
C24   C26   1.451117 A    
C33   H39   1.081751 S    
C1    H15   1.098134 S    
P4    Ba2   3.437361 S    
C40   Br5   1.916820 S    
C13   C14   1.516400 S    
C19   H31   1.082812 S    
C55   H63   1.099950 S    
C4    H4    1.104581 S    
C58   H65   1.104362 S    
C54   H56   1.103874 S    
O4    P6    1.544806 D    
P7    O21   1.574966 D    
C7    C51   1.550553 S    
C38   H37   1.082476 S    
C43   C44   1.401661 A    
C27   H33   1.075887 S    
C25   C29   1.416658 A    
C37   C42   1.404371 A    
C6    C7    1.536137 S    
Ba2   O20   2.803741 S    
C11   H17   1.100807 S    
O7    Ba1   2.831065 S    
C31   H43   1.082682 S    
C32   C33   1.409174 A    
C5    H6    1.101126 S    
O6    P6    1.759965 S    
C43   H41   1.081911 S    
C26   C27   1.400788 A    
C16   H29   1.111899 S    
C1    H1    1.106885 S    
C12   H20   1.109012 S    
C10   H14   1.112876 S    
P1    C18   1.879158 S    
C61   C62   1.525581 S    
P4    C26   1.917308 S    
C5    Br1   1.936478 S    
P1    O5    1.750515 S    
P1    O2    1.596668 S    
C7    C53   1.541186 S    
C50   H45   1.109074 S    
C8    Br2   1.881523 S    
P3    O11   1.748269 S    
C16   C57   1.536309 S    
Ba2   O21   2.831083 S    
C7    H10   1.112910 S    
C49   H48   1.108911 S    
C3    H21   1.096600 S    
C56   H59   1.110313 S    
C46   H36   1.082010 S    
C2    H2    1.108735 S    
C28   C29   1.406904 A    
C20   C21   1.406639 A    
C29   H32   1.081852 S    
P5    O17   1.798183 S    
C62   H76   1.086964 S    
C17   C23   1.417641 A    
P2    O7    1.542869 D    
C53   H57   1.106710 S    
O14   P8    1.757132 S    
C44   C48   1.401142 A    
C17   C25   1.427861 A    
C13   H22   1.109582 S    
C55   H62   1.109766 S    
C4    H5    1.111498 S    
C60   H69   1.104658 S    
C15   O24   1.402129 S    
C54   H55   1.105114 S    
P8    C28   1.893778 S    
C38   C39   1.408274 A    
C50   H44   1.100155 S    
C1    C10   1.543204 S    
C51   H52   1.112696 S    
O3    Ba1   2.830606 S    
O17   Ba2   2.799757 S    
C48   C61   1.452119 S    
C59   H72   1.094322 S    
O13   Ba2   2.963210 S    
C57   H68   1.104436 S    
C11   H16   1.106927 S    
C17   H34   1.080402 S    
Ba1   O13   2.859230 S    
C37   H38   1.081778 S    
C22   C23   1.426832 A    
P2    C32   1.832622 S    
O6    C10   1.415143 S    
Ba1   O20   2.968474 S    
C14   H26   1.105785 S    
C51   C52   1.532442 S    
C35   H42   1.083108 S    
O16   P7    1.790338 S    
C55   C56   1.527363 S    
O3    P6    1.755772 S    
C39   C47   1.502239 S    
C6    H9    1.100465 S    
C1    Br3   1.934427 S    
C50   H46   1.107152 S    
C2    C59   1.550009 S    
C40   C41   1.404143 A    
C41   H40   1.083558 S    
P4    O13   1.596669 S    
P3    O8    1.745979 S    
C12   H18   1.104926 S    
C58   H64   1.110265 S    
C49   H47   1.101204 S    
C49   C50   1.531213 S    
C57   H67   1.111706 S    
O2    Ba1   2.962349 S    
C27   C28   1.405627 A    
C2    C3    1.534210 S    
O14   Ba2   2.829890 S    
C8    H11   1.106370 S    
C16   H30   1.107934 S    
C56   H60   1.108784 S    
C33   C34   1.412935 A    
P5    O18   1.544078 D    
C62   H75   1.095555 S    
C45   C48   1.393267 A    
C22   C30   1.428593 A    
C53   H58   1.110975 S    
C4    O15   1.397253 S    
O16   Ba2   2.967622 S    
C60   H71   1.107519 S    
C14   H25   1.107485 S    
C18   C19   1.393281 A    
C37   C38   1.399077 A    
C4    C5    1.527394 S    
C34   C35   1.406363 A    
P1    Ba1   3.436787 S    
C21   Br4   1.912542 S    
C15   H28   1.106572 S    
C54   H54   1.108187 S    
O8    Ba1   2.799258 S    
C31   C32   1.389928 A    
C24   C25   1.429266 A    
C53   C54   1.536449 S    
P5    O19   1.740596 S    
C3    Br6   1.936709 S    
O10   C8    1.385688 S    
P5    C44   1.893916 S    
C46   C47   1.424757 A    
O12   Ba2   2.876302 S    
C11   C12   1.518244 S    
