data_mof_unit_6137.cif
_audit_creation_date              2012-10-26T19:23:51-0400
_audit_creation_method            fapswitch 2.2
_symmetry_space_group_name_H-M    P1
_symmetry_Int_Tables_number       1
_space_group_crystal_system       triclinic
_cell_length_a                    27.749802
_cell_length_b                    12.996621
_cell_length_c                    11.656241
_cell_angle_alpha                 99.807753
_cell_angle_beta                  93.021989
_cell_angle_gamma                 90.522092
_cell_volume                      4135.96603804

loop_
_atom_site_label
_atom_site_type_symbol
_atom_type_description
_atom_site_fract_x
_atom_site_fract_y
_atom_site_fract_z
_atom_type_partial_charge
C1    C     C_R   0.499304 0.299058 0.478656 0.552733
C2    C     C_R   0.871007 0.411377 0.441623 0.029517
C3    C     C_R   0.354353 0.498604 0.504512 -0.034512
C4    C     C_R   0.645641 0.501306 0.495324 -0.034598
C5    C     C_R   0.972854 0.405608 0.457399 0.018047
C6    C     C_R   0.026922 0.592485 0.535370 0.057577
C7    C     C_R   0.976132 0.597639 0.512664 -0.006042
C8    C     C_R   0.023769 0.400333 0.479646 -0.060167
C9    C     C_R   0.949211 0.502837 0.482853 0.012328
C10   C     C_R   0.050635 0.495285 0.510528 0.006927
C11   C     C_R   0.944738 0.318107 0.402382 -0.150155
C12   C     C_R   0.500696 0.700941 0.521344 0.552731
C13   C     C_R   0.054713 0.680287 0.590721 -0.083621
C14   C     C_R   0.894699 0.319611 0.399147 -0.118171
C15   C     C_R   0.104748 0.679009 0.595554 -0.096787
C16   C     C_R   0.407361 0.499586 0.501111 0.558900
C17   C     C_R   0.592638 0.500412 0.498877 0.558522
C18   C     C_R   0.048882 0.304394 0.479355 0.003392
C19   C     C_R   0.950987 0.693445 0.512867 -0.003559
C20   C     C_R   0.501081 0.814334 0.533696 0.002681
C21   C     C_R   0.498920 0.185666 0.466304 0.002689
C22   C     C_R   0.495581 0.015113 0.344141 -0.133709
C23   C     C_R   0.101799 0.493628 0.518637 -0.081086
C24   C     C_R   0.504421 0.984886 0.655859 -0.133873
C25   C     C_R   0.495804 0.123242 0.355220 -0.131698
C26   C     C_R   0.504198 0.876757 0.644779 -0.131818
C27   C     C_R   0.501745 0.139323 0.566349 -0.126817
C28   C     C_R   0.498257 0.860677 0.433651 -0.126702
C29   C     C_R   0.501550 0.031288 0.555989 0.049672
C30   C     C_R   0.498452 0.968712 0.444011 0.049705
C31   C     C_R   0.454386 0.402091 0.023081 -0.178065
C32   C     C_R   0.545615 0.597907 0.976919 -0.178205
C33   C     C_R   0.458812 0.411426 0.145136 0.043449
C34   C     C_R   0.898032 0.504801 0.476498 -0.077160
C35   C     C_R   0.541188 0.588574 0.854864 0.043325
C36   C     C_R   0.519775 0.542222 0.156362 0.042628
C37   C     C_R   0.480226 0.457776 0.843638 0.042643
C38   C     C_R   0.516591 0.535536 0.033704 0.006625
C39   C     C_R   0.483410 0.464462 0.966296 0.006568
C40   C     C_R   0.176898 0.402114 0.485238 0.417764
C41   C     C_R   0.823218 0.596663 0.513253 0.420679
C42   C     C_R   0.179061 0.586035 0.551847 0.418429
C43   C     C_R   0.820667 0.412843 0.445694 0.414252
C44   C     C_R   0.282068 0.498281 0.615217 0.312767
C45   C     C_R   0.126237 0.398859 0.492104 -0.009494
C46   C     C_R   0.717805 0.501747 0.384246 0.313088
C47   C     C_R   0.332566 0.497822 0.610583 -0.142391
C48   C     C_R   0.667333 0.502477 0.389213 -0.142801
C49   C     C_R   0.325128 0.497542 0.402224 -0.162471
C50   C     C_R   0.674951 0.501780 0.597368 -0.163083
C51   C     C_R   0.275009 0.495696 0.405944 -0.109894
C52   C     C_R   0.725071 0.503340 0.593329 -0.112230
C53   C     C_R   0.253473 0.495565 0.511798 0.260663
C54   C     C_R   0.746501 0.503785 0.487389 0.260426
C55   C     C_3   0.136524 0.196675 0.593516 0.033586
C56   C     C_R   0.873770 0.599724 0.504456 0.007391
C57   C     C_3   0.161164 0.092287 0.590431 -0.314199
C58   C     C_3   0.862460 0.804655 0.407606 0.008602
C59   C     C_3   0.837962 0.909563 0.414816 -0.337582
C60   C     C_3   0.725181 0.422600 0.194098 -0.005736
C61   C     C_3   0.762280 0.407480 0.101479 -0.352751
C62   C     C_3   0.274462 0.578083 0.805047 -0.006879
C63   C     C_3   0.237276 0.593397 0.897456 -0.351276
C64   C     C_2   0.023501 0.207409 0.497297 0.214937
C65   C     C_2   0.974934 0.790973 0.492233 0.217662
C66   C     C_R   0.099887 0.304012 0.481217 0.291731
C67   C     C_R   0.900203 0.694440 0.514751 0.239731
C68   C     C_R   0.128665 0.587240 0.554255 0.028075
Cu1   Cu    Cu3+1 0.503580 0.507730 0.615930 0.936192
Cu2   Cu    Cu3+1 0.496420 0.492270 0.384070 0.936318
H1    H     H_    0.340952 0.497871 0.319315 0.140199
H2    H     H_    0.436335 0.363047 0.188225 0.126824
H3    H     H_    0.428503 0.346583 0.973672 0.090465
H4    H     H_    0.571498 0.653415 0.026328 0.089991
H5    H     H_    0.252780 0.494587 0.326535 0.131931
H6    H     H_    0.747375 0.503945 0.672527 0.128709
H7    H     H_    0.645177 0.505295 0.310605 0.121372
H8    H     H_    0.354668 0.495486 0.689388 0.121522
H9    H     H_    0.874686 0.248679 0.362207 0.159812
H10   H     H_    0.124573 0.750159 0.632603 0.159099
H11   H     H_    0.960767 0.247704 0.359131 0.144061
H12   H     H_    0.659194 0.501148 0.680296 0.139634
H13   H     H_    0.038321 0.751011 0.632108 0.125544
H14   H     H_    0.495887 0.812923 0.347570 0.121496
H15   H     H_    0.504115 0.187077 0.652429 0.121381
H16   H     H_    0.104055 0.196389 0.645707 0.120540
H17   H     H_    0.161987 0.259345 0.638137 0.146719
H18   H     H_    0.194260 0.090683 0.540604 0.188077
H19   H     H_    0.171348 0.080518 0.680641 0.094200
H20   H     H_    0.136299 0.027793 0.548219 0.193810
H21   H     H_    0.836464 0.742800 0.363629 0.167512
H22   H     H_    0.894146 0.805514 0.352998 0.134859
H23   H     H_    0.506433 0.842153 0.723065 0.130531
H24   H     H_    0.863358 0.973284 0.456387 0.159651
H25   H     H_    0.826623 0.922984 0.325843 0.105529
H26   H     H_    0.805595 0.910686 0.467129 0.193198
H27   H     H_    0.689937 0.439548 0.152006 0.120878
H28   H     H_    0.722072 0.348043 0.228839 0.160579
H29   H     H_    0.797915 0.389785 0.140927 0.175176
H30   H     H_    0.750816 0.341535 0.031330 0.101701
H31   H     H_    0.765747 0.479497 0.062907 0.160376
H32   H     H_    0.277544 0.652466 0.769948 0.160931
H33   H     H_    0.309688 0.561427 0.847435 0.121491
H34   H     H_    0.493568 0.157847 0.276935 0.130552
H35   H     H_    0.233829 0.521560 0.936367 0.161143
H36   H     H_    0.248640 0.659588 0.967400 0.105605
H37   H     H_    0.201654 0.610810 0.857717 0.174108
H38   H     H_    0.992259 0.212822 0.550096 0.095382
H39   H     H_    0.962439 0.866533 0.533421 0.150582
H40   H     H_    0.493181 0.967933 0.257821 0.105294
H41   H     H_    0.506821 0.032067 0.742178 0.105162
H42   H     H_    0.454826 0.403423 0.790783 0.114624
H43   H     H_    0.545175 0.596574 0.209216 0.114394
H44   H     H_    0.563664 0.636955 0.811775 0.126535
N1    N     N_R   0.201908 0.494746 0.514844 -0.380136
N2    N     N_R   0.798049 0.504203 0.483827 -0.382121
N3    N     N_R   0.508960 0.519350 0.790140 -0.230331
N4    N     N_R   0.491040 0.480650 0.209860 -0.230349
O1    O     O_R   0.502540 0.354460 0.582000 -0.508793
O2    O     O_2   0.799295 0.684802 0.551104 -0.447488
O3    O     O_2   0.794508 0.323590 0.413244 -0.517532
O4    O     O_2   0.205048 0.675475 0.584689 -0.513029
O5    O     O_3   0.123830 0.210478 0.477981 -0.462328
O6    O     O_3   0.876623 0.788750 0.521622 -0.532043
O7    O     O_3   0.740209 0.507359 0.281892 -0.549426
O8    O     O_3   0.259560 0.493015 0.717517 -0.550075
O9    O     O_2   0.036639 0.121127 0.452436 -0.444367
O10   O     O_2   0.006995 0.787800 0.423907 -0.480880
O11   O     O_R   0.497460 0.645540 0.418000 -0.508694
O12   O     O_R   0.496500 0.341410 0.386200 -0.507644
O13   O     O_R   0.503500 0.658590 0.613800 -0.507623
O14   O     O_R   0.433290 0.506540 0.597890 -0.506674
O15   O     O_R   0.566710 0.493460 0.402110 -0.506864
O16   O     O_R   0.427240 0.493490 0.402090 -0.501492
O17   O     O_R   0.572760 0.506510 0.597910 -0.501645
O18   O     O_2   0.201075 0.313987 0.448864 -0.447066

loop_
_geom_bond_atom_site_label_1
_geom_bond_atom_site_label_2
_ccdc_geom_bond_type
C48   H7    S    
C1    C21   S    
C23   C45   A    
C12   O13   A    
C28   H14   S    
C46   O7    S    
C16   O16   A    
C67   O6    S    
C3    C49   A    
C11   H11   S    
C34   C56   A    
C40   O18   S    
C44   O8    S    
C29   C30   A    
C57   H19   S    
C60   O7    S    
C51   H5    S    
C5    C11   A    
C60   H28   S    
C32   H4    S    
C38   C39   A    
C11   C14   A    
C31   H3    S    
C40   N1    A    
C27   C29   A    
Cu2   O12   S    
C35   H44   S    
C1    O1    A    
Cu1   N3    S    
C27   H15   S    
C24   C29   A    
C37   H42   S    
C33   H2    S    
C44   C53   A    
C22   H40   S    
C22   C25   A    
C54   N2    S    
C17   O17   A    
Cu2   O15   S    
C50   C52   A    
C31   C33   A    
C19   C67   A    
C59   H24   S    
C32   C38   A    
C63   H35   S    
C36   N4    A    
C58   H21   S    
C43   O3    S    
C44   C47   A    
C2    C34   A    
C26   H23   S    
C21   C27   A    
C33   N4    A    
Cu1   O17   S    
C42   C68   A    
C46   C54   A    
C61   H29   S    
C24   H41   S    
C59   H25   S    
C16   O14   A    
C36   H43   S    
C52   C54   A    
C64   H38   S    
C46   C48   A    
C40   C45   A    
C55   O5    S    
C57   H20   S    
C65   O10   D    
C1    O12   A    
C12   O11   A    
C62   O8    S    
C20   C28   A    
C49   C51   A    
C58   C59   S    
Cu1   O1    S    
Cu2   O11   S    
C8    C18   A    
C4    C50   A    
C60   C61   S    
C51   C53   A    
C23   C68   A    
C61   H31   S    
C32   C35   A    
C41   C56   A    
C5    C9    A    
C62   C63   S    
C43   N2    A    
C15   H10   S    
C2    C43   A    
Cu1   O13   S    
C64   O9    D    
C12   C20   S    
C42   O4    S    
C14   H9    S    
C63   H36   S    
C65   H39   S    
C4    C17   S    
C60   H27   S    
C7    C19   A    
C55   C57   S    
C17   O15   A    
C9    C34   A    
C35   N3    A    
C61   H30   S    
C59   H26   S    
C41   N2    A    
C63   H37   S    
C36   C38   A    
C50   H12   S    
C62   H33   S    
C4    C48   A    
C7    C9    A    
C21   C25   A    
C22   C30   A    
C24   C26   A    
C52   H6    S    
C6    C10   A    
C5    C8    A    
C25   H34   S    
C6    C7    A    
C10   C23   A    
C18   C66   A    
C56   C67   A    
C13   H13   S    
C58   O6    S    
C57   H18   S    
C55   H16   S    
C13   C15   A    
C28   C30   A    
C37   C39   A    
C6    C13   A    
C18   C64   S    
C20   C26   A    
Cu2   N4    S    
Cu1   O14   S    
C15   C68   A    
C3    C47   A    
C31   C39   A    
C19   C65   S    
C41   O2    S    
C55   H17   S    
Cu1   Cu2   S    
C2    C14   A    
C42   N1    A    
C37   N3    A    
C8    C10   A    
C49   H1    S    
C45   C66   A    
Cu2   O16   S    
C66   O5    S    
C47   H8    S    
C58   H22   S    
C3    C16   S    
C53   N1    S    
C62   H32   S    
