data_mof_unit_36992.cif
_audit_creation_date              2012-12-10T18:31:59-0500
_audit_creation_method            fapswitch 2.2
_symmetry_space_group_name_H-M    P1
_symmetry_Int_Tables_number       1
_space_group_crystal_system       triclinic
_cell_length_a                    10.683104
_cell_length_b                    15.007239
_cell_length_c                    15.555013
_cell_angle_alpha                 81.342502
_cell_angle_beta                  89.742723
_cell_angle_gamma                 104.565489
_cell_volume                      2383.85030757

loop_
_atom_site_label
_atom_site_type_symbol
_atom_type_description
_atom_site_fract_x
_atom_site_fract_y
_atom_site_fract_z
_atom_type_partial_charge
C1    C     C_R   0.478854 0.440982 0.661785 0.807472
C2    C     C_R   0.500418 0.445599 0.898526 0.069309
C3    C     C_R   0.525737 0.357679 0.929308 0.040005
C4    C     C_R   0.741628 0.500075 0.501932 0.866342
C5    C     C_R   0.517480 0.515478 0.952310 0.021368
C6    C     C_R   0.550874 0.494447 0.039218 -0.074135
C7    C     C_R   0.591269 0.411201 0.065866 0.361816
C8    C     C_R   0.568486 0.338984 0.014753 0.048675
C9    C     C_R   0.509441 0.607812 0.920896 -0.180369
C10   C     C_R   0.525876 0.674903 0.975032 -0.210705
C11   C     C_R   0.540436 0.650732 0.063388 0.091873
C12   C     C_3   0.119082 0.493831 0.505248 -0.032337
C13   C     C_R   0.547192 0.559257 0.096633 0.110089
C14   C     C_R   0.544537 0.716243 0.119271 -0.222400
C15   C     C_R   0.548511 0.690954 0.209040 0.446724
C16   C     C_R   0.520676 0.559137 0.337622 0.914233
C17   C     C_R   0.537904 0.532348 0.186826 -0.317223
C18   C     C_R   0.660293 0.838097 0.650759 -0.350619
C19   C     C_R   0.661433 0.759365 0.614222 0.175774
C20   C     C_R   0.497855 0.787740 0.518776 0.504045
C21   C     C_R   0.516975 0.879476 0.540552 -0.124977
C22   C     C_R   0.589736 0.899872 0.614389 0.054646
C23   C     C_3   0.063873 0.475207 0.412706 0.729343
C24   C     C_R   0.470341 0.951400 0.490704 0.049200
C25   C     C_R   0.479289 0.036403 0.522741 0.071066
C26   C     C_R   0.549300 0.052251 0.597836 -0.217582
C27   C     C_R   0.599685 0.984524 0.646460 0.115793
C28   C     C_R   0.257518 0.497615 0.503219 0.908125
C29   C     C_R   0.430266 0.945169 0.405228 -0.383217
C30   C     C_R   0.387952 0.016023 0.354480 0.502503
C31   C     C_R   0.392257 0.099334 0.387125 0.021645
C32   C     C_R   0.431580 0.108115 0.473588 -0.264991
C33   C     C_R   0.363429 0.176094 0.334071 0.389237
C34   C     C_3   0.104117 0.594373 0.513558 -0.448054
C35   C     C_R   0.388070 0.261227 0.364952 -0.248664
C36   C     C_R   0.428862 0.192205 0.504983 0.553918
C37   C     C_3   0.894304 0.416399 0.572486 0.241714
C38   C     C_3   0.041865 0.418797 0.586351 0.095053
C39   C     C_3   0.925223 0.493064 0.408164 -0.100059
C40   C     C_3   0.962916 0.590825 0.529399 -0.559178
C41   C     C_3   0.878616 0.500053 0.502348 -0.069440
C42   C     C_3   0.916505 0.580685 0.341213 -0.410243
C43   C     C_3   0.879115 0.556664 0.251167 -0.373079
C44   C     C_3   0.888039 0.644724 0.185228 -0.855730
C45   C     C_R   0.472893 0.403769 0.754122 -0.060774
C46   C     C_3   0.596244 0.243752 0.045622 -0.396871
C47   C     C_3   0.631418 0.220300 0.140725 -0.229532
C48   C     C_3   0.632384 0.117823 0.163105 -0.856850
C49   C     C_3   0.668249 0.002562 0.730774 -0.424796
C50   C     C_3   0.653073 0.088285 0.769077 -0.353669
C51   C     C_3   0.720002 0.094200 0.855328 -0.898695
C52   C     C_3   0.772788 0.716489 0.637564 -0.375691
C53   C     C_3   0.740900 0.635272 0.714051 -0.273537
C54   C     C_3   0.843075 0.645386 0.782728 -0.953321
C55   C     C_3   0.092078 0.451891 0.676014 -0.431362
C56   C     C_R   0.537831 0.596251 0.243830 -0.187388
C57   C     C_3   0.995610 0.426500 0.755856 -0.377871
C58   C     C_3   0.066375 0.430309 0.840867 -0.862902
C59   C     C_3   0.067553 0.318158 0.589675 -0.313046
C60   C     C_3   0.005616 0.243630 0.667752 -0.345873
C61   C     C_3   0.022627 0.148002 0.656117 -0.902146
C62   C     C_R   0.515606 0.292424 0.870954 -0.205247
C63   C     C_R   0.494475 0.316786 0.783524 -0.171890
C64   C     C_R   0.461717 0.462183 0.813057 -0.247638
H1    H     H_    0.141249 0.643234 0.452583 0.247264
H2    H     H_    0.373902 0.321848 0.323288 0.165123
H3    H     H_    0.724795 0.854246 0.702845 0.159885
H4    H     H_    0.575526 0.120786 0.614967 0.203864
H5    H     H_    0.440459 0.888247 0.373399 0.221577
H6    H     H_    0.857908 0.431922 0.386264 0.178700
H7    H     H_    0.943481 0.654377 0.491311 0.208968
H8    H     H_    0.944156 0.592252 0.599475 0.202062
H9    H     H_    0.161652 0.629404 0.563692 0.193103
H10   H     H_    0.848170 0.319694 0.497096 0.369256
H11   H     H_    0.825300 0.686406 0.207366 0.257607
H12   H     H_    0.524500 0.459630 0.213181 0.222235
H13   H     H_    0.989598 0.687902 0.176958 0.273063
H14   H     H_    0.856045 0.625780 0.121132 0.245997
H15   H     H_    0.941750 0.515943 0.227403 0.237581
H16   H     H_    0.777888 0.513243 0.257231 0.238138
H17   H     H_    0.840879 0.612347 0.362999 0.189907
H18   H     H_    0.007593 0.636876 0.335922 0.256384
H19   H     H_    0.130214 0.512768 0.290732 0.341600
H20   H     H_    0.536788 0.071995 0.151832 0.299383
H21   H     H_    0.707820 0.102641 0.122362 0.252234
H22   H     H_    0.653937 0.102070 0.232707 0.260839
H23   H     H_    0.521009 0.744899 0.948197 0.138274
H24   H     H_    0.730247 0.262197 0.151047 0.257709
H25   H     H_    0.560210 0.234659 0.185446 0.273145
H26   H     H_    0.507170 0.189619 0.035981 0.208540
H27   H     H_    0.676004 0.236600 0.003201 0.183084
H28   H     H_    0.627813 0.755211 0.300059 0.339591
H29   H     H_    0.735067 0.467623 0.128303 0.337297
H30   H     H_    0.672126 0.033715 0.904975 0.264429
H31   H     H_    0.823731 0.095486 0.846574 0.267526
H32   H     H_    0.714681 0.159251 0.879067 0.241862
H33   H     H_    0.697888 0.153213 0.723974 0.234595
H34   H     H_    0.532280 0.224359 0.889961 0.138026
H35   H     H_    0.548694 0.084079 0.780056 0.224705
H36   H     H_    0.628937 0.940681 0.781308 0.204045
H37   H     H_    0.772907 0.008977 0.719299 0.205163
H38   H     H_    0.368805 0.136424 0.622460 0.303011
H39   H     H_    0.346942 0.942744 0.259553 0.332337
H40   H     H_    0.939594 0.649422 0.753177 0.259581
H41   H     H_    0.847595 0.709235 0.811895 0.272257
H42   H     H_    0.817199 0.584031 0.835205 0.265143
H43   H     H_    0.646600 0.631199 0.746298 0.233457
H44   H     H_    0.735513 0.568727 0.689590 0.224777
H45   H     H_    0.500528 0.269228 0.738714 0.195990
H46   H     H_    0.810765 0.698132 0.579316 0.199118
H47   H     H_    0.856588 0.771769 0.653460 0.182091
H48   H     H_    0.324512 0.775963 0.480331 0.303282
H49   H     H_    0.123545 0.377395 0.849788 0.264334
H50   H     H_    0.132346 0.500624 0.840544 0.262071
H51   H     H_    0.994828 0.415430 0.896518 0.254358
H52   H     H_    0.935888 0.477723 0.751748 0.216734
H53   H     H_    0.928412 0.356618 0.759240 0.226377
H54   H     H_    0.178407 0.425396 0.693767 0.196001
H55   H     H_    0.131527 0.527461 0.670689 0.194781
H56   H     H_    0.428591 0.522859 0.788621 0.141732
H57   H     H_    0.305001 0.229509 0.223914 0.319051
H58   H     H_    0.964540 0.121937 0.601787 0.273609
H59   H     H_    0.126167 0.151937 0.642308 0.272498
H60   H     H_    0.989781 0.097968 0.716868 0.245686
H61   H     H_    0.053764 0.261448 0.728248 0.230356
H62   H     H_    0.901139 0.238386 0.676035 0.266366
H63   H     H_    0.038120 0.287938 0.530414 0.262202
H64   H     H_    0.172221 0.323145 0.594658 0.211185
H65   H     H_    0.135586 0.377000 0.376018 0.359772
H66   H     H_    0.848440 0.425664 0.633113 0.123455
H67   H     H_    0.494498 0.632293 0.854128 0.130583
H68   H     H_    0.544449 0.787443 0.093239 0.159490
N1    N     N_R   0.573860 0.731700 0.552730 -0.124346
N2    N     N_R   0.426060 0.268290 0.447230 -0.108601
O1    O     O_R   0.462770 0.383110 0.605620 -0.549638
O2    O     O_3   0.149243 0.536277 0.346757 -0.803515
O3    O     O_3   0.557012 0.759412 0.260010 -0.744203
O4    O     O_3   0.671367 0.406324 0.134193 -0.827876
O5    O     O_3   0.417700 0.198389 0.591918 -0.783523
O6    O     O_3   0.346276 0.005657 0.271624 -0.705178
O7    O     O_3   0.398911 0.750614 0.468314 -0.723953
O8    O     O_3   0.317940 0.168690 0.251668 -0.696169
O9    O     O_3   0.052179 0.382275 0.400258 -0.865263
O10   O     O_R   0.510160 0.531900 0.639510 -0.641357
O11   O     O_R   0.661510 0.425600 0.483070 -0.565155
O12   O     O_R   0.708900 0.574390 0.516960 -0.659725
O13   O     O_R   0.489840 0.468100 0.360490 -0.636660
O14   O     O_R   0.537230 0.616890 0.394380 -0.562797
O15   O     O_R   0.291100 0.425610 0.483040 -0.640997
O16   O     O_R   0.338490 0.574400 0.516930 -0.558133
O17   O     O_3   0.820200 0.329566 0.554737 -0.771343
Zn1   Zn    Zn3+2 0.468350 0.400660 0.477370 0.994477
Zn2   Zn    Zn3+2 0.531650 0.599340 0.522630 0.971647

loop_
_geom_bond_atom_site_label_1
_geom_bond_atom_site_label_2
_ccdc_geom_bond_type
C28   O16   A    
C40   H7    S    
C42   H18   S    
C57   C58   S    
C7    C8    A    
C39   C41   S    
C55   H55   S    
C53   C54   S    
C12   C23   S    
C26   C27   A    
C29   C30   A    
C23   O2    S    
C12   C28   S    
C16   O13   A    
C34   C40   S    
C32   C36   A    
C54   H40   S    
C60   H61   S    
C37   C38   S    
C49   H37   S    
C30   C31   A    
C11   C14   A    
C4    C41   S    
C59   H63   S    
O1    Zn1   S    
C37   H66   S    
C35   N2    A    
C18   C19   A    
O10   Zn2   S    
C24   C29   A    
H29   O4    S    
C33   C35   A    
C62   H34   S    
C19   C52   S    
C38   C55   S    
C47   C48   S    
O16   Zn2   S    
C58   H49   S    
C31   C33   A    
C20   N1    A    
C57   H52   S    
C9    C10   A    
C51   H32   S    
C25   C32   A    
C4    O12   A    
C59   C60   S    
C21   C22   A    
C12   C38   S    
C47   H25   S    
C23   O9    S    
C42   H17   S    
C37   O17   S    
H28   O3    S    
H57   O8    S    
C34   H1    S    
C2    C64   A    
C39   C42   S    
C29   H5    S    
C9    H67   S    
C64   H56   S    
C10   H23   S    
C30   O6    S    
C54   H42   S    
C24   C25   A    
C3    C8    A    
O15   Zn1   S    
C14   H68   S    
C46   H27   S    
C51   H30   S    
C35   H2    S    
C25   C26   A    
C45   C63   A    
C48   H20   S    
C61   H58   S    
H48   O7    S    
C63   H45   S    
C44   H11   S    
C43   C44   S    
C16   C56   S    
C5    C9    A    
C62   C63   A    
C17   H12   S    
C53   H43   S    
C31   C32   A    
C14   C15   A    
C52   H46   S    
N2    Zn1   S    
C59   H64   S    
C50   C51   S    
C50   H35   S    
C17   C56   A    
H19   O2    S    
H65   O9    S    
C40   C41   S    
C22   C27   A    
C55   C57   S    
C58   H51   S    
N1    Zn2   S    
H10   O17   S    
C2    C5    A    
O14   Zn2   S    
C12   C34   S    
C52   C53   S    
C57   H53   S    
C3    C62   A    
C46   C47   S    
C44   H13   S    
C50   H33   S    
C40   H8    S    
C54   H41   S    
C18   C22   A    
C20   O7    S    
C36   N2    A    
C7    O4    S    
C6    C7    A    
C46   H26   S    
C33   O8    S    
C19   N1    A    
C45   C64   A    
C52   H47   S    
C13   C17   A    
C61   H59   S    
C26   H4    S    
C47   H24   S    
C60   H62   S    
C2    C3    A    
C18   H3    S    
C1    O10   A    
H39   O6    S    
C15   C56   A    
C6    C13   A    
C11   C13   A    
C53   H44   S    
C1    C45   S    
C16   O14   A    
C5    C6    A    
O12   Zn2   S    
C23   C39   S    
C4    O11   A    
C44   H14   S    
C43   H16   S    
C39   H6    S    
O13   Zn1   S    
C48   H22   S    
H38   O5    S    
C37   C41   S    
C61   H60   S    
C36   O5    S    
C8    C46   S    
O11   Zn1   S    
C10   C11   A    
C34   H9    S    
C38   C59   S    
C28   O15   A    
C20   C21   A    
C49   C50   S    
C42   C43   S    
C21   C24   A    
C58   H50   S    
C48   H21   S    
C60   C61   S    
C15   O3    S    
C1    O1    A    
C43   H15   S    
C27   C49   S    
C51   H31   S    
C49   H36   S    
C55   H54   S    
