data_mof_unit_67289.cif
_audit_creation_date              2012-12-11T18:21:52-0500
_audit_creation_method            fapswitch 2.2
_symmetry_space_group_name_H-M    P1
_symmetry_Int_Tables_number       1
_space_group_crystal_system       triclinic
_cell_length_a                    8.303592
_cell_length_b                    14.377241
_cell_length_c                    14.933482
_cell_angle_alpha                 95.20497
_cell_angle_beta                  97.621637
_cell_angle_gamma                 92.474931
_cell_volume                      1757.00829537

loop_
_atom_site_label
_atom_site_type_symbol
_atom_type_description
_atom_site_fract_x
_atom_site_fract_y
_atom_site_fract_z
_atom_type_partial_charge
Ba1   Ba    Ba6+2 0.833400 0.543310 0.453520 1.724051
Ba2   Ba    Ba6+2 0.356420 0.456770 0.546480 1.708526
C1    C     C_3   0.521124 0.852415 0.121469 0.252348
C2    C     C_R   0.907295 0.446473 0.924629 -0.044010
C3    C     C_R   0.044727 0.461958 0.111357 0.025211
C4    C     C_3   0.042497 0.796380 0.196076 0.997243
C5    C     C_R   0.896956 0.410754 0.080317 0.031236
C6    C     C_R   0.828905 0.404384 0.989392 -0.033222
C7    C     C_R   0.113982 0.470808 0.204697 0.087005
C8    C     C_R   0.267370 0.516371 0.229665 -0.223678
C9    C     C_R   0.075458 0.527683 0.794527 0.032107
C10   C     C_R   0.144229 0.536495 0.887792 -0.006766
C11   C     C_R   0.061026 0.494346 0.952595 0.008948
C12   C     C_3   0.495078 0.771375 0.177664 0.414397
C13   C     C_R   0.292781 0.586787 0.918697 -0.021816
C14   C     C_R   0.365420 0.588767 0.008436 -0.117903
C15   C     C_R   0.285967 0.547516 0.073530 -0.045944
C16   C     C_3   0.956169 0.823301 0.105116 -0.233298
C17   C     C_R   0.130068 0.501873 0.046033 0.028079
C18   C     C_R   0.355391 0.552771 0.165844 0.000204
C19   C     C_R   0.924374 0.479206 0.768904 -0.238189
C20   C     C_R   0.707491 0.936791 0.547799 -0.054941
C21   C     C_R   0.512853 0.799557 0.495378 0.040567
C22   C     C_R   0.362604 0.766059 0.446055 -0.266067
C23   C     C_3   0.466344 0.281209 0.271241 0.358439
C24   C     C_R   0.250475 0.828063 0.411137 0.019469
C25   C     C_R   0.292677 0.923211 0.418304 -0.096684
C26   C     C_R   0.446788 0.958039 0.460307 0.018045
C27   C     C_R   0.557482 0.897259 0.501541 -0.029800
C28   C     C_3   0.222404 0.742593 0.641269 0.281367
C29   C     C_R   0.637395 0.092904 0.510026 -0.042485
C30   C     C_R   0.748962 0.033019 0.551584 0.004448
C31   C     C_R   0.680691 0.189796 0.514000 0.009625
C32   C     C_R   0.831049 0.225188 0.559289 -0.273454
C33   C     C_R   0.944982 0.165369 0.594472 0.056057
C34   C     C_3   0.473617 0.239315 0.172995 0.102007
C35   C     C_R   0.903854 0.069669 0.592671 -0.153628
C36   C     C_R   0.487900 0.053860 0.464035 -0.015207
C37   C     C_3   0.284467 0.844675 0.663591 -0.372360
C38   C     C_3   0.984876 0.258340 0.362514 0.295297
C39   C     C_3   0.943740 0.152959 0.345789 -0.289936
C40   C     C_3   0.799849 0.725881 0.728734 0.370695
C41   C     C_3   0.899729 0.819151 0.755153 0.186985
C42   C     C_2   0.040973 0.107728 0.277439 0.963416
C43   C     C_2   0.767313 0.684347 0.814387 0.820339
C44   C     C_2   0.394537 0.139770 0.157436 0.910020
C45   C     C_3   0.184940 0.228965 0.808459 0.585876
C46   C     C_2   0.387022 0.301543 0.108260 0.737499
C47   C     C_2   0.187947 0.082997 0.892110 0.917755
C48   C     C_2   0.704040 0.111294 0.883384 0.955997
C49   C     C_3   0.242063 0.185024 0.896437 -0.178218
C50   C     C_3   0.620282 0.212711 0.754098 0.269450
C51   C     C_3   0.620691 0.115078 0.787774 -0.212386
C52   C     C_R   0.837254 0.441288 0.832505 0.058861
H1    H     H_    0.491327 0.798073 0.249631 0.083077
H2    H     H_    0.940484 0.845648 0.694273 -0.014479
H3    H     H_    0.011469 0.809103 0.802110 0.124807
H4    H     H_    0.376733 0.736070 0.147895 -0.106014
H5    H     H_    0.409876 0.892894 0.114098 0.116149
H6    H     H_    0.337584 0.284020 0.284108 -0.031680
H7    H     H_    0.524887 0.353248 0.281321 0.016715
H8    H     H_    0.543736 0.824644 0.052420 0.038782
H9    H     H_    0.933388 0.898818 0.109917 0.146377
H10   H     H_    0.237262 0.302188 0.815211 0.069016
H11   H     H_    0.376561 0.192935 0.912707 0.050547
H12   H     H_    0.412909 0.849195 0.696110 0.158322
H13   H     H_    0.188966 0.223624 0.951929 0.143573
H14   H     H_    0.739572 0.229894 0.733206 0.029574
H15   H     H_    0.528969 0.210525 0.692432 0.083693
H16   H     H_    0.680043 0.067687 0.741023 -0.012259
H17   H     H_    0.493504 0.087501 0.784156 0.138923
H18   H     H_    0.831956 0.374159 0.125457 0.167589
H19   H     H_    0.714912 0.364601 0.970217 0.168618
H20   H     H_    0.483611 0.624822 0.026024 0.102628
H21   H     H_    0.356022 0.625034 0.874081 0.162735
H22   H     H_    0.321746 0.520865 0.299999 0.043861
H23   H     H_    0.275234 0.881191 0.601191 0.041034
H24   H     H_    0.870291 0.474572 0.698526 0.059614
H25   H     H_    0.326979 0.692325 0.441767 0.055237
H26   H     H_    0.202554 0.970101 0.393565 0.094053
H27   H     H_    0.993773 0.023894 0.620687 0.085692
H28   H     H_    0.865055 0.298833 0.560006 0.055411
H29   H     H_    0.795316 0.893562 0.579384 0.090331
H30   H     H_    0.401034 0.097466 0.431028 0.158132
H31   H     H_    0.034017 0.809871 0.050772 0.073604
H32   H     H_    0.839697 0.781446 0.085003 0.136661
H33   H     H_    0.313083 0.703668 0.607347 0.031622
H34   H     H_    0.211971 0.881986 0.711004 0.167420
H35   H     H_    0.105999 0.739403 0.594869 0.044317
H36   H     H_    0.850063 0.088244 0.177567 0.285882
H37   H     H_    0.853496 0.656523 0.941332 0.301776
H38   H     H_    0.669818 0.958134 0.121603 0.308107
H39   H     H_    0.733702 0.909698 0.750086 0.314301
H40   H     H_    0.578440 0.082832 0.233133 0.313361
H41   H     H_    0.398172 0.380699 0.004204 0.308098
H42   H     H_    0.642621 0.205408 0.098035 0.312725
H43   H     H_    0.972245 0.164609 0.784044 0.282901
H44   H     H_    0.046808 0.984847 0.937542 0.337413
H45   H     H_    0.890368 0.291782 0.398086 -0.005466
H46   H     H_    0.112258 0.684229 0.132337 0.258683
H47   H     H_    0.745836 0.034214 0.989404 0.320935
H48   H     H_    0.171768 0.914128 0.224217 0.321507
H49   H     H_    0.103668 0.270450 0.406079 0.067494
H50   H     H_    0.812431 0.140522 0.321509 0.078845
H51   H     H_    0.969136 0.120019 0.410144 0.005247
H52   H     H_    0.869233 0.675646 0.690529 -0.132837
O1    O     O_2   0.841230 0.444160 0.280430 -0.443023
O2    O     O_2   0.260078 0.168821 0.563536 -0.504573
O3    O     O_3   0.241122 0.177825 0.734813 -0.614494
O4    O     O_3   0.112860 0.447350 0.393710 -0.520197
O5    O     O_3   0.560610 0.613730 0.540770 -0.463721
O6    O     O_2   0.387460 0.270290 0.467210 -0.470135
O7    O     O_3   0.550183 0.223463 0.329482 -0.642988
O8    O     O_2   0.498599 0.452392 0.826676 -0.468635
O9    O     O_3   0.581233 0.279735 0.821282 -0.601322
O10   O     O_3   0.597940 0.615700 0.327690 -0.474022
O11   O     O_2   0.688186 0.538242 0.175302 -0.452598
O12   O     O_3   0.649640 0.743215 0.679227 -0.648341
O13   O     O_3   0.991821 0.294941 0.279200 -0.598074
O14   O     O_3   0.621856 0.710859 0.172589 -0.591956
O15   O     O_2   0.802240 0.729740 0.532850 -0.486893
O16   O     O_3   0.017180 0.664790 0.371080 -0.440521
O17   O     O_2   0.932216 0.829649 0.437445 -0.494970
O18   O     O_2   0.186941 0.102669 0.297817 -0.607791
O19   O     O_R   0.968729 0.074087 0.190049 -0.677170
O20   O     O_2   0.631350 0.652153 0.820893 -0.586555
O21   O     O_R   0.891821 0.684170 0.887209 -0.816281
O22   O     O_3   0.652979 0.910813 0.164280 -0.697627
O23   O     O_3   0.945857 0.818547 0.265129 -0.537738
O24   O     O_3   0.809580 0.885498 0.798438 -0.689332
O25   O     O_2   0.265705 0.122758 0.107766 -0.509179
O26   O     O_R   0.465743 0.066081 0.199770 -0.694982
O27   O     O_2   0.240852 0.309109 0.106105 -0.639576
O28   O     O_R   0.472071 0.347874 0.049297 -0.752588
O29   O     O_3   0.638210 0.236758 0.159734 -0.738269
O30   O     O_3   0.015106 0.230622 0.797395 -0.781026
O31   O     O_2   0.245348 0.024901 0.842386 -0.623294
O32   O     O_R   0.072191 0.054962 0.945523 -0.667283
O33   O     O_3   0.064943 0.699776 0.188841 -0.732547
O34   O     O_2   0.348480 0.555870 0.719620 -0.410841
O35   O     O_2   0.786628 0.178323 0.924193 -0.563461
O36   O     O_R   0.685398 0.029322 0.925418 -0.712509
O37   O     O_3   0.193416 0.846743 0.215841 -0.817132
O38   O     O_3   0.076830 0.552730 0.606300 -0.510342
O39   O     O_3   0.591760 0.384380 0.672320 -0.491816
O40   O     O_3   0.197579 0.705331 0.722008 -0.636502
O41   O     O_3   0.629090 0.386350 0.459240 -0.477304
O42   O     O_3   0.172520 0.335290 0.628920 -0.479737
P1    P     P_3+3 0.018600 0.416790 0.295970 1.019956
P2    P     P_3+3 0.635660 0.716530 0.560900 0.983088
P3    P     P_3+3 0.039203 0.786005 0.369893 1.061845
P4    P     P_3+3 0.171090 0.583290 0.704030 0.999846
P5    P     P_3+3 0.153600 0.213224 0.630980 0.974468
P6    P     P_3+3 0.562902 0.604057 0.209147 1.000776
P7    P     P_3+3 0.564581 0.268006 0.442802 0.955523
P8    P     P_3+3 0.628222 0.391054 0.790160 0.997612

loop_
_geom_bond_atom_site_label_1
_geom_bond_atom_site_label_2
_ccdc_geom_bond_type
O13   P1    S    
C13   H21   S    
O5    P2    S    
C20   C27   A    
C47   O31   D    
C45   O30   S    
Ba2   O38   S    
C44   O25   D    
C2    C6    A    
O4    P1    S    
C37   H12   S    
C38   H45   S    
C5    C6    A    
Ba2   O39   S    
O11   P6    D    
Ba2   O6    S    
C24   C25   A    
C16   H32   S    
C20   C30   A    
H44   O32   S    
C14   H20   S    
C21   C27   A    
C46   O28   S    
C26   C27   A    
C33   C35   A    
C22   C24   A    
O23   P3    S    
C4    O23   S    
C44   O26   S    
C19   C52   A    
C32   C33   A    
C16   H9    S    
C1    H8    S    
Ba2   O42   S    
C13   C14   A    
C2    C11   A    
C15   C18   A    
O15   P2    D    
Ba1   Ba2   S    
C49   H11   S    
C4    O33   S    
O12   P2    S    
Ba1   O16   S    
C50   H15   S    
O39   P8    S    
C8    H22   S    
O2    P5    D    
C8    C18   A    
C14   C15   A    
C47   C49   S    
O6    P7    D    
C19   H24   S    
C21   C22   A    
C29   C31   A    
Ba1   P1    S    
Ba1   O10   S    
O41   P7    S    
C7    C8    A    
O34   P4    D    
O10   P6    S    
C50   H14   S    
C48   O35   D    
C36   H30   S    
C12   H1    S    
C47   O32   S    
C35   H27   S    
C37   H34   S    
O7    P7    S    
C28   H35   S    
C12   H4    S    
C51   H16   S    
H38   O22   S    
O8    P8    D    
C28   O40   S    
H42   O29   S    
Ba2   P4    S    
C4    C16   S    
O17   P3    D    
C42   O19   S    
C48   C51   S    
C11   C17   A    
C16   H31   S    
C46   O27   D    
C25   H26   S    
C45   H10   S    
C3    C5    A    
C1    O22   S    
C40   O12   S    
C45   C49   S    
Ba2   O41   S    
C45   O3    S    
C42   O18   D    
H41   O28   S    
H40   O26   S    
C40   C43   S    
O42   P5    S    
C3    C7    A    
H46   O33   S    
C23   O7    S    
Ba1   O4    S    
H47   O36   S    
C41   H2    S    
C22   H25   S    
C29   C30   A    
C10   C13   A    
C26   C36   A    
C43   O20   D    
C7    P1    S    
O14   P6    S    
C31   C32   A    
Ba1   P2    S    
C23   H7    S    
C30   C35   A    
C10   C11   A    
C34   C44   S    
C40   H52   S    
C1    C12   S    
H37   O21   S    
Ba1   O1    S    
O40   P4    S    
C38   C39   S    
C23   H6    S    
C21   P2    S    
C12   O14   S    
C39   C42   S    
Ba1   O41   S    
C40   C41   S    
H39   O24   S    
C51   H17   S    
C34   O29   S    
C37   H23   S    
C5    H18   S    
O3    P5    S    
C50   C51   S    
C50   O9    S    
Ba2   O4    S    
C2    C52   A    
Ba2   O5    S    
C41   O24   S    
C24   P3    S    
C33   P5    S    
C18   P6    S    
C9    C10   A    
C31   P7    S    
C29   C36   A    
C3    C17   A    
C39   H50   S    
Ba2   O34   S    
C20   H29   S    
C4    O37   S    
O38   P4    S    
Ba1   O38   S    
O16   P3    S    
C38   H49   S    
C52   P8    S    
C49   H13   S    
C43   O21   S    
C6    H19   S    
C15   C17   A    
H36   O19   S    
C9    C19   A    
C28   C37   S    
C34   C46   S    
Ba1   O15   S    
O9    P8    S    
C41   H3    S    
C23   C34   S    
O1    P1    D    
C9    P4    S    
C38   O13   S    
C39   H51   S    
H48   O37   S    
C25   C26   A    
C32   H28   S    
H43   O30   S    
C28   H33   S    
Ba1   O5    S    
C48   O36   S    
C1    H5    S    
