data_mof_unit_61682.cif
_audit_creation_date              2012-12-10T19:34:07-0500
_audit_creation_method            fapswitch 2.2
_symmetry_space_group_name_H-M    P1
_symmetry_Int_Tables_number       1
_space_group_crystal_system       triclinic
_cell_length_a                    18.538162
_cell_length_b                    18.646069
_cell_length_c                    18.892304
_cell_angle_alpha                 109.616782
_cell_angle_beta                  109.951281
_cell_angle_gamma                 108.922121
_cell_volume                      5022.02505458

loop_
_atom_site_label
_atom_site_type_symbol
_atom_type_description
_atom_site_fract_x
_atom_site_fract_y
_atom_site_fract_z
_atom_type_partial_charge
C1    C     C_R   0.620723 0.620348 0.500866 0.857882
C2    C     C_3   0.221715 0.432673 0.175285 -0.166885
C3    C     C_3   0.217097 0.426835 0.253421 -0.122060
C4    C     C_3   0.312891 0.501534 0.312948 0.020516
C5    C     C_R   0.669760 0.689027 0.424515 0.103212
C6    C     C_R   0.685366 0.687858 0.501420 -0.076323
C7    C     C_R   0.759218 0.758645 0.580922 -0.216254
C8    C     C_R   0.823417 0.823198 0.580946 -0.217105
C9    C     C_R   0.811731 0.817662 0.501589 -0.092491
C10   C     C_R   0.732055 0.753974 0.424733 0.147650
C11   C     C_3   0.716106 0.691922 0.339260 -0.491876
C12   C     C_R   0.379472 0.500502 0.379470 0.879463
C13   C     C_3   0.647422 0.620128 0.339215 -0.472633
C14   C     C_R   0.760923 0.507084 0.688586 0.078065
C15   C     C_R   0.682598 0.495718 0.686308 -0.154859
C16   C     C_R   0.668814 0.483855 0.751653 0.288358
C17   C     C_R   0.734883 0.484239 0.816562 -0.230577
C18   C     C_R   0.814726 0.498728 0.817459 -0.158760
C19   C     C_R   0.824923 0.510265 0.752313 0.136522
C20   C     C_3   0.886469 0.526999 0.718264 -0.455110
C21   C     C_3   0.813172 0.524365 0.645498 -0.475840
C22   C     C_R   0.332847 0.260511 0.526859 0.106661
C23   C     C_R   0.378703 0.379962 0.498691 0.976584
C24   C     C_R   0.312404 0.315276 0.499195 -0.210214
C25   C     C_R   0.232681 0.315180 0.484713 0.253619
C26   C     C_R   0.170033 0.252012 0.487504 -0.229193
C27   C     C_R   0.187747 0.190783 0.505989 -0.158369
C28   C     C_R   0.271237 0.199122 0.530846 0.111753
C29   C     C_3   0.295419 0.131373 0.496606 -0.513352
C30   C     C_3   0.362799 0.198882 0.491212 0.111919
C31   C     C_R   0.002635 0.620384 0.122488 0.874477
C32   C     C_R   0.125029 0.500684 0.124909 0.864672
C33   C     C_R   0.004254 0.379938 0.884326 0.882074
C34   C     C_R   0.619580 0.498652 0.620590 0.938870
C35   C     C_R   0.882452 0.499685 0.882968 0.903210
C36   C     C_R   0.998576 0.119804 0.618829 0.883223
C37   C     C_R   0.879367 0.879935 0.499666 0.871065
C38   C     C_R   0.001309 0.879889 0.381120 0.869623
C39   C     C_R   0.120629 0.120621 0.500783 0.904172
C40   C     C_R   0.021548 0.689436 0.267088 0.100985
C41   C     C_R   0.004903 0.687882 0.188874 -0.081627
C42   C     C_R   0.001039 0.758190 0.179350 -0.207757
C43   C     C_R   0.000537 0.822539 0.243172 -0.214100
C44   C     C_R   0.006724 0.817395 0.317184 -0.095949
C45   C     C_3   0.283886 0.570695 0.330065 -0.159351
C46   C     C_R   0.023431 0.754230 0.331137 0.149870
C47   C     C_3   0.977718 0.692210 0.354944 -0.492922
C48   C     C_3   0.975463 0.620598 0.283955 -0.468317
C49   C     C_R   0.999576 0.240803 0.817786 0.130898
C50   C     C_R   0.000626 0.314367 0.815519 -0.095115
C51   C     C_R   0.997801 0.322749 0.743375 -0.203844
C52   C     C_R   0.994770 0.257190 0.676400 -0.203881
C53   C     C_R   0.997226 0.185063 0.683345 -0.097453
C54   C     C_R   0.999654 0.179663 0.755252 0.135613
C55   C     C_3   0.004907 0.127265 0.799511 -0.485579
C56   C     C_3   0.186913 0.495995 0.269363 -0.134402
C57   C     C_3   0.005530 0.198032 0.871805 -0.488224
C58   C     C_3   0.192783 0.501791 0.192404 0.006458
C59   C     C_3   0.288662 0.576554 0.251975 -0.174071
C60   C     C_3   0.318846 0.507451 0.236088 -0.164992
H1    H     H_    0.131322 0.491417 0.281221 0.152298
H2    H     H_    0.774248 0.683757 0.344750 0.191585
H3    H     H_    0.578803 0.593160 0.287280 0.198908
H4    H     H_    0.665763 0.570286 0.344814 0.218733
H5    H     H_    0.724444 0.474685 0.866491 0.191385
H6    H     H_    0.946450 0.592857 0.763261 0.208331
H7    H     H_    0.898764 0.471411 0.694864 0.198910
H8    H     H_    0.830593 0.588856 0.648928 0.195681
H9    H     H_    0.783473 0.467615 0.579873 0.219789
H10   H     H_    0.310828 0.627120 0.394880 0.159081
H11   H     H_    0.106788 0.248832 0.472273 0.190744
H12   H     H_    0.324842 0.114251 0.545981 0.245204
H13   H     H_    0.240860 0.074204 0.431811 0.171051
H14   H     H_    0.347711 0.181158 0.423474 0.137521
H15   H     H_    0.993798 0.760700 0.120972 0.156922
H16   H     H_    0.993049 0.874490 0.233839 0.163716
H17   H     H_    0.021210 0.707259 0.421535 0.213276
H18   H     H_    0.911152 0.683444 0.340888 0.191809
H19   H     H_    0.017605 0.594264 0.309561 0.202501
H20   H     H_    0.316267 0.637745 0.249800 0.154524
H21   H     H_    0.907518 0.570263 0.228556 0.220030
H22   H     H_    0.997425 0.378997 0.738715 0.156631
H23   H     H_    0.992878 0.263842 0.621079 0.164009
H24   H     H_    0.944123 0.062218 0.762434 0.198405
H25   H     H_    0.068187 0.126263 0.820673 0.214194
H26   H     H_    0.945310 0.173896 0.876930 0.216880
H27   H     H_    0.069345 0.238094 0.934451 0.194245
H28   H     H_    0.374597 0.512179 0.224468 0.138013
H29   H     H_    0.194440 0.376434 0.110216 0.127586
H30   H     H_    0.189825 0.365823 0.255976 0.158568
H31   H     H_    0.769258 0.761391 0.641952 0.154436
H32   H     H_    0.882710 0.875547 0.641988 0.157683
H33   H     H_    0.687134 0.706448 0.287389 0.213917
O1    O     O_R   0.592030 0.539910 0.448670 -0.631097
O2    O     O_R   0.054880 0.643340 0.094730 -0.622867
O3    O     O_R   0.044460 0.448310 0.096120 -0.626768
O4    O     O_R   0.147900 0.551710 0.096100 -0.623352
O5    O     O_R   0.952840 0.356700 0.912890 -0.616648
O6    O     O_R   0.056280 0.460110 0.912860 -0.622955
O7    O     O_R   0.859820 0.448330 0.911520 -0.614139
O8    O     O_R   0.963270 0.551730 0.911500 -0.627882
O9    O     O_R   0.947110 0.091620 0.538800 -0.622000
O10   O     O_R   0.051340 0.091660 0.643070 -0.621214
O11   O     O_R   0.856270 0.908420 0.447910 -0.616433
O12   O     O_R   0.591210 0.643320 0.551340 -0.627294
O13   O     O_R   0.960500 0.908460 0.552180 -0.626148
O14   O     O_R   0.948660 0.908440 0.357030 -0.621476
O15   O     O_R   0.052890 0.908480 0.461300 -0.619184
O16   O     O_R   0.039500 0.091640 0.447920 -0.628207
O17   O     O_R   0.143730 0.091680 0.552190 -0.608436
O18   O     O_R   0.408090 0.448300 0.356360 -0.634063
O19   O     O_R   0.407280 0.551720 0.459030 -0.610838
O20   O     O_R   0.408790 0.356680 0.448660 -0.633047
O21   O     O_R   0.407970 0.460090 0.551330 -0.563031
O22   O     O_R   0.592720 0.448280 0.540970 -0.608969
O23   O     O_R   0.591910 0.551700 0.643640 -0.603817
O24   O     O_R   0.951440 0.539930 0.094760 -0.624601
Zn1   Zn    Zn3+2 0.500550 0.430950 0.431450 0.972202
Zn2   Zn    Zn3+2 0.499450 0.569050 0.568550 1.028552
Zn3   Zn    Zn3+2 0.934790 0.430980 0.003830 0.970336
Zn4   Zn    Zn3+2 0.072930 0.569070 0.003790 0.958691
Zn5   Zn    Zn3+2 0.930400 0.000020 0.430430 0.967062
Zn6   Zn    Zn3+2 0.069600 0.000080 0.569670 0.966738
Br1   Br    Br    0.561553 0.464715 0.753848 -0.455407
Br2   Br    Br    0.202856 0.393140 0.451983 -0.546095
Br3   Br    Br    0.484222 0.238027 0.571732 -0.462107

loop_
_geom_bond_atom_site_label_1
_geom_bond_atom_site_label_2
_ccdc_geom_bond_type
C8    C9    A    
C30   Br3   S    
C2    H29   S    
C37   O11   A    
O1    Zn1   S    
C41   C42   A    
C20   H7    S    
C19   C20   S    
C32   C58   S    
C11   H2    S    
O10   Zn6   S    
C60   H28   S    
C7    C8    A    
C53   C54   A    
C48   H21   S    
C40   C46   A    
C42   H15   S    
C3    H30   S    
C48   H19   S    
C20   H6    S    
C28   C29   S    
C32   O4    A    
C18   C19   A    
C36   O10   A    
C5    C6    A    
C30   H14   S    
C2    C60   S    
O16   Zn5   S    
C29   H13   S    
C34   O23   A    
C49   C54   A    
C49   C57   S    
C57   H26   S    
C36   O9    A    
C33   O5    A    
C38   O14   A    
C25   Br2   S    
C31   O24   A    
O4    Zn4   S    
C36   C53   S    
C33   C50   S    
C54   C55   S    
C39   O17   A    
C45   C56   S    
C27   C39   S    
C1    O1    A    
O13   Zn6   S    
C23   C24   S    
C8    H32   S    
C4    C12   S    
C31   C41   S    
C18   C35   S    
C15   C34   S    
C5    C13   S    
O21   Zn2   S    
O6    Zn4   S    
C29   H12   S    
O2    Zn4   S    
C59   C60   S    
C22   C28   A    
C38   O15   A    
C26   H11   S    
C44   C46   A    
C17   C18   A    
C4    C45   S    
C15   C16   A    
C1    C6    S    
C24   C25   A    
O24   Zn3   S    
C16   C17   A    
C25   C26   A    
O8    Zn4   S    
C51   C52   A    
C21   H9    S    
C33   O6    A    
C55   H25   S    
C52   H23   S    
C43   C44   A    
C38   C44   S    
C29   C30   S    
O17   Zn6   S    
C23   O20   A    
C3    C56   S    
C47   C48   S    
C13   H3    S    
C39   O16   A    
O22   Zn1   S    
C7    H31   S    
C4    C60   S    
C9    C37   S    
C50   C51   A    
C26   C27   A    
C51   H22   S    
O7    Zn3   S    
C40   C41   A    
C32   O3    A    
O18   Zn1   S    
C21   H8    S    
C22   C24   A    
C58   C59   S    
C42   C43   A    
C47   H17   S    
O15   Zn6   S    
C3    C4    S    
C12   O19   A    
C52   C53   A    
C14   C21   S    
C9    C10   A    
C43   H16   S    
C40   C48   S    
C46   C47   S    
C45   C59   S    
C22   C30   S    
C45   H10   S    
C14   C15   A    
C14   C19   A    
O3    Zn3   S    
C35   O8    A    
C59   H20   S    
O19   Zn2   S    
C2    C58   S    
O5    Zn3   S    
C6    C7    A    
C17   H5    S    
C47   H18   S    
O23   Zn2   S    
C55   C57   S    
C2    C3    S    
C34   O22   A    
C37   O13   A    
C23   O21   A    
C11   C13   S    
C11   H33   S    
C13   H4    S    
C31   O2    A    
C56   C58   S    
C16   Br1   S    
C10   C11   S    
O20   Zn1   S    
C57   H27   S    
C5    C10   A    
O11   Zn5   S    
C20   C21   S    
C49   C50   A    
C27   C28   A    
C56   H1    S    
O12   Zn2   S    
O14   Zn5   S    
C55   H24   S    
O9    Zn5   S    
C12   O18   A    
C35   O7    A    
C1    O12   A    
