data_mof_unit_63791.cif
_audit_creation_date              2013-03-05T15:58:01-0500
_audit_creation_method            fapswitch 2.2
_symmetry_space_group_name_H-M    P1
_symmetry_Int_Tables_number       1
_space_group_crystal_system       triclinic
_cell_length_a                    18.658618
_cell_length_b                    18.618397
_cell_length_c                    18.705276
_cell_angle_alpha                 109.316628
_cell_angle_beta                  109.441423
_cell_angle_gamma                 109.235665
_cell_volume                      5027.979423

loop_
_atom_site_label
_atom_site_type_symbol
_atom_site_description
_atom_site_fract_x
_atom_site_fract_y
_atom_site_fract_z
_atom_type_partial_charge
O1    O     O_R   0.408680 0.356690 0.448540 -0.623595
O2    O     O_R   0.408060 0.460070 0.551440 -0.624584
C1    C     C_R   0.379779 0.379789 0.500018 0.838154
O3    O     O_R   0.592410 0.448290 0.540650 -0.631874
O4    O     O_R   0.591790 0.551670 0.643550 -0.635827
C2    C     C_R   0.620961 0.499935 0.620589 0.839874
Zn1   Zn    Zn3+2 0.500420 0.430970 0.431290 0.965478
Zn2   Zn    Zn3+2 0.499580 0.569030 0.568710 0.983354
O5    O     O_R   0.591940 0.539930 0.448560 -0.629018
O6    O     O_R   0.591320 0.643310 0.551460 -0.603773
O7    O     O_R   0.408210 0.448330 0.356450 -0.612235
O8    O     O_R   0.407590 0.551710 0.459350 -0.607985
C3    C     C_R   0.621118 0.620245 0.500747 0.928242
C4    C     C_R   0.379464 0.500231 0.379460 0.956704
C5    C     C_3   0.715853 0.433088 0.647462 -0.418528
H1    H     H_    0.739533 0.449002 0.604431 0.215866
H2    H     H_    0.657943 0.366027 0.605606 0.154403
C6    C     C_3   0.786556 0.433536 0.719866 0.166252
H3    H     H_    0.758221 0.367738 0.714397 0.092243
H4    H     H_    0.797456 0.609939 0.705023 0.180157
H5    H     H_    0.903198 0.621610 0.821221 0.229797
C7    C     C_3   0.770305 0.592568 0.745393 -0.400406
C8    C     C_3   0.653871 0.475261 0.745852 -0.408937
C9    C     C_3   0.688856 0.499955 0.688233 0.121413
H6    H     H_    0.634798 0.522616 0.776406 0.196386
H7    H     H_    0.594548 0.409199 0.705223 0.160953
C10   C     C_3   0.809285 0.502345 0.810682 0.050920
C11   C     C_3   0.839983 0.595216 0.820301 -0.354612
C12   C     C_3   0.724650 0.475749 0.817844 -0.455800
H8    H     H_    0.699090 0.409343 0.811056 0.193537
H9    H     H_    0.738823 0.522284 0.882941 0.183482
H10   H     H_    0.752688 0.642558 0.773150 0.178825
H11   H     H_    0.850963 0.641724 0.883699 0.148586
C13   C     C_R   0.240287 0.320533 0.496327 -0.191773
H12   H     H_    0.232872 0.375036 0.493511 0.141941
C14   C     C_R   0.175556 0.255736 0.494802 -0.176057
H13   H     H_    0.118370 0.260520 0.491681 0.152056
C15   C     C_R   0.186014 0.186124 0.499312 -0.014186
C16   C     C_R   0.259814 0.179876 0.503749 -0.182805
H14   H     H_    0.267483 0.125551 0.506772 0.149055
C17   C     C_R   0.323274 0.243300 0.502660 -0.184110
H15   H     H_    0.380391 0.238481 0.505535 0.140827
C18   C     C_R   0.313517 0.313654 0.499764 -0.001978
C19   C     C_R   0.333063 0.573965 0.301992 0.284477
C20   C     C_R   0.267917 0.573268 0.238107 -0.241844
H16   H     H_    0.282842 0.629529 0.228418 0.199418
C21   C     C_R   0.184407 0.500184 0.185911 -0.127073
C22   C     C_R   0.164182 0.427527 0.198107 -0.198660
H17   H     H_    0.098872 0.371246 0.157525 0.165827
C23   C     C_R   0.227805 0.426587 0.262176 0.123260
C24   C     C_R   0.312750 0.499992 0.313376 -0.180964
C25   C     C_R   0.754652 0.761330 0.579813 -0.192773
H18   H     H_    0.757580 0.769974 0.641124 0.141665
C26   C     C_R   0.819147 0.824785 0.579743 -0.171889
H19   H     H_    0.871646 0.882862 0.640870 0.142118
C27   C     C_R   0.814394 0.813746 0.500433 -0.008644
C28   C     C_R   0.746985 0.739302 0.421363 -0.185128
H20   H     H_    0.744014 0.730965 0.360100 0.144348
C29   C     C_R   0.684109 0.674555 0.421661 -0.098917
H21   H     H_    0.632020 0.616377 0.360424 0.165434
C30   C     C_R   0.687618 0.686292 0.500784 -0.001821
O9    O     O_R   0.946090 0.356640 0.906180 -0.637301
O10   O     O_R   0.049540 0.460010 0.906120 -0.593420
C31   C     C_R   0.998011 0.379674 0.877656 0.903878
O11   O     O_R   0.853500 0.448290 0.905220 -0.638069
O12   O     O_R   0.956960 0.551660 0.905160 -0.595280
C32   C     C_R   0.876728 0.502877 0.879318 0.859006
Zn3   Zn    Zn3+2 0.928250 0.430930 0.997320 0.950185
Zn4   Zn    Zn3+2 0.066410 0.568980 0.997240 1.004044
O13   O     O_R   0.945110 0.539900 0.088450 -0.625485
O14   O     O_R   0.048570 0.643270 0.088390 -0.624267
O15   O     O_R   0.037700 0.448250 0.089410 -0.630995
O16   O     O_R   0.141150 0.551620 0.089350 -0.625584
C33   C     C_R   0.996856 0.620212 0.117110 0.850819
C34   C     C_R   0.118171 0.499941 0.118511 0.898141
O17   O     O_R   0.948590 0.908340 0.356800 -0.623005
O18   O     O_R   0.052580 0.908350 0.460820 -0.619247
C35   C     C_R   0.001032 0.880031 0.380468 0.854090
O19   O     O_R   0.039640 0.091520 0.447910 -0.622537
O20   O     O_R   0.143620 0.091540 0.551930 -0.621753
C36   C     C_R   0.120078 0.120082 0.499749 0.856187
Zn5   Zn    Zn3+2 0.930570 0.999900 0.430450 0.975594
Zn6   Zn    Zn3+2 0.069430 0.999920 0.569370 0.964352
O21   O     O_R   0.947420 0.091470 0.539000 -0.612660
O22   O     O_R   0.051410 0.091490 0.643030 -0.624534
O23   O     O_R   0.856380 0.908290 0.447890 -0.612872
O24   O     O_R   0.960370 0.908300 0.551910 -0.622435
C37   C     C_R   0.999189 0.120037 0.619298 0.858797
C38   C     C_R   0.880033 0.879895 0.500145 0.857238
C39   C     C_R   0.077968 0.323243 0.817840 -0.181168
H22   H     H_    0.139449 0.379800 0.871878 0.146774
C40   C     C_R   0.078275 0.258625 0.754801 -0.175328
H23   H     H_    0.139943 0.265465 0.759659 0.146262
C41   C     C_R   0.998815 0.186296 0.684883 -0.015244
C42   C     C_R   0.919079 0.177226 0.677934 -0.175645
H24   H     H_    0.857634 0.120780 0.623697 0.149292
C43   C     C_R   0.918862 0.240473 0.742434 -0.114005
H25   H     H_    0.857168 0.233407 0.737679 0.149608
C44   C     C_R   0.998291 0.313515 0.811721 0.003502
C45   C     C_R   0.000310 0.759752 0.178182 -0.188282
H26   H     H_    0.000140 0.766708 0.122851 0.139026
C46   C     C_R   0.000887 0.823510 0.242903 -0.179082
H27   H     H_    0.001514 0.880016 0.237827 0.143960
C47   C     C_R   0.001814 0.814558 0.314436 -0.009088
C48   C     C_R   0.001311 0.742063 0.321515 -0.182131
H28   H     H_    0.001519 0.735190 0.376886 0.147631
C49   C     C_R   0.998059 0.676965 0.255440 -0.174338
H29   H     H_    0.996921 0.620194 0.260211 0.147359
C50   C     C_R   0.998018 0.686392 0.184344 -0.005809
N1    N     N_R   0.419362 0.649106 0.353199 0.209445
O25   O     O_R   0.429322 0.726956 0.373058 -0.382101
O26   O     O_R   0.487707 0.639122 0.369054 -0.429909
C51   C     C_3   0.202181 0.347736 0.275384 -0.405720
C52   C     C_3   0.200375 0.272452 0.207994 -0.809966
H30   H     H_    0.151541 0.251526 0.141047 0.248528
H31   H     H_    0.265801 0.292725 0.213318 0.272980
H32   H     H_    0.182144 0.215944 0.219555 0.245794
H33   H     H_    0.247243 0.363778 0.341718 0.192138
H34   H     H_    0.136417 0.325779 0.269602 0.202432
N2    N     N_R   0.863483 0.447875 0.708617 0.217022
O27   O     O_R   0.903590 0.514958 0.701646 -0.397838
O28   O     O_R   0.888429 0.389462 0.699144 -0.408238

loop_
_geom_bond_atom_site_label_1
_geom_bond_atom_site_label_2
_geom_bond_distance
_ccdc_geom_bond_type
C5    C6    1.539646 S    
Zn6   O24   2.014736 S    
C10   C12   1.557685 S    
C49   C50   1.397565 A    
C17   H15   1.083874 S    
C42   H24   1.083781 S    
C33   C50   1.428079 S    
C43   H25   1.083806 S    
C28   H20   1.083854 S    
C16   C17   1.381125 A    
O18   C35   1.281153 A    
N2    O27   1.301453 A    
Zn1   O7    2.021577 S    
C48   C49   1.382337 A    
C1    C18   1.426144 S    
C7    H10   1.113266 S    
C8    C12   1.535490 S    
C14   H13   1.083714 S    
O17   C35   1.279493 A    
C13   H12   1.083837 S    
C25   C30   1.397483 A    
O20   Zn6   2.011299 S    
C4    C24   1.430354 S    
C15   C16   1.397275 A    
O7    C4    1.275424 A    
C28   C29   1.380751 A    
O12   Zn4   2.024410 S    
O18   Zn6   2.014926 S    
C5    H1    1.113165 S    
C27   C28   1.395459 A    
C5    H2    1.113837 S    
C6    H3    1.115833 S    
C8    H7    1.113604 S    
Zn4   O14   2.012935 S    
O5    C3    1.276502 A    
N1    O25   1.301446 A    
C40   H23   1.083807 S    
O9    C31   1.276259 A    
O14   C33   1.276188 A    
C51   H34   1.111936 S    
C31   C44   1.428942 S    
O10   Zn4   2.013624 S    
C25   C26   1.381727 A    
O11   C32   1.277033 A    
O13   C33   1.276440 A    
C8    C9    1.548395 S    
Zn4   O16   2.020821 S    
Zn2   O8    2.023896 S    
C22   C23   1.387908 A    
O12   C32   1.277329 A    
C29   H21   1.083676 S    
C7    C11   1.534734 S    
C17   C18   1.396193 A    
C41   C42   1.396443 A    
O3    Zn1   2.023898 S    
C45   C46   1.380939 A    
C47   C48   1.396457 A    
C43   C44   1.397451 A    
N2    O28   1.300692 A    
C52   H30   1.110819 S    
C37   C41   1.427255 S    
C20   C21   1.394289 A    
C26   C27   1.396294 A    
C29   C30   1.398073 A    
C19   C20   1.384944 A    
C6    C10   1.558684 S    
C35   C47   1.428066 S    
O3    C2    1.274855 A    
O17   Zn5   2.012281 S    
C16   H14   1.083755 S    
O19   C36   1.280546 A    
Zn5   O23   2.011175 S    
O6    C3    1.277607 A    
C51   H33   1.109320 S    
O1    C1    1.275712 A    
C12   H8    1.113327 S    
O4    Zn2   2.021578 S    
C39   C40   1.381442 A    
C21   C22   1.396253 A    
Zn3   O15   2.024496 S    
O11   Zn3   2.020781 S    
C2    C9    1.462254 S    
C40   C41   1.396626 A    
C23   C24   1.411900 A    
C46   C47   1.397318 A    
C19   C24   1.410554 A    
Zn2   O6    2.012426 S    
C5    C9    1.557596 S    
Zn6   O22   2.012494 S    
H5    C11   1.109967 S    
O8    C4    1.275203 A    
C11   H11   1.113592 S    
Zn5   O21   2.014924 S    
O24   C38   1.279400 A    
C15   C36   1.429033 S    
C7    C9    1.548532 S    
O16   C34   1.279928 A    
C49   H29   1.083756 S    
C6    N2    1.470206 S    
C39   C44   1.397018 A    
C25   H18   1.083757 S    
C51   C52   1.525280 S    
O22   C37   1.279970 A    
Zn1   O5    2.013074 S    
C27   C38   1.425382 S    
C26   H19   1.083818 S    
C22   H17   1.084348 S    
O1    Zn1   2.012425 S    
O2    Zn2   2.013073 S    
C13   C18   1.396343 A    
O21   C37   1.280272 A    
H4    C7    1.113429 S    
O20   C36   1.280464 A    
O23   C38   1.279886 A    
O19   Zn5   2.014860 S    
C52   H31   1.110507 S    
C42   C43   1.381579 A    
C48   H28   1.083730 S    
O9    Zn3   2.012808 S    
C23   C51   1.516899 S    
C14   C15   1.397497 A    
O2    C1    1.276340 A    
C21   C34   1.439499 S    
C12   H9    1.113550 S    
O15   C34   1.278346 A    
C39   H22   1.083745 S    
O4    C2    1.279007 A    
C45   H26   1.083857 S    
C13   C14   1.381745 A    
C8    H6    1.113303 S    
C46   H27   1.083835 S    
N1    O26   1.299846 A    
C52   H32   1.110431 S    
C10   C32   1.462834 S    
O10   C31   1.276669 A    
C20   H16   1.083798 S    
C45   C50   1.396273 A    
C3    C30   1.430110 S    
Zn3   O13   2.013798 S    
C10   C11   1.556666 S    
C19   N1    1.438719 S    
