data_mof_unit_16794.cif
_audit_creation_date              2012-12-11T17:33:40-0500
_audit_creation_method            fapswitch 2.2
_symmetry_space_group_name_H-M    P1
_symmetry_Int_Tables_number       1
_space_group_crystal_system       triclinic
_cell_length_a                    8.315863
_cell_length_b                    16.652367
_cell_length_c                    18.79215
_cell_angle_alpha                 99.938961
_cell_angle_beta                  91.071322
_cell_angle_gamma                 94.477363
_cell_volume                      2554.06523342

loop_
_atom_site_label
_atom_site_type_symbol
_atom_type_description
_atom_site_fract_x
_atom_site_fract_y
_atom_site_fract_z
_atom_type_partial_charge
Ba1   Ba    Ba6+2 0.845660 0.536000 0.465120 1.784202
Ba2   Ba    Ba6+2 0.344160 0.464070 0.534880 1.756633
C1    C     C_3   0.639803 0.809612 0.229553 0.358185
C2    C     C_R   0.902429 0.431357 0.097598 0.047196
C3    C     C_R   0.742820 0.401565 0.076733 0.013796
C4    C     C_3   0.099108 0.697208 0.272417 0.376152
C5    C     C_R   0.678839 0.408325 0.008834 0.007825
C6    C     C_R   0.774467 0.443113 0.959456 0.058772
C7    C     C_R   0.934299 0.474096 0.980038 0.033374
C8    C     C_R   0.713835 0.445240 0.889431 -0.101036
C9    C     C_R   0.812817 0.474805 0.837738 -0.011277
C10   C     C_R   0.971041 0.509825 0.859450 0.066165
C11   C     C_R   0.030898 0.509071 0.930764 0.016275
C12   C     C_3   0.580192 0.735119 0.262040 0.757130
C13   C     C_R   0.762768 0.466646 0.763962 -0.016876
C14   C     C_R   0.868322 0.494042 0.714635 -0.213957
C15   C     C_R   0.016682 0.537289 0.736295 -0.037896
C16   C     C_3   0.097220 0.717564 0.196600 -0.318705
C17   C     C_R   0.071225 0.543868 0.809569 -0.046438
C18   C     C_R   0.156879 0.501212 0.071272 -0.002372
C19   C     C_R   0.218102 0.499061 0.142212 -0.049164
C20   C     C_R   0.118729 0.462844 0.191557 -0.027223
C21   C     C_R   0.966050 0.424943 0.166007 0.018398
C22   C     C_R   0.225083 0.579988 0.833967 -0.033393
C23   C     C_3   0.500071 0.330393 0.312622 0.276289
C24   C     C_R   0.287104 0.574823 0.902645 0.044026
C25   C     C_R   0.190010 0.540265 0.951877 0.027367
C26   C     C_R   0.253224 0.536443 0.021904 -0.018818
C27   C     C_R   0.447783 0.601497 0.921801 -0.052879
C28   C     C_3   0.084888 0.737344 0.697515 0.268529
C29   C     C_R   0.511408 0.596119 0.989447 -0.101070
C30   C     C_R   0.414383 0.565966 0.041332 -0.014963
C31   C     C_R   0.377725 0.533328 0.163478 -0.043236
C32   C     C_R   0.477337 0.563265 0.111205 0.321667
C33   C     C_R   0.429350 0.538326 0.236966 0.009529
C34   C     C_3   0.448838 0.299274 0.232821 0.673547
C35   C     C_R   0.326410 0.506577 0.285654 -0.326501
C36   C     C_R   0.174010 0.467161 0.264865 0.046753
C37   C     C_R   0.367775 0.732293 0.482959 0.083124
C38   C     C_R   0.521062 0.759760 0.513627 0.035872
C39   C     C_R   0.575128 0.843126 0.521786 0.295482
C40   C     C_3   0.102800 0.762481 0.779988 0.276104
C41   C     C_R   0.478935 0.898140 0.493100 0.279508
C42   C     C_R   0.326304 0.868559 0.461652 -0.136788
C43   C     C_R   0.270548 0.786304 0.456859 -0.027038
C44   C     C_R   0.613253 0.141923 0.476072 0.329847
C45   C     C_3   0.099700 0.183298 0.703429 0.541597
C46   C     C_R   0.656083 0.227534 0.488643 -0.054803
C47   C     C_R   0.710568 0.090593 0.507939 0.314866
C48   C     C_R   0.790393 0.260549 0.532735 -0.277173
C49   C     C_R   0.894310 0.209792 0.558211 -0.057719
C50   C     C_R   0.854480 0.124845 0.545386 -0.220678
C51   C     C_3   0.993937 0.284464 0.380818 0.315023
C52   C     C_3   0.961232 0.191996 0.361368 -0.291860
C53   C     C_3   0.670172 0.646616 0.681325 0.343878
C54   C     C_3   0.677931 0.672573 0.762907 -0.315490
C55   C     C_3   0.165993 0.103797 0.722691 0.583574
C56   C     C_3   0.644123 0.278755 0.749891 0.242974
C57   C     C_3   0.593836 0.192787 0.764587 0.727410
C58   C     C_R   0.997799 0.469305 0.049807 0.036921
H1    H     H_    0.076585 0.708762 0.806269 -0.108501
H2    H     H_    0.751740 0.839279 0.259230 0.115776
H3    H     H_    0.760371 0.728504 0.779068 0.129409
H4    H     H_    0.719893 0.623945 0.789977 -0.002335
H5    H     H_    0.556061 0.686017 0.781278 0.191452
H6    H     H_    0.469100 0.706633 0.230541 -0.190570
H7    H     H_    0.399467 0.362324 0.339864 -0.061026
H8    H     H_    0.607298 0.374746 0.314953 0.014095
H9    H     H_    0.457015 0.352577 0.204427 -0.069912
H10   H     H_    0.670145 0.790254 0.171949 -0.064647
H11   H     H_    0.129316 0.664211 0.157080 0.056777
H12   H     H_    0.011195 0.805914 0.798204 0.063905
H13   H     H_    0.976978 0.166696 0.679611 -0.030590
H14   H     H_    0.250842 0.120660 0.769644 0.063972
H15   H     H_    0.734235 0.309313 0.791569 0.115123
H16   H     H_    0.700157 0.273375 0.696020 -0.040196
H17   H     H_    0.473035 0.174587 0.739757 0.045017
H18   H     H_    0.008046 0.644994 0.273251 0.090146
H19   H     H_    0.666307 0.374234 0.113503 0.109676
H20   H     H_    0.555039 0.384985 0.994468 0.113918
H21   H     H_    0.831271 0.483953 0.658085 0.040300
H22   H     H_    0.590990 0.420710 0.874961 0.120069
H23   H     H_    0.886183 0.311246 0.405369 -0.032059
H24   H     H_    0.891970 0.392469 0.199761 0.140155
H25   H     H_    0.300923 0.610440 0.799282 0.121531
H26   H     H_    0.526281 0.625241 0.883947 0.098178
H27   H     H_    0.638060 0.615448 0.999672 0.089191
H28   H     H_    0.220401 0.678752 0.284813 -0.095847
H29   H     H_    0.368237 0.510255 0.340993 0.053840
H30   H     H_    0.251353 0.909745 0.440234 0.143405
H31   H     H_    0.936814 0.084903 0.563288 0.170916
H32   H     H_    0.824601 0.325628 0.540265 0.065558
H33   H     H_    0.975098 0.733317 0.181882 0.127828
H34   H     H_    0.097357 0.298674 0.420087 0.071072
H35   H     H_    0.185796 0.770219 0.193917 0.125541
H36   H     H_    0.106247 0.793580 0.673574 0.128853
H37   H     H_    0.961672 0.714132 0.680525 -0.067441
H38   H     H_    0.466947 0.720283 0.347924 0.228408
H39   H     H_    0.301610 0.767662 0.911994 0.332798
H40   H     H_    0.444965 0.848068 0.194153 0.302183
H41   H     H_    0.280366 0.219334 0.253062 0.333095
H42   H     H_    0.630247 0.182364 0.076380 0.392257
H43   H     H_    0.113221 0.373490 0.740316 0.358262
H44   H     H_    0.779021 0.979700 0.710865 0.396963
H45   H     H_    0.849915 0.176228 0.326582 0.186441
H46   H     H_    0.346004 0.103527 0.560109 0.381515
H47   H     H_    0.674563 0.127851 0.679332 0.310123
H48   H     H_    0.405480 0.188259 0.940902 0.391559
H49   H     H_    0.663716 0.640099 0.114668 0.287872
H50   H     H_    0.415919 0.147526 0.419142 0.327266
H51   H     H_    0.697802 0.922184 0.591881 0.352419
H52   H     H_    0.369097 0.620431 0.441705 0.284005
H53   H     H_    0.945767 0.164914 0.410767 0.043118
H54   H     H_    0.064460 0.165119 0.332072 0.138508
H55   H     H_    0.780239 0.618456 0.661891 -0.094726
H56   H     H_    0.569915 0.599519 0.666605 0.086680
N1    N     N_2   0.524140 0.983582 0.498001 -0.126211
N2    N     N_2   0.672302 0.004155 0.500325 -0.161291
O1    O     O_2   0.884010 0.444810 0.325060 -0.477098
O2    O     O_2   0.197588 0.217652 0.522487 -0.481535
O3    O     O_3   0.205153 0.218924 0.657380 -0.572931
O4    O     O_3   0.132090 0.451130 0.414310 -0.494039
O5    O     O_3   0.558660 0.599640 0.536520 -0.481863
O6    O     O_2   0.381010 0.300300 0.465220 -0.455704
O7    O     O_3   0.538100 0.264751 0.345922 -0.617166
O8    O     O_2   0.428218 0.470197 0.755353 -0.487781
O9    O     O_3   0.507718 0.323181 0.749997 -0.561136
O10   O     O_3   0.640770 0.594650 0.368950 -0.494130
O11   O     O_2   0.760424 0.529857 0.247361 -0.464588
O12   O     O_3   0.649678 0.715945 0.650472 -0.571300
O13   O     O_3   0.029616 0.314781 0.317607 -0.571226
O14   O     O_3   0.702835 0.681068 0.256202 -0.606210
O15   O     O_2   0.808690 0.699720 0.534830 -0.429995
O16   O     O_3   0.053760 0.638480 0.405010 -0.456650
O17   O     O_2   0.931776 0.782406 0.448061 -0.397078
O18   O     O_3   0.548315 0.761411 0.334931 -0.721350
O19   O     O_2   0.409123 0.812535 0.748795 -0.221227
O20   O     O_2   0.281491 0.898791 0.846598 -0.159969
O21   O     O_3   0.378232 0.763282 0.872044 -0.545700
O22   O     O_3   0.523161 0.866620 0.235339 -0.664636
O23   O     O_3   0.061760 0.766129 0.321910 -0.591664
O24   O     O_3   0.287989 0.265855 0.226313 -0.689769
O25   O     O_2   0.751352 0.255107 0.206017 -0.327765
O26   O     O_2   0.541669 0.144798 0.211622 -0.217884
O27   O     O_3   0.543026 0.214745 0.098228 -0.487347
O28   O     O_2   0.971013 0.231582 0.834666 -0.180358
O29   O     O_2   0.245238 0.285963 0.819042 -0.235853
O30   O     O_3   0.015774 0.342516 0.754264 -0.603668
O31   O     O_2   0.084664 0.956534 0.758416 -0.218314
O32   O     O_2   0.948624 0.070576 0.822018 -0.157251
O33   O     O_3   0.863062 0.011296 0.687998 -0.508797
O34   O     O_2   0.305690 0.555220 0.674980 -0.459902
O35   O     O_2   0.372511 0.988593 0.680858 -0.208591
O36   O     O_2   0.152611 0.996689 0.595297 -0.299086
O37   O     O_3   0.395106 0.107217 0.609003 -0.564774
O38   O     O_3   0.700892 0.138336 0.732037 -0.665630
O39   O     O_2   0.637497 0.103386 0.869113 -0.140925
O40   O     O_2   0.694368 0.251234 0.904672 -0.288194
O41   O     O_3   0.396867 0.191797 0.888918 -0.464885
O42   O     O_3   0.638695 0.585003 0.126766 -0.728005
O43   O     O_3   0.485974 0.105819 0.430136 -0.682328
O44   O     O_3   0.715725 0.869277 0.561567 -0.655556
O45   O     O_3   0.057610 0.548940 0.585700 -0.452808
O46   O     O_3   0.309689 0.652573 0.480482 -0.673758
O47   O     O_3   0.548930 0.405410 0.631060 -0.464966
O48   O     O_3   0.197698 0.683054 0.668874 -0.576354
O49   O     O_3   0.631040 0.400420 0.463490 -0.484861
O50   O     O_3   0.135930 0.361590 0.595000 -0.463288
P1    P     P_3+3 0.056550 0.421630 0.336220 1.019567
P2    P     P_3+3 0.635450 0.689180 0.556380 1.139873
P3    P     P_3+3 0.078037 0.744650 0.409697 1.088084
P4    P     P_3+3 0.133150 0.578440 0.663790 1.028167
P5    P     P_3+3 0.100898 0.253617 0.587642 1.012928
P6    P     P_3+3 0.628969 0.586007 0.275819 1.002537
P7    P     P_3+3 0.558205 0.297425 0.439511 0.967137
P8    P     P_3+3 0.564510 0.417694 0.725732 0.987533
S1    S     S_3+6 0.297617 0.812083 0.810752 0.005004
S2    S     S_3+6 0.577572 0.225918 0.187997 -0.020904
S3    S     S_3+6 0.084085 0.260541 0.781697 -0.033160
S4    S     S_3+6 0.013109 0.034500 0.750572 0.060260
S5    S     S_3+6 0.271546 0.046240 0.650130 -0.048319
S6    S     S_3+6 0.585215 0.185236 0.859228 0.052726

loop_
_geom_bond_atom_site_label_1
_geom_bond_atom_site_label_2
_ccdc_geom_bond_type
C53   C54   S    
C52   H53   S    
O48   P4    S    
C40   H1    S    
C23   H7    S    
Ba1   O10   S    
O15   P2    D    
C57   H17   S    
C55   S5    S    
C15   P4    S    
C56   H16   S    
C5    C6    A    
O6    P7    D    
C12   O14   S    
C51   C52   S    
C42   C43   A    
O47   P8    S    
C23   H8    S    
C28   H37   S    
C24   C25   A    
C53   H55   S    
C13   P8    S    
H44   O33   S    
O49   P7    S    
C33   C35   A    
C22   C24   A    
H42   O27   S    
O34   P4    D    
C4    H18   S    
C19   C31   A    
C53   H56   S    
Ba1   O49   S    
C40   S1    S    
C54   H5    S    
C20   C36   A    
O36   S5    D    
H38   O18   S    
Ba1   P2    S    
O23   P3    S    
C4    H28   S    
Ba1   Ba2   S    
Ba1   O1    S    
O25   S2    D    
Ba1   P1    S    
C49   P5    S    
C7    C11   A    
Ba1   O4    S    
C28   H36   S    
H40   O22   S    
C31   C33   A    
C9    C13   A    
O3    P5    S    
C29   C30   A    
C14   C15   A    
C44   O43   S    
O27   S2    S    
C56   H15   S    
C45   S3    S    
C54   H4    S    
C51   O13   S    
O17   P3    D    
C18   C58   A    
C22   H25   S    
H47   O38   S    
C37   C43   A    
C46   P7    S    
O4    P1    S    
C46   C48   A    
C56   O9    S    
C39   O44   S    
C16   H35   S    
C39   C41   A    
H39   O21   S    
H51   O44   S    
Ba1   O15   S    
C43   P3    S    
C38   P2    S    
H50   O43   S    
H43   O30   S    
C48   C49   A    
Ba2   O4    S    
Ba2   O34   S    
O50   P5    S    
H52   O46   S    
C4    C16   S    
C44   C46   A    
C29   H27   S    
C21   H24   S    
C49   C50   A    
C26   C30   A    
C1    H10   S    
C34   O24   S    
C45   H13   S    
C37   C38   A    
C3    C5    A    
C2    C21   A    
C6    C7    A    
C18   C26   A    
C56   C57   S    
Ba2   O5    S    
C8    H22   S    
O31   S4    D    
C30   C32   A    
C55   H14   S    
C57   S6    S    
C41   C42   A    
Ba1   O5    S    
C35   C36   A    
O21   S1    S    
C45   C55   S    
H41   O24   S    
C47   N2    S    
C44   C47   A    
C9    C10   A    
C53   O12   S    
H48   O41   S    
C2    C58   A    
C40   H12   S    
C31   C32   A    
C12   H6    S    
C54   H3    S    
C34   S2    S    
O14   P6    S    
C18   C19   A    
C4    O23   S    
O45   P4    S    
O40   S6    D    
Ba2   O47   S    
C28   O48   S    
C27   H26   S    
C1    C12   S    
C41   N1    S    
C48   H32   S    
C38   C39   A    
O26   S2    D    
O30   S3    S    
O16   P3    S    
C16   H11   S    
O11   P6    D    
C3    H19   S    
O39   S6    D    
Ba1   O16   S    
O7    P7    S    
Ba2   O50   S    
O1    P1    D    
O8    P8    D    
C34   H9    S    
C36   P1    S    
O32   S4    D    
C1    H2    S    
O9    P8    S    
O13   P1    S    
C52   H45   S    
C51   H34   S    
C33   P6    S    
C28   C40   S    
C47   C50   A    
O35   S5    D    
C2    C3    A    
Ba2   O45   S    
C55   S4    S    
C57   O38   S    
O37   S5    S    
Ba2   O6    S    
O10   P6    S    
C35   H29   S    
C51   H23   S    
C7    C58   A    
C17   C22   A    
C27   C29   A    
N1    N2    D    
H49   O42   S    
O33   S4    S    
C12   O18   S    
O12   P2    S    
C52   H54   S    
C10   C17   A    
C23   O7    S    
C14   H21   S    
C15   C17   A    
O28   S3    D    
O41   S6    S    
O5    P2    S    
C45   O3    S    
C8    C9    A    
C23   C34   S    
O29   S3    D    
O2    P5    D    
O19   S1    D    
C10   C11   A    
Ba1   O45   S    
C24   C27   A    
C6    C8    A    
H46   O37   S    
C25   C26   A    
C16   H33   S    
C20   C21   A    
C11   C25   A    
C50   H31   S    
C1    O22   S    
C37   O46   S    
C19   C20   A    
O20   S1    D    
Ba2   O49   S    
C13   C14   A    
Ba2   P4    S    
C5    H20   S    
C42   H30   S    
C32   O42   S    
