data_mof_unit_60310.cif
_audit_creation_date              2012-10-26T20:10:10-0400
_audit_creation_method            fapswitch 2.2
_symmetry_space_group_name_H-M    P1
_symmetry_Int_Tables_number       1
_space_group_crystal_system       triclinic
_cell_length_a                    19.256048
_cell_length_b                    18.283341
_cell_length_c                    27.472981
_cell_angle_alpha                 89.375938
_cell_angle_beta                  95.67622
_cell_angle_gamma                 90.061694
_cell_volume                      9624.27517804

loop_
_atom_site_label
_atom_site_type_symbol
_atom_type_description
_atom_site_fract_x
_atom_site_fract_y
_atom_site_fract_z
_atom_type_partial_charge
C1    C     C_R   0.367910 0.499668 0.504649 0.586898
C2    C     C_R   0.434964 0.425795 0.866178 -0.003890
C3    C     C_R   0.498094 0.500628 0.353671 -0.005313
C4    C     C_R   0.487916 0.498683 0.644880 -0.018620
C5    C     C_R   0.459619 0.424222 0.969810 -0.008016
C6    C     C_R   0.483839 0.556959 0.020007 -0.008013
C7    C     C_R   0.460083 0.557668 0.969438 -0.004846
C8    C     C_R   0.463577 0.425391 0.021777 -0.004505
C9    C     C_R   0.451698 0.491260 0.943876 0.011699
C10   C     C_R   0.479035 0.491286 0.046892 0.012329
C11   C     C_R   0.461509 0.358683 0.942982 0.087413
C12   C     C_R   0.631583 0.499957 0.494534 0.573432
C13   C     C_R   0.510328 0.619953 0.044625 0.088686
C14   C     C_R   0.439566 0.358453 0.892670 0.257786
C15   C     C_R   0.512911 0.623493 0.095745 0.256163
C16   C     C_R   0.498061 0.500300 0.407153 0.609015
C17   C     C_R   0.500698 0.499595 0.592918 0.611807
C18   C     C_R   0.446308 0.363927 0.048861 -0.077266
C19   C     C_R   0.438559 0.622555 0.944799 -0.075683
C20   C     C_R   0.256797 0.566023 0.516079 0.090587
C21   C     C_R   0.746627 0.435256 0.489473 0.090015
C22   C     C_R   0.739353 0.566073 0.473540 0.085213
C23   C     C_R   0.489595 0.491415 0.098761 -0.099008
C24   C     C_R   0.252076 0.433486 0.507741 0.081613
C25   C     C_R   0.184146 0.570722 0.504905 0.212187
C26   C     C_R   0.819895 0.439598 0.497630 0.201174
C27   C     C_R   0.812651 0.571954 0.480555 0.212232
C28   C     C_R   0.178398 0.436607 0.499527 0.205073
C29   C     C_R   0.144920 0.505828 0.497335 -0.041154
C30   C     C_R   0.852699 0.508509 0.493377 -0.041419
C31   C     C_R   0.291550 0.499295 0.509893 -0.067307
C32   C     C_R   0.706667 0.500246 0.485978 -0.084000
C33   C     C_R   0.928666 0.511936 0.494193 0.433203
C34   C     C_R   0.437943 0.492347 0.892226 -0.100099
C35   C     C_R   0.068939 0.510139 0.495744 0.431456
C36   C     C_R   0.516958 0.274554 0.542490 0.319474
C37   C     C_R   0.443767 0.724244 0.477475 0.281974
C38   C     C_R   0.479517 0.275524 0.458034 0.319207
C39   C     C_R   0.554054 0.725288 0.524414 0.330855
C40   C     C_R   0.497927 0.199167 0.544487 0.059917
C41   C     C_R   0.434365 0.798991 0.489683 0.059058
C42   C     C_R   0.491834 0.198549 0.457384 0.064172
C43   C     C_R   0.554653 0.803713 0.519840 0.066525
C44   C     C_R   0.493242 0.158053 0.501312 -0.051840
C45   C     C_R   0.479510 0.425857 0.125764 0.015236
C46   C     C_R   0.492734 0.841581 0.504944 -0.062588
C47   C     C_R   0.490530 0.924471 0.503197 0.367076
C48   C     C_R   0.491759 0.074998 0.501997 0.371236
C49   C     C_R   0.491780 0.428465 0.177391 0.450660
C50   C     C_R   0.427640 0.560053 0.815316 0.452334
C51   C     C_R   0.522337 0.554759 0.174870 0.454539
C52   C     C_R   0.435299 0.429749 0.814796 0.455736
C53   C     C_R   0.566710 0.486492 0.284725 0.147005
C54   C     C_R   0.399701 0.501306 0.702396 0.144489
C55   C     C_R   0.562222 0.488991 0.334991 -0.152664
C56   C     C_R   0.427717 0.560188 0.866757 0.019169
C57   C     C_R   0.417903 0.502240 0.654597 -0.152968
C58   C     C_R   0.436504 0.509911 0.321124 0.261917
C59   C     C_R   0.541435 0.494169 0.684365 0.186952
C60   C     C_R   0.441774 0.509490 0.270189 0.135983
C61   C     C_R   0.522761 0.496621 0.732824 0.121480
C62   C     C_R   0.506625 0.496821 0.252213 0.175011
C63   C     C_R   0.451943 0.498601 0.741619 0.182959
C64   C     C_R   0.454284 0.362262 0.099896 0.248319
C65   C     C_R   0.421428 0.624965 0.894248 0.253918
C66   C     C_R   0.508087 0.557644 0.123446 -0.006246
Cu1   Cu    Cu3+1 0.500000 0.573360 0.500000 1.167258
Cu2   Cu    Cu3+1 0.500000 0.426640 0.500000 1.189555
H1    H     H_    0.376873 0.504826 0.624619 0.131891
H2    H     H_    0.110487 0.263975 0.542933 0.395278
H3    H     H_    0.685120 0.344075 0.589519 0.401634
H4    H     H_    0.482966 0.701113 0.378950 0.346310
H5    H     H_    0.323340 0.361957 0.408002 0.394256
H6    H     H_    0.672562 0.591337 0.592546 0.391545
H7    H     H_    0.379465 0.177585 0.104595 0.397972
H8    H     H_    0.349225 0.810088 0.896141 0.396744
H9    H     H_    0.370910 0.171558 0.892755 0.393701
H10   H     H_    0.480843 0.821349 0.096314 0.394604
H11   H     H_    0.609080 0.481046 0.359772 0.142454
H12   H     H_    0.423147 0.317278 0.029802 0.207886
H13   H     H_    0.433137 0.671801 0.965482 0.206287
H14   H     H_    0.269845 0.599113 0.333122 0.395722
H15   H     H_    0.644994 0.599924 0.686105 0.365952
H16   H     H_    0.054659 0.708434 0.457608 0.390726
H17   H     H_    0.912083 0.274340 0.467738 0.399316
H18   H     H_    0.945315 0.715666 0.504531 0.391471
I1    I     I_    0.481858 0.148612 0.613433 0.012004
I2    I     I_    0.572581 0.696825 0.007981 -0.070526
I3    I     I_    0.309778 0.651719 0.558152 -0.097114
I4    I     I_    0.699771 0.333576 0.464118 -0.073983
I5    I     I_    0.679714 0.644410 0.427623 -0.100884
I6    I     I_    0.300992 0.330066 0.529306 -0.091602
I7    I     I_    0.332307 0.847450 0.484865 0.025597
I8    I     I_    0.503609 0.144893 0.389288 0.015289
I9    I     I_    0.647258 0.868161 0.540280 0.033541
I10   I     I_    0.352739 0.527578 0.217918 -0.007825
I11   I     I_    0.599876 0.499092 0.794913 -0.043135
I12   I     I_    0.292613 0.503825 0.713799 -0.066002
I13   I     I_    0.665059 0.466017 0.259362 -0.080720
I14   I     I_    0.524949 0.268016 0.971406 -0.063230
N1    N     N_R   0.509799 0.492548 0.200239 -0.405158
N2    N     N_R   0.534885 0.962701 0.476835 -0.163838
N3    N     N_R   0.535927 0.035817 0.476642 -0.159663
N4    N     N_R   0.446366 0.963469 0.528767 -0.155663
N5    N     N_R   0.434027 0.495930 0.791209 -0.403642
N6    N     N_R   0.038462 0.517108 0.537887 -0.121186
N7    N     N_R   0.959127 0.506755 0.451907 -0.118664
N8    N     N_R   0.969312 0.518183 0.537143 -0.093026
N9    N     N_R   0.028311 0.506168 0.452612 -0.094944
N10   N     N_R   0.500000 0.316380 0.500000 -0.282717
N11   N     N_R   0.500000 0.683620 0.500000 -0.293814
N12   N     N_R   0.446583 0.036763 0.527823 -0.157578
O1    O     O_R   0.400150 0.561970 0.500010 -0.454128
O2    O     O_2   0.426630 0.623109 0.789497 -0.364046
O3    O     O_2   0.443325 0.368960 0.788644 -0.354901
O4    O     O_2   0.550379 0.612391 0.199826 -0.360108
O5    O     O_2   0.306656 0.457624 0.320772 -0.217410
O6    O     O_2   0.354454 0.514931 0.396419 -0.230176
O7    O     O_3   0.317340 0.599084 0.322181 -0.412587
O8    O     O_2   0.659550 0.417880 0.704082 -0.137218
O9    O     O_2   0.641983 0.472471 0.622923 -0.242874
O10   O     O_3   0.675839 0.557906 0.695961 -0.436825
O11   O     O_2   0.123061 0.679327 0.549755 -0.200742
O12   O     O_R   0.599850 0.438030 0.499990 -0.440386
O13   O     O_2   0.191487 0.714610 0.482555 -0.191368
O14   O     O_3   0.070435 0.656889 0.460476 -0.472811
O15   O     O_2   0.937729 0.372811 0.540774 -0.203588
O16   O     O_2   0.828912 0.305202 0.539839 -0.206041
O17   O     O_3   0.885294 0.319319 0.458138 -0.446059
O18   O     O_2   0.870961 0.664423 0.420165 -0.206703
O19   O     O_2   0.807564 0.720222 0.483332 -0.173743
O20   O     O_3   0.928665 0.665140 0.509592 -0.468003
O21   O     O_2   0.054726 0.363299 0.474174 -0.211269
O22   O     O_2   0.163029 0.303200 0.459306 -0.206031
O23   O     O_R   0.599850 0.561970 0.499990 -0.451402
O24   O     O_3   0.132390 0.312501 0.548981 -0.447669
O25   O     O_2   0.545935 0.335018 0.631404 -0.209533
O26   O     O_2   0.619491 0.234253 0.610731 -0.229586
O27   O     O_3   0.640277 0.357466 0.570721 -0.446485
O28   O     O_2   0.338685 0.644872 0.431828 -0.177563
O29   O     O_2   0.359965 0.762961 0.395950 -0.208583
O30   O     O_3   0.446213 0.663741 0.381631 -0.453358
O31   O     O_2   0.466175 0.331517 0.366382 -0.224982
O32   O     O_2   0.376217 0.246824 0.387785 -0.229827
O33   O     O_3   0.371437 0.376626 0.420137 -0.447742
O34   O     O_R   0.400150 0.438030 0.500010 -0.454039
O35   O     O_2   0.691041 0.700988 0.542123 -0.228093
O36   O     O_2   0.628711 0.736284 0.611076 -0.229364
O37   O     O_3   0.622647 0.604341 0.585292 -0.473660
O38   O     O_2   0.490261 0.243472 0.155058 -0.171497
O39   O     O_2   0.374866 0.296959 0.162925 -0.176093
O40   O     O_3   0.391552 0.221502 0.085754 -0.494266
O41   O     O_2   0.445817 0.747486 0.844229 -0.176227
O42   O     O_2   0.327263 0.696481 0.832286 -0.182037
O43   O     O_3   0.364617 0.763981 0.913142 -0.492421
O44   O     O_2   0.348858 0.287305 0.828423 -0.188740
O45   O     O_R   0.500010 0.561950 0.430260 -0.455452
O46   O     O_2   0.467948 0.238127 0.842987 -0.170281
O47   O     O_3   0.382915 0.218085 0.909717 -0.473465
O48   O     O_2   0.461159 0.711176 0.162011 -0.193124
O49   O     O_2   0.580999 0.734842 0.142348 -0.174414
O50   O     O_3   0.477588 0.773694 0.079430 -0.472837
O51   O     O_R   0.499990 0.438050 0.569740 -0.447454
O52   O     O_R   0.499990 0.561950 0.569740 -0.461299
O53   O     O_R   0.500010 0.438050 0.430260 -0.446344
O54   O     O_2   0.486105 0.368266 0.205300 -0.346909
S1    S     S_3+6 0.352302 0.518520 0.341882 0.129320
S2    S     S_3+6 0.624564 0.690518 0.565741 0.095655
S3    S     S_3+6 0.427764 0.279870 0.127918 0.113260
S4    S     S_3+6 0.389239 0.709618 0.868900 0.111372
S5    S     S_3+6 0.409569 0.274137 0.866289 0.125819
S6    S     S_3+6 0.508999 0.712098 0.121928 0.122105
S7    S     S_3+6 0.631026 0.483540 0.675411 0.119831
S8    S     S_3+6 0.142686 0.658199 0.500211 0.100136
S9    S     S_3+6 0.869475 0.357882 0.511208 0.105149
S10   S     S_3+6 0.854297 0.658027 0.472335 0.106379
S11   S     S_3+6 0.129738 0.352902 0.493543 0.101704
S12   S     S_3+6 0.580592 0.301043 0.590558 0.132157
S13   S     S_3+6 0.394905 0.697910 0.421691 0.131989
S14   S     S_3+6 0.423342 0.308107 0.406678 0.117071

loop_
_geom_bond_atom_site_label_1
_geom_bond_atom_site_label_2
_ccdc_geom_bond_type
C21   C26   A    
C34   C56   A    
C23   C45   A    
O19   S10   D    
C33   N7    A    
H18   O20   S    
Cu2   O12   S    
C53   I13   S    
H4    O30   S    
O37   S2    S    
C22   C32   A    
C23   C66   A    
C28   C29   A    
O5    S1    D    
C38   C42   A    
C49   N1    A    
C11   C14   A    
O46   S5    D    
C52   O3    S    
O38   S3    D    
C20   C25   A    
C58   C60   A    
C56   C65   A    
C4    C59   A    
O6    S1    D    
C1    C31   S    
O28   S13   D    
O42   S4    D    
C25   C29   A    
C60   C62   A    
O20   S10   S    
C64   S3    S    
C61   C63   A    
C17   O51   A    
H17   O17   S    
O49   S6    D    
C3    C55   A    
C25   S8    S    
C41   I7    S    
O25   S12   D    
O32   S14   D    
C12   O23   A    
O41   S4    D    
C50   N5    A    
C43   I9    S    
C41   C46   A    
H6    O37   S    
C38   N10   A    
C28   S11   S    
H7    O40   S    
O14   S8    S    
C62   N1    S    
O40   S3    S    
Cu2   O53   S    
C2    C34   A    
C39   N11   A    
H15   O10   S    
C47   N2    A    
O29   S13   D    
C12   C32   S    
C27   C30   A    
H2    O24   S    
N7    N9    A    
C1    O34   A    
C33   N8    A    
C42   C44   A    
H14   O7    S    
O13   S8    D    
C24   I6    S    
C21   I4    S    
C53   C55   A    
H16   O14   S    
C37   S13   S    
C21   C32   A    
O9    S7    D    
C59   C61   A    
C38   S14   S    
C54   I12   S    
Cu1   Cu2   S    
C36   C40   A    
C36   S12   S    
O47   S5    S    
N4    N12   A    
C39   C43   A    
O18   S10   D    
C15   C66   A    
O24   S11   S    
C50   C56   A    
C39   S2    S    
C11   I14   S    
C50   O2    S    
C51   C66   A    
C4    C57   A    
Cu1   O23   S    
C5    C9    A    
C17   O52   A    
C55   H11   S    
C53   C62   A    
O30   S13   S    
C12   O12   A    
C45   C49   A    
C16   O53   A    
C22   I5    S    
O48   S6    D    
Cu1   O45   S    
Cu2   N10   S    
O31   S14   D    
C58   S1    S    
C2    C52   A    
H9    O47   S    
C4    C17   S    
C60   I10   S    
Cu1   N11   S    
C48   N12   A    
C52   N5    A    
C26   C30   A    
C7    C19   A    
C22   C27   A    
C13   C15   A    
C5    C11   A    
C36   N10   A    
C9    C34   A    
O36   S2    D    
C63   N5    S    
O26   S12   D    
O7    S1    S    
O11   S8    D    
Cu2   O34   S    
C40   I1    S    
Cu2   O51   S    
C7    C9    A    
C46   C47   S    
O16   S9    D    
C47   N4    A    
C45   C64   A    
C30   C33   S    
C16   O45   A    
C42   I8    S    
C8    C10   A    
C61   I11   S    
C24   C28   A    
C14   S5    S    
C59   S7    S    
O15   S9    D    
C35   N9    A    
C27   S10   S    
C6    C10   A    
C5    C8    A    
H3    O27   S    
H10   O50   S    
C6    C7    A    
C10   C23   A    
C51   N1    A    
O10   S7    S    
C20   I3    S    
C29   C35   S    
H8    O43   S    
C51   O4    S    
O39   S3    D    
C65   S4    S    
Cu1   O1    S    
C24   C31   A    
C49   O54   S    
O27   S12   S    
C6    C13   A    
Cu1   O52   S    
C48   N3    A    
O43   S4    S    
C18   C64   A    
N6    N8    A    
C26   S9    S    
O21   S11   D    
C13   I2    S    
C15   S6    S    
C19   C65   A    
C1    O1    A    
O22   S11   D    
C37   C41   A    
N2    N3    A    
C2    C14   A    
C43   C46   A    
C8    C18   A    
C37   N11   A    
O35   S2    D    
C3    C58   A    
O8    S7    D    
C40   C44   A    
O50   S6    S    
O44   S5    D    
C18   H12   S    
C54   C63   A    
H5    O33   S    
C35   N6    A    
O17   S9    S    
C57   H1    S    
C19   H13   S    
C54   C57   A    
C3    C16   S    
C44   C48   S    
C20   C31   A    
O33   S14   S    
