data_mof_unit_60697.cif
_audit_creation_date              2013-03-05T15:41:01-0500
_audit_creation_method            fapswitch 2.2
_symmetry_space_group_name_H-M    P1
_symmetry_Int_Tables_number       1
_space_group_crystal_system       triclinic
_cell_length_a                    18.432489
_cell_length_b                    18.444046
_cell_length_c                    18.451804
_cell_angle_alpha                 119.864105
_cell_angle_beta                  90.469575
_cell_angle_gamma                 119.591658
_cell_volume                      4453.86865712

loop_
_atom_site_label
_atom_site_type_symbol
_atom_site_description
_atom_site_fract_x
_atom_site_fract_y
_atom_site_fract_z
_atom_type_partial_charge
Zn1   Zn    Zn3+2 0.542440 0.085830 0.956610 1.072749
Zn2   Zn    Zn3+2 0.543390 0.085850 0.129220 1.010291
Zn3   Zn    Zn3+2 0.543390 0.914160 0.957530 0.989123
Zn4   Zn    Zn3+2 0.370780 0.914160 0.956640 1.104806
O1    O     O_3   0.500000 0.000000 0.000000 -0.519184
O2    O     O_R   0.325020 0.939940 0.054210 -0.562516
O3    O     O_R   0.614240 0.060060 0.885070 -0.635046
O4    O     O_R   0.614900 0.229170 0.174980 -0.642594
O5    O     O_R   0.445840 0.770840 0.885740 -0.640315
O6    O     O_R   0.615830 0.060100 0.175880 -0.647282
O7    O     O_R   0.324090 0.939910 0.884220 -0.608847
O8    O     O_R   0.615830 0.939930 0.055710 -0.645596
O9    O     O_R   0.444240 0.060060 0.884190 -0.596417
O10   O     O_R   0.614240 0.229150 0.054160 -0.619093
O11   O     O_R   0.325020 0.770840 0.885120 -0.622731
O12   O     O_R   0.445840 0.060100 0.175010 -0.659347
O13   O     O_R   0.614900 0.939900 0.885710 -0.645492
C1    C     C_R   0.361314 0.998131 0.138576 0.831160
C2    C     C_R   0.638231 0.999681 0.861158 0.864400
C3    C     C_R   0.637840 0.277143 0.138812 0.926445
C4    C     C_R   0.361769 0.722753 0.862198 0.863076
C5    C     C_R   0.640333 0.000649 0.139615 0.859943
C6    C     C_R   0.359982 0.001120 0.861142 0.957219
C7    C     C_R   0.273430 0.107493 0.943250 0.343059
C8    C     C_R   0.225296 0.147966 0.977649 -0.262297
H1    H     H_    0.233553 0.184217 0.047720 0.194232
C9    C     C_R   0.171895 0.149040 0.925605 -0.116651
C10   C     C_R   0.164763 0.108409 0.836179 0.292965
C11   C     C_R   0.207037 0.058056 0.796204 -0.050413
C12   C     C_R   0.262360 0.057314 0.850576 -0.095261
C13   C     C_R   0.304269 0.006636 0.810172 -0.184276
C14   C     C_R   0.294753 0.962088 0.719497 0.304785
H2    H     H_    0.234062 0.929443 0.598408 0.176361
C15   C     C_R   0.242285 0.965261 0.668448 -0.251701
C16   C     C_R   0.196996 0.009226 0.704177 -0.093514
C17   C     C_2   0.778392 0.941080 0.721973 -0.126587
C18   C     C_2   0.809052 0.004703 0.696908 -0.263550
H3    H     H_    0.793739 0.885171 0.699694 0.183659
H4    H     H_    0.797640 0.063458 0.719676 0.152986
C19   C     C_2   0.724706 0.943457 0.780618 -0.152737
C20   C     C_2   0.691075 0.998622 0.803345 -0.265281
H5    H     H_    0.711776 0.896688 0.804746 0.182945
H6    H     H_    0.700356 0.044001 0.778922 0.161099
C21   C     C_2   0.280231 0.442124 0.729746 -0.177415
C22   C     C_2   0.191706 0.387474 0.699806 -0.292245
H7    H     H_    0.313044 0.403312 0.709179 0.187530
H8    H     H_    0.156271 0.422565 0.722549 0.162133
C23   C     C_2   0.336669 0.553844 0.793428 0.004266
C24   C     C_2   0.306972 0.611474 0.804047 -0.316491
H9    H     H_    0.240276 0.577007 0.766439 0.156990
C25   C     C_2   0.280490 0.056374 0.336703 -0.113865
C26   C     C_2   0.192541 0.006966 0.305256 -0.202359
H10   H     H_    0.314683 0.098913 0.406994 0.182834
H11   H     H_    0.158744 0.970420 0.236358 0.187801
C27   C     C_2   0.334377 0.060613 0.278790 -0.266452
C28   C     C_2   0.305745 0.983456 0.192727 0.179848
H12   H     H_    0.399534 0.131629 0.308109 0.171299
C29   C     C_2   0.778743 0.940612 0.217868 -0.126634
C30   C     C_2   0.799018 0.994486 0.306074 -0.276290
H13   H     H_    0.805673 0.896790 0.184973 0.198198
H14   H     H_    0.769732 0.034477 0.340554 0.154904
C31   C     C_2   0.718638 0.936523 0.161975 -0.144986
C32   C     C_2   0.700301 0.006174 0.195269 -0.284370
H15   H     H_    0.690256 0.875491 0.091515 0.194104
H16   H     H_    0.730786 0.070850 0.264197 0.152849
C33   C     C_2   0.752009 0.554680 0.220192 0.347644
C34   C     C_2   0.805450 0.611616 0.304936 -0.412169
H17   H     H_    0.815016 0.576757 0.333608 0.138665
C35   C     C_2   0.707538 0.443038 0.163181 -0.191702
C36   C     C_2   0.687001 0.387764 0.196158 -0.350749
H18   H     H_    0.686587 0.404711 0.091754 0.222381
H19   H     H_    0.701178 0.422660 0.266813 0.162752
Zn5   Zn    Zn3+2 0.957510 0.914170 0.543430 1.042309
Zn6   Zn    Zn3+2 0.956570 0.085840 0.542520 1.022294
Zn7   Zn    Zn3+2 0.956570 0.914150 0.370820 1.035464
Zn8   Zn    Zn3+2 0.129180 0.085840 0.543400 1.031616
O14   O     O_3   0.999960 0.000000 0.500040 -0.516956
O15   O     O_R   0.174930 0.229160 0.614920 -0.622700
O16   O     O_R   0.885720 0.770850 0.445880 -0.654343
O17   O     O_R   0.885050 0.060100 0.614330 -0.638719
O18   O     O_R   0.054120 0.939900 0.325040 -0.628791
O19   O     O_R   0.884120 0.060070 0.444330 -0.652027
O20   O     O_R   0.175860 0.060090 0.615830 -0.606176
O21   O     O_R   0.884120 0.939900 0.324160 -0.623367
O22   O     O_R   0.055710 0.939940 0.615850 -0.619889
O23   O     O_R   0.885720 0.939940 0.614980 -0.611140
O24   O     O_R   0.174930 0.060060 0.445830 -0.654543
O25   O     O_R   0.054120 0.229160 0.614300 -0.638748
O26   O     O_R   0.885050 0.770830 0.325070 -0.588750
C37   C     C_R   0.138222 0.277033 0.639249 0.909916
C38   C     C_R   0.859831 0.722820 0.361179 0.901018
C39   C     C_R   0.861637 0.000383 0.638816 0.925231
C40   C     C_R   0.138401 0.001175 0.361437 0.832924
C41   C     C_R   0.859440 0.999170 0.360415 0.861622
C42   C     C_R   0.140104 0.001591 0.641497 0.882859
N1    N     N_R   0.337002 0.911677 0.677458 0.204007
O27   O     O_R   0.364094 0.915123 0.613614 -0.360076
O28   O     O_R   0.338501 0.851818 0.694488 -0.413710
C43   C     C_1   0.425498 0.597695 0.842908 0.260347
N2    N     N_1   0.496366 0.632454 0.882366 -0.170926
N3    N     N_R   0.226691 0.882684 0.154825 0.199659
O29   O     O_R   0.173218 0.829497 0.074795 -0.342917
O30   O     O_R   0.213721 0.839368 0.196069 -0.359995
N4    N     N_R   0.337249 0.125368 0.006058 0.173123
O31   O     O_R   0.420699 0.195627 0.029732 -0.404697
O32   O     O_R   0.311272 0.094905 0.056905 -0.412790
N5    N     N_R   0.736116 0.600009 0.182737 0.240661
O33   O     O_R   0.727784 0.564732 0.099841 -0.360360
O34   O     O_R   0.713676 0.662483 0.225821 -0.370123
C44   C     C_1   0.128804 0.198729 0.967138 0.314526
N6    N     N_1   0.094285 0.238525 0.000410 -0.160880
N7    N     N_R   0.119217 0.125067 0.789305 0.176172
O35   O     O_R   0.165016 0.197895 0.778925 -0.403077
O36   O     O_R   0.035319 0.085777 0.776834 -0.411093

loop_
_geom_bond_atom_site_label_1
_geom_bond_atom_site_label_2
_geom_bond_distance
_ccdc_geom_bond_type
C29   C31   1.455334 S    
C27   C28   1.348849 D    
C32   H16   1.082435 S    
N3    O29   1.301143 A    
O19   C41   1.271946 A    
N5    O34   1.301774 A    
C33   N5    1.440982 S    
C4    C24   1.457946 S    
C10   N7    1.433418 S    
O4    C3    1.276818 A    
Zn1   O1    1.951518 S    
C10   C11   1.433782 A    
Zn8   O15   1.935546 S    
C28   N3    1.442545 S    
C12   C13   1.433456 A    
Zn7   O21   1.940353 S    
C33   C35   1.476556 S    
C29   H13   1.086608 S    
O8    C5    1.271765 A    
O9    C6    1.279058 A    
C15   C16   1.390770 A    
C35   H18   1.086308 S    
C44   N6    1.157315 T    
N7    O35   1.300993 A    
C31   H15   1.086684 S    
Zn3   O8    1.940806 S    
C5    C32   1.432730 S    
C43   N2    1.157539 T    
C9    C44   1.444824 S    
C21   H7    1.087704 S    
Zn6   O14   1.945676 S    
N1    O28   1.301494 A    
C17   C18   1.341687 D    
N5    O33   1.301119 A    
C30   C41   1.433062 S    
O26   C38   1.276799 A    
C11   C12   1.434322 A    
Zn2   O12   1.937441 S    
O16   C38   1.283178 A    
C1    C28   1.460499 S    
C19   H5    1.086387 S    
C33   C34   1.354986 D    
N3    O30   1.301719 A    
Zn6   O17   1.938029 S    
C20   H6    1.080896 S    
C3    C36   1.453236 S    
Zn6   O19   1.941057 S    
Zn8   O20   1.941368 S    
N4    O32   1.300707 A    
N4    O31   1.301044 A    
C26   H11   1.085129 S    
C22   H8    1.083109 S    
O2    C1    1.277768 A    
C30   H14   1.082470 S    
C34   H17   1.083308 S    
O10   C3    1.282250 A    
C17   C19   1.471491 S    
Zn8   O14   1.950085 S    
Zn4   O2    1.935777 S    
Zn7   O18   1.937335 S    
C8    H1    1.085006 S    
O6    C5    1.271789 A    
O15   C37   1.280326 A    
C25   C26   1.339443 D    
C7    N4    1.431682 S    
C6    C13   1.460174 S    
O17   C39   1.277828 A    
C31   C32   1.337248 D    
Zn3   O5    1.937754 S    
O18   C40   1.278556 A    
C13   C14   1.410316 A    
O20   C42   1.278481 A    
N1    O27   1.301556 A    
C34   C38   1.456443 S    
H2    C15   1.085011 S    
Zn5   O16   1.935540 S    
C26   C40   1.450472 S    
O21   C41   1.271740 A    
C7    C8    1.392396 A    
Zn4   O7    1.941320 S    
C22   C37   1.449712 S    
Zn7   O14   1.946813 S    
Zn8   O24   1.935672 S    
Zn5   O22   1.940633 S    
N7    O36   1.300351 A    
C19   C20   1.340763 D    
C14   N1    1.442008 S    
O25   C37   1.275289 A    
O3    C2    1.276966 A    
C27   H12   1.086610 S    
Zn2   O1    1.946813 S    
Zn1   O9    1.940632 S    
Zn2   O6    1.940206 S    
C21   C22   1.337925 D    
C23   C43   1.449425 S    
C23   C24   1.355291 D    
C18   C39   1.450180 S    
Zn1   O3    1.935204 S    
Zn2   O4    1.937958 S    
Zn4   O1    1.950087 S    
Zn3   O1    1.945678 S    
C16   C42   1.459174 S    
C8    C9    1.383545 A    
C11   C16   1.426875 A    
Zn6   O25   1.937752 S    
Zn4   O11   1.935502 S    
C17   H3    1.086364 S    
C29   C30   1.337411 D    
C18   H4    1.080877 S    
O23   C39   1.279440 A    
O22   C42   1.281357 A    
O5    C4    1.274585 A    
O24   C40   1.278320 A    
O7    C6    1.280349 A    
O13   C2    1.279949 A    
Zn3   O13   1.938072 S    
C25   C27   1.469191 S    
C35   C36   1.339125 D    
C7    C12   1.433154 A    
Zn5   O23   1.935156 S    
Zn7   O26   1.938006 S    
C2    C20   1.449888 S    
O11   C4    1.284065 A    
O12   C1    1.282435 A    
C24   H9    1.082528 S    
C9    C10   1.403313 A    
Zn5   O14   1.951520 S    
C36   H19   1.083918 S    
Zn1   O10   1.935542 S    
C25   H10   1.086184 S    
C21   C23   1.469852 S    
C14   C15   1.386316 A    
