data_mof_unit_54001.cif
_audit_creation_date              2013-03-05T16:26:55-0500
_audit_creation_method            fapswitch 2.2
_symmetry_space_group_name_H-M    P1
_symmetry_Int_Tables_number       1
_space_group_crystal_system       triclinic
_cell_length_a                    19.41941
_cell_length_b                    18.115104
_cell_length_c                    15.056031
_cell_angle_alpha                 89.844917
_cell_angle_beta                  90.07958
_cell_angle_gamma                 89.938149
_cell_volume                      5296.4527031

loop_
_atom_site_label
_atom_site_type_symbol
_atom_site_description
_atom_site_fract_x
_atom_site_fract_y
_atom_site_fract_z
_atom_type_partial_charge
O1    O     O_R   0.400190 0.561980 0.499990 -0.589824
O2    O     O_R   0.599810 0.438020 0.500010 -0.577088
O3    O     O_R   0.599810 0.561980 0.500010 -0.589161
O4    O     O_R   0.400190 0.438020 0.499990 -0.584733
C1    C     C_R   0.367478 0.500023 0.499924 0.844161
C2    C     C_R   0.632505 0.499981 0.499630 0.853042
O5    O     O_R   0.499980 0.561960 0.370260 -0.587714
O6    O     O_R   0.500020 0.438040 0.629740 -0.591035
O7    O     O_R   0.500020 0.561960 0.629740 -0.590598
O8    O     O_R   0.499980 0.438040 0.370260 -0.598562
C3    C     C_R   0.500293 0.500113 0.328402 0.805162
C4    C     C_R   0.499863 0.499943 0.671603 0.807784
Cu1   Cu    Cu3+1 0.500000 0.573360 0.500000 0.947648
Cu2   Cu    Cu3+1 0.500000 0.426640 0.500000 0.952577
C5    C     C_R   0.511845 0.565273 0.814201 -0.186589
C6    C     C_R   0.479385 0.436880 0.185820 -0.187060
C7    C     C_R   0.497050 0.500321 0.768366 -0.097713
C8    C     C_R   0.498527 0.500570 0.231601 -0.101045
C9    C     C_R   0.477512 0.436818 0.814619 -0.182187
C10   C     C_R   0.514168 0.565240 0.185179 -0.167481
C11   C     C_R   0.470949 0.437929 0.907129 -0.029335
C12   C     C_R   0.509982 0.567341 0.092632 -0.012823
C13   C     C_R   0.487675 0.503424 0.953464 -0.059493
C14   C     C_R   0.488618 0.503300 0.046491 -0.064700
C15   C     C_R   0.506586 0.568091 0.906602 -0.024170
C16   C     C_R   0.472496 0.437753 0.093423 -0.028141
C17   C     C_R   0.449506 0.374292 0.954091 0.355264
C18   C     C_R   0.527523 0.632176 0.045948 0.346745
C19   C     C_R   0.450972 0.373919 0.047267 0.356063
C20   C     C_R   0.522537 0.633673 0.952889 0.349484
H1    H     H_    0.529019 0.613273 0.777372 0.188822
H2    H     H_    0.468915 0.386951 0.222921 0.176752
H3    H     H_    0.467165 0.386667 0.777989 0.176206
H4    H     H_    0.529847 0.613869 0.221625 0.177548
C21   C     C_R   0.744944 0.435491 0.516719 -0.252816
C22   C     C_R   0.255744 0.565968 0.484637 -0.288108
C23   C     C_R   0.255532 0.434332 0.513791 -0.295789
C24   C     C_R   0.743544 0.565752 0.480187 -0.298191
H5    H     H_    0.718280 0.384429 0.531560 0.192463
H6    H     H_    0.283181 0.616895 0.471610 0.180246
H7    H     H_    0.282791 0.383247 0.527027 0.176930
H8    H     H_    0.714543 0.614874 0.463756 0.164826
C25   C     C_R   0.816752 0.435694 0.515275 0.391744
C26   C     C_R   0.183725 0.567003 0.486379 0.420611
C27   C     C_R   0.183503 0.433681 0.511111 0.418274
C28   C     C_R   0.815978 0.568048 0.482232 0.427466
C29   C     C_R   0.852415 0.502070 0.498718 -0.095136
C30   C     C_R   0.147537 0.500455 0.498616 -0.097314
C31   C     C_R   0.708055 0.500262 0.498879 -0.158100
C32   C     C_R   0.291913 0.500095 0.499527 -0.159305
C33   C     C_R   0.964258 0.478850 0.574595 -0.141134
C34   C     C_R   0.035888 0.524246 0.422935 -0.159112
C35   C     C_R   0.035916 0.477839 0.574288 -0.170765
C36   C     C_R   0.964223 0.524652 0.422961 -0.154355
H9    H     H_    0.936940 0.461692 0.633817 0.165070
H10   H     H_    0.063287 0.541408 0.363775 0.157639
H11   H     H_    0.063342 0.460057 0.633291 0.156640
H12   H     H_    0.936875 0.541859 0.363656 0.160631
C37   C     C_R   0.071970 0.500765 0.498565 0.151499
C38   C     C_R   0.928101 0.502251 0.498927 0.151375
C39   C     C_R   0.452191 0.720495 0.549287 0.070610
C40   C     C_R   0.469724 0.279059 0.568455 0.080060
C41   C     C_R   0.547423 0.721813 0.451407 0.059361
C42   C     C_R   0.529009 0.278490 0.431261 0.060387
H13   H     H_    0.415020 0.689799 0.587975 0.113956
H14   H     H_    0.445912 0.309311 0.622035 0.113817
H15   H     H_    0.585078 0.692155 0.412407 0.113628
H16   H     H_    0.553062 0.308224 0.377259 0.129047
C43   C     C_R   0.450489 0.797988 0.550328 -0.184124
C44   C     C_R   0.468871 0.201542 0.570196 -0.174727
C45   C     C_R   0.547871 0.799415 0.451313 -0.220741
C46   C     C_R   0.527992 0.200948 0.429598 -0.192325
H17   H     H_    0.411787 0.826202 0.589236 0.139780
H18   H     H_    0.445081 0.172927 0.625422 0.139900
H19   H     H_    0.585882 0.828724 0.412258 0.135070
H20   H     H_    0.551063 0.171859 0.374371 0.147148
C47   C     C_R   0.498793 0.838530 0.501057 0.279625
C48   C     C_R   0.498036 0.161575 0.499979 0.255085
N1    N     N_R   0.500000 0.683620 0.500000 -0.169008
N2    N     N_R   0.500000 0.316380 0.500000 -0.174910
C49   C     C_R   0.553102 0.961203 0.540460 0.217839
C50   C     C_R   0.442797 0.039388 0.461698 0.234146
C51   C     C_R   0.442034 0.961029 0.463843 0.209919
C52   C     C_R   0.552404 0.039533 0.541062 0.222078
C53   C     C_R   0.497808 0.078906 0.500633 -0.249871
C54   C     C_R   0.497983 0.921424 0.501601 -0.253957
N3    N     N_R   0.610205 0.922300 0.579680 0.157006
O9    O     O_R   0.673069 0.942584 0.562597 -0.318376
O10   O     O_R   0.599674 0.868436 0.635348 -0.375490
N4    N     N_R   0.388412 0.078627 0.417046 0.161440
O11   O     O_R   0.371221 0.061010 0.336280 -0.324212
O12   O     O_R   0.354903 0.130926 0.457369 -0.377633
N5    N     N_R   0.383086 0.922170 0.429754 0.162071
O13   O     O_R   0.321259 0.942492 0.452321 -0.302841
O14   O     O_R   0.390659 0.865857 0.377251 -0.374816
N6    N     N_R   0.606120 0.079000 0.586276 0.172004
O15   O     O_R   0.620678 0.063542 0.668639 -0.288047
O16   O     O_R   0.641186 0.129814 0.545222 -0.345161
O17   O     O_3   0.434001 0.309454 0.909834 -0.566223
C55   C     C_3   0.366101 0.313567 0.875891 0.035313
H21   H     H_    0.356280 0.366141 0.839388 0.122736
H22   H     H_    0.328184 0.309393 0.930763 0.132258
C56   C     C_3   0.354795 0.249382 0.811884 -0.307333
H23   H     H_    0.395132 0.250615 0.759657 0.210865
H24   H     H_    0.359340 0.196339 0.848733 0.237201
C57   C     C_3   0.284145 0.253582 0.767622 -0.896957
H25   H     H_    0.242820 0.251943 0.818526 0.258415
H26   H     H_    0.277544 0.205847 0.722298 0.271105
H27   H     H_    0.279401 0.305246 0.728118 0.256786
O18   O     O_3   0.559587 0.689641 0.090333 -0.579512
C58   C     C_3   0.512265 0.747188 0.107062 0.064271
H28   H     H_    0.458352 0.727142 0.116478 0.111949
H29   H     H_    0.513848 0.786947 0.050888 0.183169
C59   C     C_3   0.534420 0.787818 0.191261 -0.376174
H30   H     H_    0.528925 0.750452 0.249467 0.215290
H31   H     H_    0.589434 0.804111 0.185701 0.238819
C60   C     C_3   0.491067 0.856935 0.206186 -0.789146
H32   H     H_    0.498397 0.896599 0.150608 0.246772
H33   H     H_    0.507154 0.884002 0.268958 0.267758
H34   H     H_    0.435694 0.842207 0.210788 0.287753
O19   O     O_3   0.439593 0.308044 0.091970 -0.569125
C61   C     C_3   0.372711 0.307742 0.129242 0.009324
H35   H     H_    0.335136 0.288690 0.078737 0.153338
H36   H     H_    0.356025 0.363130 0.153468 0.120624
C62   C     C_3   0.371476 0.253779 0.207583 -0.269377
H37   H     H_    0.384834 0.197498 0.183871 0.252223
H38   H     H_    0.410435 0.270550 0.257757 0.215444
C63   C     C_3   0.300772 0.251704 0.251569 -0.873846
H39   H     H_    0.286950 0.307167 0.277391 0.236054
H40   H     H_    0.301568 0.212121 0.307967 0.309201
H41   H     H_    0.261130 0.233582 0.203082 0.249735
O20   O     O_3   0.540516 0.697449 0.907666 -0.576069
C64   C     C_3   0.479827 0.733069 0.877541 -0.018841
H42   H     H_    0.447227 0.750384 0.934516 0.124702
H43   H     H_    0.448279 0.696448 0.834413 0.136397
C65   C     C_3   0.499904 0.801141 0.823418 -0.249003
H44   H     H_    0.532636 0.837993 0.864578 0.241006
H45   H     H_    0.530112 0.783484 0.764507 0.253754
C66   C     C_3   0.436552 0.843869 0.792207 -0.901888
H46   H     H_    0.402239 0.807581 0.752617 0.239742
H47   H     H_    0.452840 0.891111 0.750037 0.278026
H48   H     H_    0.407606 0.865492 0.850173 0.257381
O21   O     O_3   0.852116 0.371232 0.533937 -0.598831
C67   C     C_3   0.862340 0.332457 0.453847 0.056545
H49   H     H_    0.889375 0.367560 0.403875 0.132843
H50   H     H_    0.811989 0.314033 0.426083 0.154196
C68   C     C_3   0.906850 0.264613 0.472658 -0.298275
H51   H     H_    0.956990 0.282420 0.501102 0.227326
H52   H     H_    0.880616 0.228732 0.522121 0.246014
C69   C     C_3   0.919913 0.220384 0.388235 -0.904061
H53   H     H_    0.870556 0.199380 0.360859 0.268307
H54   H     H_    0.953834 0.172649 0.403660 0.266176
H55   H     H_    0.945567 0.255386 0.337495 0.256634
O22   O     O_3   0.148205 0.631941 0.469429 -0.603407
C70   C     C_3   0.154186 0.680752 0.542327 0.083254
H56   H     H_    0.145222 0.737542 0.516751 0.188818
H57   H     H_    0.206528 0.680987 0.572876 0.122187
C71   C     C_3   0.099505 0.663583 0.612769 -0.368162
H58   H     H_    0.047808 0.661779 0.581009 0.247215
H59   H     H_    0.110258 0.608812 0.643128 0.207357
C72   C     C_3   0.099177 0.721617 0.685995 -0.890433
H60   H     H_    0.150208 0.723699 0.719330 0.254493
H61   H     H_    0.059505 0.707256 0.736176 0.261075
H62   H     H_    0.086857 0.776850 0.657918 0.264277
O23   O     O_3   0.147704 0.368860 0.527079 -0.612605
C73   C     C_3   0.153385 0.320798 0.453422 0.081169
H63   H     H_    0.142121 0.264102 0.477632 0.186578
H64   H     H_    0.206294 0.318901 0.424861 0.135961
C74   C     C_3   0.100660 0.340952 0.381330 -0.376766
H65   H     H_    0.048665 0.345783 0.411485 0.238650
H66   H     H_    0.114427 0.395007 0.351252 0.207966
C75   C     C_3   0.098636 0.282959 0.308143 -0.898983
H67   H     H_    0.149774 0.278386 0.275838 0.262406
H68   H     H_    0.060133 0.299274 0.257142 0.254453
H69   H     H_    0.083811 0.228390 0.335937 0.268384
O24   O     O_3   0.853073 0.631804 0.462215 -0.609336
C76   C     C_3   0.825297 0.696069 0.501974 0.076652
H70   H     H_    0.868425 0.726383 0.533836 0.168727
H71   H     H_    0.787806 0.684728 0.556416 0.139446
C77   C     C_3   0.793901 0.746129 0.430331 -0.408763
H72   H     H_    0.835661 0.767659 0.387024 0.237783
H73   H     H_    0.757839 0.714369 0.387837 0.219448
C78   C     C_3   0.755132 0.810828 0.471317 -0.779850
H74   H     H_    0.711618 0.790374 0.512395 0.274745
H75   H     H_    0.734049 0.846617 0.417788 0.257334
H76   H     H_    0.790295 0.844182 0.513363 0.278303

loop_
_geom_bond_atom_site_label_1
_geom_bond_atom_site_label_2
_geom_bond_distance
_ccdc_geom_bond_type
C71   H59   1.110767 S    
N3    O9    1.301083 A    
Cu1   N1    1.997371 S    
C3    C8    1.457796 S    
N5    O13   1.301297 A    
C17   C19   1.403100 A    
C74   H66   1.110810 S    
C74   H65   1.111135 S    
C43   C47   1.403578 A    
C58   H28   1.117621 S    
C46   H20   1.082899 S    
O3    C2    1.289601 A    
C63   H39   1.111067 S    
C49   C52   1.419049 A    
C72   H60   1.110930 S    
C35   C37   1.401004 A    
C58   H29   1.109860 S    
C24   C31   1.400754 A    
C36   C38   1.401862 A    
C75   H67   1.109490 S    
O5    C3    1.286959 A    
C17   O17   1.385168 S    
O23   C73   1.416116 S    
O1    C1    1.290261 A    
C42   H16   1.081023 S    
C40   N2    1.365205 A    
C9    C11   1.399030 A    
C14   C16   1.415656 A    
C24   H8    1.080536 S    
C78   H75   1.110464 S    
C66   H48   1.110773 S    
C5    C15   1.396151 A    
C44   C48   1.402685 A    
C57   H25   1.110820 S    
O21   C67   1.411315 S    
C51   N5    1.439237 S    
C40   C44   1.404518 A    
C52   N6    1.436999 S    
O7    Cu1   1.963699 S    
O18   C58   1.412318 S    
C46   C48   1.403044 A    
C56   H23   1.110898 S    
C71   C72   1.525453 S    
C29   C38   1.469788 S    
C25   O21   1.382064 S    
C68   H51   1.111659 S    
C34   C36   1.391700 A    
O20   C64   1.416453 S    
C76   H71   1.115900 S    
C69   H55   1.110382 S    
N6    O16   1.300969 A    
C4    C7    1.457993 S    
C21   C31   1.399276 A    
C62   C63   1.525684 S    
C13   C14   1.400719 A    
C43   H17   1.082252 S    
Cu2   N2    1.997371 S    
C56   C57   1.526163 S    
C21   C25   1.394679 A    
C33   H9    1.083166 S    
C49   C54   1.417571 A    
O3    Cu1   1.948960 S    
C77   C78   1.524658 S    
C10   H4    1.082856 S    
C42   C46   1.405132 A    
C62   H37   1.111687 S    
C11   C17   1.414109 A    
N5    O14   1.300581 A    
C12   C18   1.409451 A    
Cu1   Cu2   2.657846 S    
C70   C71   1.533356 S    
C73   H64   1.114907 S    
C42   N2    1.365352 A    
C67   C68   1.527392 S    
C28   O24   1.394322 S    
O2    C2    1.290160 A    
C65   C66   1.525734 S    
C72   H61   1.110404 S    
C77   H73   1.110123 S    
C59   H30   1.111206 S    
C6    C16   1.397421 A    
C41   H15   1.081744 S    
C40   H14   1.080652 S    
C22   H6    1.083431 S    
C68   C69   1.525744 S    
C26   C30   1.407864 A    
C52   C53   1.413347 A    
C65   H45   1.111628 S    
O8    Cu2   1.963699 S    
C60   H34   1.110392 S    
C35   H11   1.083208 S    
C67   H49   1.115912 S    
C41   N1    1.364759 A    
C18   O18   1.386351 S    
C55   C56   1.528019 S    
C19   O19   1.386538 S    
C33   C35   1.391665 A    
C21   H5    1.083456 S    
C78   H74   1.111193 S    
C44   H18   1.082932 S    
C34   C37   1.401079 A    
C64   C65   1.527464 S    
N4    O12   1.300955 A    
O17   C55   1.415309 S    
O6    C4    1.287861 A    
C76   C77   1.532736 S    
N6    O15   1.301176 A    
C55   H22   1.109912 S    
O22   C70   1.416013 S    
C69   H54   1.110331 S    
C56   H24   1.111608 S    
C70   H57   1.115108 S    
O19   C61   1.415588 S    
C49   N3    1.438496 S    
C16   C19   1.413994 A    
C48   C53   1.497580 S    
C67   H50   1.114686 S    
O24   C76   1.417004 S    
C10   C12   1.396071 A    
C47   C54   1.501754 S    
C76   H70   1.111052 S    
C25   C29   1.410040 A    
C11   C13   1.415797 A    
C9    H3    1.082901 S    
C71   H58   1.111930 S    
C74   C75   1.525004 S    
C12   C14   1.416037 A    
C1    C32   1.467437 S    
C78   H76   1.110798 S    
O1    Cu1   1.949406 S    
C23   C27   1.399350 A    
C63   H41   1.110673 S    
C45   C47   1.405249 A    
C72   H62   1.110837 S    
C22   C32   1.401387 A    
C77   H72   1.111609 S    
C30   C37   1.467476 S    
C64   H43   1.113166 S    
C36   H12   1.083176 S    
C27   C30   1.408163 A    
C39   C43   1.404274 A    
C15   C20   1.413409 A    
C5    C7    1.395614 A    
C28   C29   1.409562 A    
O6    Cu2   1.964811 S    
C68   H52   1.111647 S    
C41   C45   1.405809 A    
C65   H44   1.111667 S    
C63   H40   1.109981 S    
C59   H31   1.111852 S    
C66   H46   1.110569 S    
C75   H69   1.110796 S    
C5    H1    1.083187 S    
C6    H2    1.081392 S    
C50   C53   1.414027 A    
C50   N4    1.437512 S    
C26   O22   1.385946 S    
C61   C62   1.530130 S    
C60   H33   1.110519 S    
O4    Cu2   1.948964 S    
C60   H32   1.110885 S    
C45   H19   1.082999 S    
C23   C32   1.401896 A    
C66   H47   1.110738 S    
N4    O11   1.301224 A    
C64   H42   1.112450 S    
C73   H63   1.110954 S    
C57   H26   1.110425 S    
C39   N1    1.364596 A    
C20   O20   1.384737 S    
O4    C1    1.289774 A    
C75   H68   1.110296 S    
C18   C20   1.404489 A    
C55   H21   1.114420 S    
C7    C9    1.396286 A    
C27   O23   1.385874 S    
C58   C59   1.529090 S    
C8    C10   1.396455 A    
C13   C15   1.414966 A    
C2    C31   1.467212 S    
C23   H7    1.083497 S    
O2    Cu2   1.949403 S    
O7    C4    1.286698 A    
C24   C28   1.407580 A    
C59   C60   1.525351 S    
C22   C26   1.398948 A    
O8    C3    1.287555 A    
C39   H13   1.081588 S    
O5    Cu1   1.964811 S    
C51   C54   1.418709 A    
C73   C74   1.534181 S    
C6    C8    1.396038 A    
C50   C51   1.419866 A    
C70   H56   1.110952 S    
C62   H38   1.111545 S    
N3    O10   1.301107 A    
C69   H53   1.110813 S    
C33   C38   1.401843 A    
C61   H35   1.109131 S    
C61   H36   1.116416 S    
C34   H10   1.083200 S    
C57   H27   1.111216 S    
