data_mof_unit_58141.cif
_audit_creation_date              2012-12-10T19:46:52-0500
_audit_creation_method            fapswitch 2.2
_symmetry_space_group_name_H-M    P1
_symmetry_Int_Tables_number       1
_space_group_crystal_system       triclinic
_cell_length_a                    10.928816
_cell_length_b                    10.94338
_cell_length_c                    13.139251
_cell_angle_alpha                 92.064873
_cell_angle_beta                  92.051812
_cell_angle_gamma                 90.013213
_cell_volume                      1569.40154283

loop_
_atom_site_label
_atom_site_type_symbol
_atom_type_description
_atom_site_fract_x
_atom_site_fract_y
_atom_site_fract_z
_atom_type_partial_charge
C1    C     C_R   0.504685 0.259565 0.498545 0.813646
C2    C     C_R   0.499518 0.740661 0.501786 0.826917
C3    C     C_R   0.873163 0.491359 0.503646 -0.107048
C4    C     C_R   0.127057 0.492916 0.495502 -0.103675
C5    C     C_R   0.944810 0.482189 0.594594 0.012966
C6    C     C_R   0.055232 0.496649 0.404253 -0.010850
C7    C     C_R   0.599376 0.160707 0.146435 -0.221963
C8    C     C_R   0.574567 0.874486 0.863318 -0.231229
C9    C     C_R   0.535648 0.142299 0.235661 0.194587
C10   C     C_R   0.581198 0.903510 0.760827 0.191768
C11   C     C_R   0.601012 0.105313 0.324292 -0.013527
C12   C     C_R   0.474406 0.894977 0.696210 0.003348
C13   C     C_R   0.730364 0.094166 0.323643 -0.042799
C14   C     C_R   0.363746 0.851986 0.735035 -0.025346
C15   C     C_R   0.790721 0.110034 0.232782 -0.138377
C16   C     C_R   0.360500 0.822575 0.838372 -0.123549
C17   C     C_R   0.726037 0.141145 0.143761 0.157702
C18   C     C_R   0.465164 0.836086 0.903562 0.149334
C19   C     C_R   0.526387 0.929823 0.413576 -0.225007
C20   C     C_R   0.471999 0.070799 0.586319 -0.250210
C21   C     C_R   0.499194 0.873219 0.503853 -0.102317
C22   C     C_R   0.502360 0.127249 0.496703 -0.113973
C23   C     C_R   0.259426 0.498023 0.498041 0.831813
C24   C     C_R   0.740610 0.497534 0.501714 0.810988
C25   C     C_R   0.476935 0.944652 0.592673 -0.018677
C26   C     C_R   0.535389 0.056023 0.410785 0.000343
C27   C     C_1   0.499748 0.498819 0.173575 0.130583
C28   C     C_1   0.499194 0.499107 0.826333 0.152972
C29   C     C_1   0.499266 0.497350 0.050607 -0.093443
C30   C     C_1   0.498835 0.497702 0.949219 -0.097361
C31   C     C_R   0.116823 0.601859 0.138860 -0.160679
C32   C     C_R   0.777358 0.368977 0.822338 -0.155114
C33   C     C_R   0.091758 0.608745 0.243066 0.178674
C34   C     C_R   0.827877 0.368858 0.725593 0.234676
C35   C     C_R   0.104485 0.502026 0.300894 0.095503
C36   C     C_R   0.893084 0.473314 0.696826 0.094665
C37   C     C_R   0.143124 0.392494 0.253121 -0.146300
C38   C     C_R   0.914692 0.569925 0.768491 -0.206332
C39   C     C_R   0.168223 0.388065 0.149565 -0.172814
C40   C     C_R   0.866713 0.566970 0.865299 -0.150675
C41   C     C_R   0.154684 0.492309 0.092526 -0.142734
C42   C     C_R   0.796567 0.467528 0.891560 -0.142737
C43   C     C_R   0.929150 0.494585 0.409838 -0.193793
C44   C     C_R   0.071026 0.484210 0.589164 -0.194691
Cu1   Cu    Cu3+1 0.499990 0.499990 0.592680 0.975639
Cu2   Cu    Cu3+1 0.500010 0.500010 0.407320 0.964312
H1    H     H_    0.172718 0.488041 0.012000 0.141961
H2    H     H_    0.758154 0.466265 0.966191 0.147118
H3    H     H_    0.888587 0.095312 0.230550 0.180634
H4    H     H_    0.275209 0.791463 0.867660 0.181028
H5    H     H_    0.550551 0.875368 0.346602 0.160969
H6    H     H_    0.452014 0.125313 0.654315 0.162863
H7    H     H_    0.105646 0.681590 0.093031 0.138444
H8    H     H_    0.724178 0.291695 0.844472 0.117831
H9    H     H_    0.149379 0.309356 0.295345 0.141645
H10   H     H_    0.968762 0.647989 0.748985 0.193626
H11   H     H_    0.194960 0.302865 0.112521 0.143956
H12   H     H_    0.883308 0.642207 0.919807 0.131779
H13   H     H_    0.874285 0.496581 0.339474 0.162918
H14   H     H_    0.125809 0.478806 0.659376 0.164113
H15   H     H_    0.549346 0.187527 0.078123 0.139192
H16   H     H_    0.655492 0.884413 0.913199 0.133198
N1    N     N_1   0.500030 0.500030 0.268070 -0.142447
N2    N     N_1   0.499970 0.499970 0.731930 -0.136659
O1    O     O_R   0.499980 0.319630 0.578260 -0.590166
O2    O     O_R   0.500020 0.680370 0.421740 -0.584843
O3    O     O_R   0.500000 0.319650 0.421740 -0.582147
O4    O     O_R   0.500000 0.680350 0.578260 -0.570717
O5    O     O_R   0.319630 0.500000 0.578260 -0.580060
O6    O     O_R   0.680370 0.500000 0.421740 -0.582440
O7    O     O_R   0.319650 0.500020 0.421740 -0.578080
O8    O     O_R   0.680350 0.499980 0.578260 -0.578612
C45   C     C_2   0.803293 0.062675 0.416779 0.309673
H17   H     H_    0.758758 0.047163 0.487395 0.083726
O9    O     O_2   0.914778 0.055156 0.416180 -0.564936
C46   C     C_2   0.250735 0.839671 0.668906 0.355029
H18   H     H_    0.251751 0.860941 0.588966 0.080988
O10   O     O_2   0.154623 0.805055 0.702827 -0.592745
C47   C     C_3   0.052004 0.730403 0.289515 -0.406378
C48   C     C_3   0.924274 0.766089 0.249806 -0.823705
H19   H     H_    0.923288 0.778124 0.166228 0.233585
H20   H     H_    0.856119 0.695288 0.267068 0.247710
H21   H     H_    0.896895 0.853792 0.287177 0.273587
H22   H     H_    0.051984 0.729077 0.373952 0.221229
H23   H     H_    0.118592 0.802151 0.270392 0.206128
C49   C     C_3   0.817891 0.253985 0.658499 -0.441211
C50   C     C_3   0.929965 0.173243 0.675982 -0.794198
H24   H     H_    0.014266 0.221514 0.654847 0.260473
H25   H     H_    0.938820 0.148740 0.757246 0.243341
H26   H     H_    0.920709 0.087839 0.628350 0.271071
H27   H     H_    0.733927 0.202733 0.675679 0.185908
H28   H     H_    0.808873 0.274744 0.576749 0.202916
C51   C     C_3   0.791908 0.148211 0.045268 -0.434195
C52   C     C_3   0.894622 0.243239 0.052833 -0.805971
H29   H     H_    0.970209 0.212781 0.104480 0.241783
H30   H     H_    0.932536 0.254716 0.976513 0.247600
H31   H     H_    0.859919 0.332608 0.082166 0.258643
H32   H     H_    0.831394 0.057153 0.025631 0.197190
H33   H     H_    0.726666 0.171008 0.982238 0.192131
C53   C     C_3   0.466558 0.813556 0.016717 -0.395135
C54   C     C_3   0.345839 0.769150 0.057107 -0.869897
H34   H     H_    0.273261 0.839060 0.046808 0.248486
H35   H     H_    0.317315 0.682408 0.016888 0.259757
H36   H     H_    0.357717 0.752106 0.139687 0.253000
H37   H     H_    0.538549 0.745184 0.034253 0.212673
H38   H     H_    0.493605 0.899541 0.059080 0.208353
C55   C     C_3   0.398914 0.164667 0.234322 -0.365081
C56   C     C_3   0.328601 0.065639 0.172454 -0.898687
H39   H     H_    0.353014 0.066293 0.091199 0.256646
H40   H     H_    0.349210 0.974880 0.204014 0.271363
H41   H     H_    0.228719 0.082561 0.176940 0.244771
H42   H     H_    0.362617 0.168754 0.312069 0.218129
H43   H     H_    0.380356 0.254962 0.201492 0.201309
C57   C     C_3   0.703397 0.946819 0.724618 -0.446989
C58   C     C_3   0.795254 0.842493 0.719948 -0.785027
H44   H     H_    0.816355 0.810657 0.797773 0.243528
H45   H     H_    0.757994 0.765442 0.670811 0.264374
H46   H     H_    0.881577 0.874576 0.687687 0.263768
H47   H     H_    0.696171 0.985505 0.648144 0.215309
H48   H     H_    0.739645 0.020403 0.777911 0.199657

loop_
_geom_bond_atom_site_label_1
_geom_bond_atom_site_label_2
_ccdc_geom_bond_type
C50   H24   S    
C51   C52   S    
C27   C29   S    
C55   H42   S    
C23   O5    A    
C57   C58   S    
C24   O6    A    
C39   C41   A    
Cu1   Cu2   S    
C56   H39   S    
C3    C43   A    
C53   H37   S    
C54   H34   S    
C35   C37   A    
C46   O10   D    
Cu2   O2    S    
C2    O4    A    
C49   H27   S    
C34   C49   S    
C47   H22   S    
C20   C25   A    
C58   H44   S    
C39   H11   S    
C5    C36   S    
C6    C35   S    
C15   C17   A    
C45   H17   S    
C19   C26   A    
C55   H43   S    
C33   C35   A    
C7    H15   S    
C58   H45   S    
C1    O1    A    
C55   C56   S    
C31   C33   A    
C51   H33   S    
C57   H47   S    
C10   C57   S    
C43   H13   S    
C40   C42   A    
C1    C22   S    
C54   H35   S    
Cu1   O8    S    
C45   O9    D    
C3    C24   S    
C18   C53   S    
C2    C21   S    
C48   H21   S    
C10   C12   A    
C32   H8    S    
C37   C39   A    
C40   H12   S    
Cu1   O5    S    
C23   O7    A    
C46   H18   S    
C4    C6    A    
C4    C23   S    
C49   C50   S    
C33   C47   S    
C4    C44   A    
C11   C26   S    
C7    C17   A    
C8    C18   A    
C14   C46   S    
C29   C30   T    
C58   H46   S    
Cu1   O4    S    
C41   H1    S    
C42   H2    S    
C31   H7    S    
C52   H30   S    
C9    C11   A    
Cu2   O7    S    
C27   N1    T    
C28   N2    T    
C8    C10   A    
C5    C44   A    
C12   C14   A    
C54   H36   S    
C6    C43   A    
C13   C15   A    
Cu1   O1    S    
C14   C16   A    
C17   C51   S    
C20   C22   A    
C47   H23   S    
C24   O8    A    
C7    C9    A    
C21   C25   A    
C31   C41   A    
C19   C21   A    
C13   C45   S    
C48   H19   S    
C3    C5    A    
C2    O2    A    
C9    C55   S    
C12   C25   S    
Cu1   N2    S    
C53   H38   S    
C52   H31   S    
C56   H41   S    
Cu2   N1    S    
C28   C30   S    
Cu2   O3    S    
C20   H6    S    
C49   H28   S    
C38   C40   A    
C11   C13   A    
C44   H14   S    
C36   C38   A    
C53   C54   S    
C1    O3    A    
C48   H20   S    
C56   H40   S    
C34   C36   A    
C15   H3    S    
C52   H29   S    
C16   H4    S    
Cu2   O6    S    
C47   C48   S    
C37   H9    S    
C19   H5    S    
C38   H10   S    
C16   C18   A    
C22   C26   A    
C50   H26   S    
C8    H16   S    
C50   H25   S    
C32   C42   A    
C51   H32   S    
C57   H48   S    
C32   C34   A    
