data_mof_unit_63919.cif
_audit_creation_date              2012-12-10T17:55:55-0500
_audit_creation_method            fapswitch 2.2
_symmetry_space_group_name_H-M    P1
_symmetry_Int_Tables_number       1
_space_group_crystal_system       triclinic
_cell_length_a                    18.295118
_cell_length_b                    18.428345
_cell_length_c                    26.020395
_cell_angle_alpha                 89.988889
_cell_angle_beta                  90.000321
_cell_angle_gamma                 89.999884
_cell_volume                      8772.74338788

loop_
_atom_site_label
_atom_site_type_symbol
_atom_type_description
_atom_site_fract_x
_atom_site_fract_y
_atom_site_fract_z
_atom_type_partial_charge
C1    C     C_R   0.139786 0.859302 0.249087 0.505369
C2    C     C_R   0.241825 0.792752 0.203969 -0.014046
C3    C     C_3   0.265602 0.336265 0.655028 -0.372802
C4    C     C_R   0.728931 0.821540 0.766706 -0.014369
C5    C     C_R   0.758033 0.792884 0.204017 -0.013991
C6    C     C_R   0.771051 0.321519 0.266761 -0.014368
C7    C     C_R   0.741805 0.292733 0.703961 -0.013991
C8    C     C_R   0.228934 0.321537 0.266714 -0.014389
C9    C     C_R   0.258254 0.292677 0.703941 -0.014041
C10   C     C_R   0.822761 0.266015 0.266915 -0.112079
C11   C     C_R   0.795553 0.239237 0.705842 -0.111950
C12   C     C_R   0.177222 0.266033 0.266872 -0.112214
C13   C     C_R   0.141168 0.860667 0.749534 0.505452
C14   C     C_R   0.204500 0.239185 0.705821 -0.111908
C15   C     C_R   0.322779 0.766034 0.766869 -0.112213
C16   C     C_R   0.295572 0.739254 0.205850 -0.111921
C17   C     C_R   0.677219 0.766036 0.766865 -0.112068
C18   C     C_R   0.704298 0.739379 0.205901 -0.111970
C19   C     C_R   0.804879 0.196839 0.248912 0.028105
C20   C     C_R   0.802846 0.194837 0.749065 0.027081
C21   C     C_R   0.195121 0.196839 0.248911 0.028055
C22   C     C_R   0.197155 0.194837 0.749066 0.027071
C23   C     C_R   0.304879 0.696839 0.748911 0.028055
C24   C     C_R   0.860211 0.859303 0.249086 0.505244
C25   C     C_R   0.302846 0.694836 0.249065 0.027059
C26   C     C_R   0.695122 0.696839 0.748911 0.028114
C27   C     C_R   0.697153 0.694836 0.249062 0.027052
C28   C     C_R   0.933785 0.999782 0.026813 -0.136572
C29   C     C_R   0.933785 0.999816 0.973199 -0.135636
C30   C     C_R   0.066215 0.999780 0.026814 -0.136578
C31   C     C_R   0.066215 0.999814 0.973200 -0.135642
C32   C     C_R   0.433784 0.499780 0.526813 -0.136581
C33   C     C_R   0.433785 0.499815 0.473199 -0.135641
C34   C     C_R   0.566215 0.499781 0.526814 -0.136571
C35   C     C_R   0.858832 0.860666 0.749535 0.505628
C36   C     C_R   0.566215 0.499815 0.473200 -0.135637
C37   C     C_R   1.000000 0.999872 0.945882 0.036026
C38   C     C_R   1.000000 0.999825 0.054128 0.035548
C39   C     C_R   0.500000 0.499872 0.445882 0.036027
C40   C     C_R   0.500000 0.499824 0.554128 0.035545
C41   C     C_R   0.859897 0.140059 0.249862 0.505830
C42   C     C_R   0.859720 0.139888 0.749961 0.504591
C43   C     C_R   0.140103 0.140059 0.249862 0.505796
C44   C     C_R   0.140280 0.139888 0.749961 0.504579
C45   C     C_R   0.359897 0.640059 0.749862 0.505796
C46   C     C_R   0.639786 0.359302 0.749087 0.505211
C47   C     C_R   0.359720 0.639887 0.249961 0.504595
C48   C     C_R   0.640103 0.640059 0.749862 0.505819
C49   C     C_R   0.640280 0.639887 0.249960 0.504629
C50   C     C_R   1.000000 0.999930 0.110787 0.502271
C51   C     C_R   0.000000 0.999965 0.889217 0.505568
C52   C     C_R   0.500000 0.499930 0.610787 0.502255
C53   C     C_R   0.500000 0.499964 0.389217 0.505574
C54   C     C_R   0.999516 0.999943 0.388520 0.511785
C55   C     C_R   0.000483 0.999953 0.611481 0.510191
C56   C     C_R   0.500484 0.499943 0.888520 0.511779
C57   C     C_R   0.641168 0.360666 0.249536 0.505640
C58   C     C_R   0.499516 0.499953 0.111481 0.510201
C59   C     C_2   0.998277 0.059545 0.528133 -0.160500
C60   C     C_2   0.001675 0.059537 0.471853 -0.158799
C61   C     C_2   0.501723 0.559545 0.028133 -0.160493
C62   C     C_2   0.498324 0.559537 0.971852 -0.158794
C63   C     C_2   0.004127 0.998721 0.556043 -0.093219
C64   C     C_2   0.995876 0.998701 0.443961 -0.093391
C65   C     C_2   0.495873 0.498721 0.056043 -0.093218
C66   C     C_2   0.504124 0.498701 0.943961 -0.093394
C67   C     C_R   0.734952 0.182539 0.229904 -0.142499
C68   C     C_R   0.360215 0.359301 0.749087 0.505354
C69   C     C_R   0.755648 0.202903 0.790865 -0.144444
C70   C     C_R   0.265067 0.182520 0.229944 -0.142519
C71   C     C_R   0.244302 0.202953 0.790889 -0.144431
C72   C     C_R   0.234932 0.682519 0.729946 -0.142515
C73   C     C_R   0.255630 0.702886 0.290856 -0.144448
C74   C     C_R   0.765071 0.682516 0.729952 -0.142483
C75   C     C_R   0.744494 0.702765 0.290795 -0.144480
C76   C     C_R   0.182410 0.736697 0.730198 -0.148005
C77   C     C_R   0.202558 0.756516 0.290052 -0.148447
C78   C     C_R   0.817592 0.736694 0.730203 -0.147920
C79   C     C_R   0.358832 0.360667 0.249534 0.505453
C80   C     C_R   0.797563 0.756395 0.289990 -0.148548
C81   C     C_R   0.682431 0.236716 0.230156 -0.147938
C82   C     C_R   0.702575 0.256534 0.790061 -0.148505
C83   C     C_R   0.317588 0.236698 0.230195 -0.148008
C84   C     C_R   0.297376 0.256583 0.790086 -0.148424
C85   C     C_R   0.199244 0.806105 0.748990 0.052986
C86   C     C_R   0.195513 0.802428 0.247290 0.052777
C87   C     C_R   0.800757 0.806104 0.748990 0.053003
C88   C     C_R   0.804480 0.802433 0.247284 0.052783
C89   C     C_R   0.699245 0.306105 0.248993 0.052989
C90   C     C_R   0.271068 0.821538 0.766711 -0.014394
C91   C     C_R   0.695512 0.302427 0.747290 0.052823
C92   C     C_R   0.300756 0.306105 0.248990 0.052986
C93   C     C_R   0.304491 0.302425 0.747292 0.052797
C94   C     C_3   0.295062 0.895978 0.784231 -0.371467
C95   C     C_3   0.234578 0.836425 0.155086 -0.372775
C96   C     C_3   0.704935 0.895984 0.784217 -0.371432
C97   C     C_3   0.765106 0.836705 0.155185 -0.372715
C98   C     C_3   0.795030 0.395937 0.284339 -0.371432
C99   C     C_3   0.734532 0.336384 0.655070 -0.372776
C100  C     C_3   0.204940 0.395976 0.284238 -0.371474
H1    H     H_    0.991857 0.111803 0.546921 0.153344
H2    H     H_    0.760628 0.168651 0.824526 0.134965
H3    H     H_    0.279525 0.129131 0.215793 0.135025
H4    H     H_    0.239280 0.168740 0.824568 0.134971
H5    H     H_    0.220473 0.629129 0.715798 0.135038
H6    H     H_    0.260595 0.668619 0.324512 0.134996
H7    H     H_    0.779531 0.629124 0.715808 0.135027
H8    H     H_    0.739634 0.668400 0.324408 0.135016
H9    H     H_    0.128108 0.723882 0.716284 0.135627
H10   H     H_    0.167576 0.762706 0.323361 0.137307
H11   H     H_    0.871896 0.723877 0.716294 0.135640
H12   H     H_    0.008052 0.111797 0.453049 0.155350
H13   H     H_    0.832645 0.762482 0.323255 0.137179
H14   H     H_    0.628144 0.223915 0.216207 0.135661
H15   H     H_    0.667608 0.262738 0.823375 0.137109
H16   H     H_    0.371889 0.223884 0.216280 0.135624
H17   H     H_    0.332302 0.262829 0.823418 0.137278
H18   H     H_    0.881885 0.999746 0.046834 0.133044
H19   H     H_    0.881886 0.999815 0.953181 0.133590
H20   H     H_    0.118114 0.999743 0.046835 0.133042
H21   H     H_    0.118114 0.999811 0.953181 0.133587
H22   H     H_    0.381885 0.499744 0.546834 0.133045
H23   H     H_    0.508143 0.611803 0.046921 0.153342
H24   H     H_    0.381886 0.499813 0.453181 0.133587
H25   H     H_    0.618114 0.499744 0.546835 0.133052
H26   H     H_    0.618114 0.499813 0.453181 0.133584
H27   H     H_    0.281804 0.936964 0.754358 0.148214
H28   H     H_    0.267903 0.910126 0.821026 0.163734
H29   H     H_    0.354972 0.898581 0.790964 0.105542
H30   H     H_    0.177393 0.834123 0.140862 0.146627
H31   H     H_    0.251029 0.893546 0.162057 0.163371
H32   H     H_    0.270206 0.815112 0.123982 0.106525
H33   H     H_    0.718199 0.936963 0.754341 0.148241
H34   H     H_    0.491947 0.611797 0.953049 0.155353
H35   H     H_    0.645024 0.898588 0.790944 0.105556
H36   H     H_    0.732088 0.910138 0.821013 0.163742
H37   H     H_    0.822231 0.834430 0.140845 0.146744
H38   H     H_    0.729351 0.815504 0.124114 0.106310
H39   H     H_    0.748699 0.893812 0.162271 0.163357
H40   H     H_    0.781821 0.436957 0.254479 0.148283
H41   H     H_    0.767821 0.410046 0.321124 0.163728
H42   H     H_    0.854930 0.398524 0.291117 0.105528
H43   H     H_    0.677339 0.334080 0.640863 0.146618
H44   H     H_    0.750990 0.393508 0.662023 0.163386
H45   H     H_    0.013396 0.946072 0.538890 0.106337
H46   H     H_    0.770140 0.315055 0.623961 0.106371
H47   H     H_    0.218194 0.436963 0.254365 0.148213
H48   H     H_    0.145031 0.398577 0.290974 0.105537
H49   H     H_    0.232103 0.410122 0.321032 0.163727
H50   H     H_    0.322820 0.333950 0.640871 0.146556
H51   H     H_    0.230049 0.314885 0.623903 0.106558
H52   H     H_    0.249125 0.393395 0.661929 0.163381
H53   H     H_    0.877631 0.276959 0.280613 0.131459
H54   H     H_    0.831483 0.231544 0.673161 0.133176
H55   H     H_    0.122338 0.276991 0.280537 0.131374
H56   H     H_    0.986645 0.946045 0.461128 0.105252
H57   H     H_    0.168611 0.231452 0.673121 0.133491
H58   H     H_    0.377664 0.776993 0.780531 0.131372
H59   H     H_    0.331516 0.731576 0.173174 0.133532
H60   H     H_    0.622333 0.776997 0.780523 0.131427
H61   H     H_    0.668254 0.731799 0.173269 0.133267
H62   H     H_    0.486603 0.446072 0.038889 0.106333
H63   H     H_    0.513355 0.446045 0.961129 0.105248
H64   H     H_    0.720507 0.129164 0.215720 0.135023
O1    O     O_3   1.000000 0.000000 0.250030 -0.431691
O2    O     O_R   0.585480 0.353820 0.219950 -0.547179
O3    O     O_R   0.414520 0.353820 0.780050 -0.546688
O4    O     O_R   0.414520 0.353820 0.219950 -0.547556
O5    O     O_R   0.914530 0.146170 0.280090 -0.549555
O6    O     O_R   0.914530 0.146170 0.719910 -0.547089
O7    O     O_R   0.085470 0.146170 0.280090 -0.549795
O8    O     O_R   0.085470 0.146170 0.719910 -0.546880
O9    O     O_R   0.414530 0.646170 0.780090 -0.549794
O10   O     O_R   0.414530 0.646170 0.219910 -0.546912
O11   O     O_R   0.585470 0.646170 0.780090 -0.549542
O12   O     O_3   1.000000 0.000000 0.749970 -0.431622
O13   O     O_R   0.585470 0.646170 0.219910 -0.547136
O14   O     O_R   0.146180 0.085440 0.219990 -0.546172
O15   O     O_R   0.146180 0.085440 0.780010 -0.551157
O16   O     O_R   0.853820 0.085440 0.219990 -0.546253
O17   O     O_R   0.853820 0.085440 0.780010 -0.551116
O18   O     O_R   0.646180 0.585440 0.719990 -0.546225
O19   O     O_R   0.646180 0.585440 0.280010 -0.551133
O20   O     O_R   0.353820 0.585440 0.719990 -0.546161
O21   O     O_R   0.353820 0.585440 0.280010 -0.551164
O22   O     O_R   0.853820 0.914550 0.219980 -0.553705
O23   O     O_3   0.500000 0.500000 0.750030 -0.431706
O24   O     O_R   0.853820 0.914550 0.780020 -0.552640
O25   O     O_R   0.146180 0.914550 0.219980 -0.553658
O26   O     O_R   0.146180 0.914550 0.780020 -0.552630
O27   O     O_R   0.353820 0.414550 0.719980 -0.553637
O28   O     O_R   0.353820 0.414550 0.280020 -0.552633
O29   O     O_R   0.646180 0.414550 0.719980 -0.553666
O30   O     O_R   0.646180 0.414550 0.280020 -0.552662
O31   O     O_R   0.060720 0.999990 0.135450 -0.549967
O32   O     O_R   0.060720 0.999990 0.864550 -0.547279
O33   O     O_R   0.939280 0.999990 0.135450 -0.549956
O34   O     O_3   0.500000 0.500000 0.249970 -0.431610
O35   O     O_R   0.939280 0.999990 0.864550 -0.547286
O36   O     O_R   0.560720 0.499990 0.635450 -0.549954
O37   O     O_R   0.560720 0.499990 0.364550 -0.547290
O38   O     O_R   0.439280 0.499990 0.635450 -0.549971
O39   O     O_R   0.439280 0.499990 0.364550 -0.547276
O40   O     O_R   1.000000 0.939270 0.364600 -0.542662
O41   O     O_R   1.000000 0.939270 0.635400 -0.540274
O42   O     O_R   0.500000 0.439270 0.864600 -0.542669
O43   O     O_R   0.500000 0.439270 0.135400 -0.540277
O44   O     O_R   1.000000 0.060730 0.364620 -0.539900
O45   O     O_R   0.085480 0.853820 0.280050 -0.546704
O46   O     O_R   1.000000 0.060730 0.635380 -0.544792
O47   O     O_R   0.500000 0.560730 0.864620 -0.539896
O48   O     O_R   0.500000 0.560730 0.135380 -0.544786
O49   O     O_R   0.085480 0.853820 0.719950 -0.547555
O50   O     O_R   0.914520 0.853820 0.280050 -0.547060
O51   O     O_R   0.914520 0.853820 0.719950 -0.547172
O52   O     O_R   0.585480 0.353820 0.780050 -0.547039
Zn1   Zn    Zn3+2 1.000000 0.086760 0.292960 0.932539
Zn2   Zn    Zn3+2 0.586770 0.499990 0.292890 0.923228
Zn3   Zn    Zn3+2 0.413230 0.499990 0.707110 0.922563
Zn4   Zn    Zn3+2 0.413230 0.499990 0.292890 0.923087
Zn5   Zn    Zn3+2 1.000000 0.913240 0.292940 0.934116
Zn6   Zn    Zn3+2 1.000000 0.913240 0.707060 0.934352
Zn7   Zn    Zn3+2 0.500000 0.413240 0.792940 0.934115
Zn8   Zn    Zn3+2 0.500000 0.413240 0.207060 0.934353
Zn9   Zn    Zn3+2 1.000000 0.086760 0.707040 0.930312
Zn10  Zn    Zn3+2 0.500000 0.586760 0.792960 0.932541
Zn11  Zn    Zn3+2 0.500000 0.586760 0.207040 0.930297
Zn12  Zn    Zn3+2 0.086770 0.999990 0.207110 0.922558
Zn13  Zn    Zn3+2 0.086770 0.999990 0.792890 0.923086
Zn14  Zn    Zn3+2 0.913230 0.999990 0.207110 0.922390
Zn15  Zn    Zn3+2 0.913230 0.999990 0.792890 0.923237
Zn16  Zn    Zn3+2 0.586770 0.499990 0.707110 0.922413

loop_
_geom_bond_atom_site_label_1
_geom_bond_atom_site_label_2
_ccdc_geom_bond_type
C78   C87   A    
O5    Zn1   S    
C71   H4    S    
C43   O14   A    
C23   C45   S    
O21   Zn4   S    
O40   Zn5   S    
O45   Zn5   S    
O12   Zn6   S    
C41   O16   A    
C72   C76   A    
C5    C18   A    
O1    Zn5   S    
O30   Zn2   S    
C4    C87   A    
O23   Zn3   S    
O33   Zn14  S    
C7    C11   A    
C83   C92   A    
C29   H19   S    
O16   Zn14  S    
C3    H52   S    
C53   O39   A    
O11   Zn10  S    
C57   C89   S    
O39   Zn4   S    
C10   H53   S    
C17   C26   A    
C6    C98   S    
C99   H43   S    
C2    C95   S    
C25   C73   A    
C100  H48   S    
O37   Zn2   S    
C21   C70   A    
C51   O32   A    
C30   C31   A    
C37   C51   S    
C18   H61   S    
C56   C66   S    
C69   H2    S    
O13   Zn11  S    
C100  H47   S    
O41   Zn6   S    
C16   C25   A    
C30   C38   A    
C24   O22   A    
C50   O31   A    
C13   O49   A    
C17   H60   S    
O35   Zn15  S    
C69   C82   A    
C42   O6    A    
C11   H54   S    
C74   H7    S    
C4    C96   S    
O48   Zn11  S    
C35   C87   S    
C67   H64   S    
O20   Zn3   S    
C22   C44   S    
C84   H17   S    
O47   Zn10  S    
C55   C63   S    
C65   H62   S    
C33   H24   S    
C19   C67   A    
C78   H11   S    
C8    C92   A    
C79   O4    A    
C47   O21   A    
O24   Zn15  S    
C2    C16   A    
C75   C80   A    
O42   Zn7   S    
O14   Zn12  S    
C61   C62   S    
C51   O35   A    
O1    Zn1   S    
C48   O11   A    
C81   C89   A    
C39   C53   S    
C15   C23   A    
O43   Zn8   S    
C21   C43   S    
C98   H42   S    
C16   H59   S    
C95   H31   S    
C5    C88   A    
O34   Zn2   S    
C24   O50   A    
O4    Zn8   S    
C27   C75   A    
C83   H16   S    
C44   O15   A    
C97   H37   S    
C50   O33   A    
C90   C94   S    
C96   H35   S    
C49   O13   A    
C42   O17   A    
C55   O41   A    
C36   H26   S    
C11   C20   A    
C94   H29   S    
C22   C71   A    
C62   C66   D    
C14   H57   S    
C1    O45   A    
C59   H1    S    
C32   H22   S    
C99   H44   S    
C31   H21   S    
C15   H58   S    
C96   H36   S    
O27   Zn3   S    
C61   H23   S    
O23   Zn10  S    
C43   O7    A    
C70   H3    S    
C76   H9    S    
C57   O2    A    
C68   O27   A    
C13   C85   S    
C40   C52   S    
O12   Zn15  S    
C41   O5    A    
C12   C21   A    
O1    Zn12  S    
C53   O37   A    
C82   C91   A    
C31   C37   A    
C98   H40   S    
C57   O30   A    
O38   Zn3   S    
C81   H14   S    
O34   Zn8   S    
C9    C14   A    
C44   O8    A    
C59   C60   S    
C60   H12   S    
O50   Zn5   S    
C45   O9    A    
C95   H30   S    
O49   Zn6   S    
C58   C65   S    
C28   C38   A    
C10   C19   A    
C8    C12   A    
C7    C91   A    
O23   Zn7   S    
O12   Zn9   S    
C19   C41   S    
C33   C39   A    
C80   H13   S    
C3    C9    S    
C24   C88   S    
O8    Zn9   S    
O3    Zn7   S    
C79   C92   S    
O7    Zn1   S    
C7    C99   S    
C56   O47   A    
O22   Zn14  S    
O23   Zn16  S    
O31   Zn12  S    
O18   Zn16  S    
C58   O48   A    
C99   H46   S    
C5    C97   S    
C77   C86   A    
C67   C81   A    
O19   Zn2   S    
C46   O52   A    
C79   O28   A    
C98   H41   S    
C74   C78   A    
O1    Zn14  S    
O46   Zn9   S    
C34   C40   A    
C20   C69   A    
O25   Zn12  S    
O15   Zn13  S    
C4    C17   A    
C12   H55   S    
O2    Zn8   S    
O51   Zn6   S    
C9    C93   A    
C97   H38   S    
O34   Zn11  S    
C46   O29   A    
C71   C84   A    
C1    C86   S    
C25   C47   S    
C28   C29   A    
C3    H50   S    
C94   H28   S    
C59   C63   D    
C23   C72   A    
C36   C39   A    
O34   Zn4   S    
C18   C27   A    
C3    H51   S    
C95   H32   S    
C6    C10   A    
C20   C42   S    
C85   C90   A    
O10   Zn11  S    
C96   H33   S    
C46   C91   S    
C26   C48   S    
C100  H49   S    
C6    C89   A    
C64   H56   S    
C54   O44   A    
C68   C93   S    
C38   C50   S    
C60   C64   D    
C82   H15   S    
O9    Zn10  S    
O26   Zn13  S    
C32   C33   A    
C62   H34   S    
C8    C100  S    
O52   Zn7   S    
O44   Zn1   S    
C80   C88   A    
C49   O19   A    
C52   O36   A    
C15   C90   A    
C48   O18   A    
C14   C22   A    
C73   H6    S    
C70   C83   A    
C30   H20   S    
C58   O43   A    
O17   Zn15  S    
C34   H25   S    
C54   O40   A    
O12   Zn13  S    
C26   C74   A    
C34   C36   A    
C97   H39   S    
C66   H63   S    
C2    C86   A    
C52   O38   A    
C84   C93   A    
C32   C40   A    
C94   H27   S    
C77   H10   S    
C47   O10   A    
C13   O26   A    
C68   O3    A    
C61   C65   D    
C75   H8    S    
C56   O42   A    
O32   Zn13  S    
C54   C64   S    
C73   C77   A    
C35   O24   A    
O6    Zn9   S    
C29   C37   A    
O28   Zn4   S    
C72   H5    S    
C28   H18   S    
O36   Zn16  S    
O29   Zn16  S    
C35   O51   A    
C76   C85   A    
C63   H45   S    
C27   C49   S    
C45   O20   A    
C55   O46   A    
C1    O25   A    
