data_mof_unit_56230.cif
_audit_creation_date              2013-03-05T16:11:29-0500
_audit_creation_method            fapswitch 2.2
_symmetry_space_group_name_H-M    P1
_symmetry_Int_Tables_number       1
_space_group_crystal_system       triclinic
_cell_length_a                    9.497958
_cell_length_b                    10.793438
_cell_length_c                    17.224536
_cell_angle_alpha                 90.11195
_cell_angle_beta                  83.701682
_cell_angle_gamma                 89.488443
_cell_volume                      1755.048442

loop_
_atom_site_label
_atom_site_type_symbol
_atom_site_description
_atom_site_fract_x
_atom_site_fract_y
_atom_site_fract_z
_atom_type_partial_charge
O1    O     O_R   0.379740 0.682430 0.499960 -0.609660
O2    O     O_R   0.620260 0.682190 0.500020 -0.579010
C1    C     C_R   0.498913 0.739667 0.500653 0.780600
O3    O     O_R   0.365800 0.500150 0.613560 -0.587243
O4    O     O_R   0.606310 0.499910 0.613620 -0.605256
C2    C     C_R   0.479043 0.497952 0.650057 0.784262
Cu1   Cu    Cu3+1 0.357600 0.500140 0.499960 0.896561
Cu2   Cu    Cu3+1 0.642400 0.499860 0.500040 0.940623
O5    O     O_R   0.379740 0.317810 0.499980 -0.607662
O6    O     O_R   0.620260 0.317570 0.500040 -0.592194
O7    O     O_R   0.393690 0.500090 0.386380 -0.599752
O8    O     O_R   0.634200 0.499850 0.386440 -0.516607
C3    C     C_R   0.501158 0.259835 0.495522 0.742650
C4    C     C_R   0.520937 0.498992 0.349989 0.833106
C5    C     C_R   0.463530 0.487305 0.735074 -0.025086
C6    C     C_R   0.570076 0.428049 0.771814 -0.190343
C7    C     C_R   0.555949 0.415698 0.852521 -0.155920
C8    C     C_R   0.436090 0.464083 0.897710 0.072195
C9    C     C_R   0.329361 0.523226 0.861083 -0.094074
C10   C     C_R   0.342540 0.533862 0.780012 -0.209379
C11   C     C_R   0.451481 0.582495 0.147759 -0.117108
C12   C     C_R   0.448142 0.581095 0.228291 -0.204660
C13   C     C_R   0.630589 0.419067 0.219035 0.067538
C14   C     C_R   0.637928 0.424678 0.136748 0.385982
C15   C     C_R   0.543786 0.503520 0.102062 0.062462
C16   C     C_2   0.427217 0.458040 0.983503 0.290716
C17   C     C_2   0.538194 0.502225 0.017620 -0.267428
C18   C     C_R   0.535762 0.499683 0.264589 -0.055479
H1    H     H_    0.663570 0.390023 0.738101 0.141311
H2    H     H_    0.375248 0.642915 0.262660 0.159166
H3    H     H_    0.630280 0.538119 0.981910 0.153848
H4    H     H_    0.237671 0.563560 0.895165 0.165061
H5    H     H_    0.380505 0.644166 0.120830 0.169500
H6    H     H_    0.260119 0.580963 0.752752 0.146336
H7    H     H_    0.639076 0.369155 0.879900 0.180830
C19   C     C_3   0.343892 0.928824 0.498034 -0.378134
H8    H     H_    0.280527 0.906967 0.554565 0.149368
H9    H     H_    0.290342 0.882195 0.451715 0.184829
C20   C     C_3   0.346755 0.070762 0.486052 -0.019422
H10   H     H_    0.272405 0.112568 0.533715 0.157686
H11   H     H_    0.501793 0.891924 0.625522 0.157707
H12   H     H_    0.465954 0.101702 0.620642 0.155778
C21   C     C_3   0.558999 0.929972 0.571008 -0.399536
C22   C     C_3   0.587469 0.920856 0.423712 -0.323689
C23   C     C_3   0.496931 0.877080 0.498568 0.077728
H13   H     H_    0.693101 0.875383 0.420421 0.225349
H14   H     H_    0.538183 0.890295 0.371227 0.147779
C24   C     C_3   0.500953 0.120679 0.493127 0.145260
C25   C     C_3   0.546300 0.072505 0.571930 -0.412685
C26   C     C_3   0.602433 0.063762 0.423187 0.017802
H15   H     H_    0.569280 0.099085 0.367349 0.155225
H16   H     H_    0.672405 0.902282 0.569820 0.178508
H17   H     H_    0.648326 0.113386 0.584652 0.178249
C27   C     C_3   0.924052 0.382716 0.465930 -0.227903
H18   H     H_    0.892572 0.365328 0.407054 0.198319
H19   H     H_    0.884705 0.303140 0.502782 0.149229
C28   C     C_3   0.090876 0.383891 0.461676 -0.237106
H20   H     H_    0.125998 0.298878 0.490077 0.164293
H21   H     H_    0.137428 0.377236 0.399630 0.190444
H22   H     H_    0.147883 0.596230 0.391485 0.201011
C29   C     C_3   0.927794 0.605575 0.452860 0.326516
C30   C     C_3   0.896356 0.509983 0.578312 -0.258229
N1    N     N_3   0.856560 0.499750 0.498270 -0.196033
H23   H     H_    0.846015 0.595276 0.605730 0.154398
H24   H     H_    0.844369 0.434559 0.614337 0.169284
N2    N     N_3   0.143860 0.496700 0.498910 -0.144959
C31   C     C_3   0.094842 0.601715 0.452200 -0.263040
C32   C     C_3   0.063443 0.507230 0.580897 0.495917
H25   H     H_    0.890283 0.693902 0.482108 0.066355
H26   H     H_    0.130758 0.691522 0.473714 0.128911
N3    N     N_R   0.735657 0.346452 0.088863 0.114717
O9    O     O_R   0.691413 0.275952 0.035356 -0.345807
O10   O     O_R   0.869251 0.344341 0.099341 -0.284009
C33   C     C_3   0.288779 0.103365 0.407807 -0.892558
H27   H     H_    0.172266 0.089851 0.413682 0.235751
H28   H     H_    0.310533 0.200372 0.389932 0.248273
H29   H     H_    0.336048 0.042764 0.359492 0.246106
C34   C     C_3   0.759925 0.096895 0.421325 -0.898277
H30   H     H_    0.774424 0.195162 0.407810 0.236651
H31   H     H_    0.803374 0.073847 0.476733 0.239697
H32   H     H_    0.823410 0.046100 0.373155 0.253790
N4    N     N_R   0.890646 0.610666 0.372204 0.146366
O11   O     O_R   0.947039 0.533446 0.319298 -0.386740
O12   O     O_R   0.821394 0.705940 0.349521 -0.391319
C35   C     C_3   0.711624 0.318321 0.256308 -0.720516
H33   H     H_    0.665243 0.298701 0.316557 0.183819
H34   H     H_    0.706432 0.229790 0.223831 0.243912
H35   H     H_    0.823991 0.344992 0.256560 0.290120
C36   C     C_3   0.096406 0.393181 0.632599 -0.777500
H36   H     H_    0.201211 0.350789 0.616314 0.263688
H37   H     H_    0.085315 0.416664 0.695778 0.220303
H38   H     H_    0.024064 0.314714 0.625398 0.159812
C37   C     C_3   0.097230 0.630692 0.622846 -0.827118
H39   H     H_    0.041765 0.711179 0.599517 0.165679
H40   H     H_    0.058625 0.627035 0.686021 0.201195
H41   H     H_    0.208958 0.657239 0.616507 0.271072
N5    N     N_R   0.305177 0.401873 0.027193 0.153615
O13   O     O_R   0.190994 0.382449 0.993722 -0.311714
O14   O     O_R   0.314301 0.351943 0.095197 -0.310103

loop_
_geom_bond_atom_site_label_1
_geom_bond_atom_site_label_2
_geom_bond_distance
_ccdc_geom_bond_type
N2    C32   1.533545 S    
C37   H39   1.110556 S    
C9    C10   1.393317 A    
C8    C16   1.472491 S    
C28   N2    1.491915 S    
N5    O13   1.301250 A    
Cu1   Cu2   2.705146 S    
C35   H33   1.103662 S    
Cu1   O7    1.948771 S    
C16   C17   1.351894 D    
C33   H28   1.106780 S    
C19   H8    1.113942 S    
C29   N4    1.471427 S    
O4    C2    1.299822 A    
O7    C4    1.298935 A    
C34   H31   1.108385 S    
C21   H16   1.113259 S    
C28   H21   1.112770 S    
C11   H5    1.083728 S    
C27   N1    1.490414 S    
C22   C26   1.550193 S    
C5    C6    1.401468 A    
C8    C9    1.401232 A    
C20   C33   1.550693 S    
C29   N1    1.508437 S    
O5    C3    1.301873 A    
C30   H23   1.113573 S    
C2    C5    1.460455 S    
H22   C31   1.111113 S    
C6    C7    1.388664 A    
C33   H29   1.110231 S    
C13   C14   1.412847 A    
C36   H37   1.110355 S    
C22   H14   1.113393 S    
C10   H6    1.079924 S    
C24   C26   1.577796 S    
N2    C31   1.491703 S    
C37   H40   1.110383 S    
C12   C18   1.399597 A    
C11   C12   1.384116 A    
H11   C21   1.113155 S    
O3    Cu1   1.966777 S    
C9    H4    1.082873 S    
C26   C34   1.538037 S    
N5    O14   1.301491 A    
C22   H13   1.108748 S    
C32   C36   1.570024 S    
C35   H34   1.110514 S    
C5    C10   1.401867 A    
C27   H19   1.111811 S    
C33   H27   1.111098 S    
C17   H3    1.087359 S    
C14   C15   1.409337 A    
O3    C2    1.304068 A    
C20   H10   1.114425 S    
N3    O10   1.301101 A    
C34   H30   1.093002 S    
C21   C25   1.541978 S    
H12   C25   1.113482 S    
C26   H15   1.111428 S    
C6    H1    1.083343 S    
C1    C23   1.483671 S    
O1    C1    1.295537 A    
C30   N1    1.473209 S    
O4    Cu2   1.948773 S    
C29   C31   1.585580 S    
Cu2   O8    1.966774 S    
C7    C8    1.402835 A    
C19   C23   1.553474 S    
C13   C18   1.418538 A    
C36   H38   1.110615 S    
C21   C23   1.547555 S    
C24   C25   1.557341 S    
O8    C4    1.303805 A    
C16   N5    1.449263 S    
C37   H41   1.095572 S    
N4    O12   1.299475 A    
C22   C23   1.546459 S    
C35   H35   1.108345 S    
C29   H25   1.114568 S    
Cu1   O5    1.977308 S    
C11   C15   1.395494 A    
C27   H18   1.104452 S    
C12   H2    1.084110 S    
C30   H24   1.110629 S    
O1    Cu1   1.980607 S    
C19   C20   1.546321 S    
O2    Cu2   1.977309 S    
O6    C3    1.306052 A    
C3    C24   1.502484 S    
C15   C17   1.461297 S    
C32   C37   1.567028 S    
C30   C32   1.592501 S    
C31   H26   1.107030 S    
C19   H9    1.113798 S    
O2    C1    1.302996 A    
N3    O9    1.301147 A    
Cu1   N2    2.032827 S    
C34   H32   1.111369 S    
C28   H20   1.106641 S    
C25   H17   1.111570 S    
Cu2   N1    2.030954 S    
Cu2   O6    1.980607 S    
N4    O11   1.301510 A    
C13   C35   1.511036 S    
C7    H7    1.083362 S    
C4    C18   1.462281 S    
C36   H36   1.099552 S    
C14   N3    1.438775 S    
C20   C24   1.582108 S    
C27   C28   1.578293 S    
