data_mof_unit_40809.cif
_audit_creation_date              2012-12-10T18:10:18-0500
_audit_creation_method            fapswitch 2.2
_symmetry_space_group_name_H-M    P1
_symmetry_Int_Tables_number       1
_space_group_crystal_system       triclinic
_cell_length_a                    10.729735
_cell_length_b                    9.617982
_cell_length_c                    15.826983
_cell_angle_alpha                 88.031087
_cell_angle_beta                  89.506902
_cell_angle_gamma                 90.132037
_cell_volume                      1632.28902992

loop_
_atom_site_label
_atom_site_type_symbol
_atom_type_description
_atom_site_fract_x
_atom_site_fract_y
_atom_site_fract_z
_atom_type_partial_charge
C1    C     C_R   0.260487 0.499886 0.502283 0.825994
C2    C     C_3   0.648042 0.565979 0.946736 0.372000
C3    C     C_3   0.640326 0.587494 0.048100 0.363005
C4    C     C_1   0.509800 0.496440 0.824078 -0.127442
C5    C     C_1   0.509692 0.509136 0.175681 -0.056273
C6    C     C_1   0.504227 0.506595 0.251244 -0.197245
C7    C     C_3   0.070088 0.639160 0.541051 -0.159508
C8    C     C_3   0.068646 0.372058 0.557653 -0.187065
C9    C     C_3   0.926898 0.642401 0.532770 -0.474663
C10   C     C_3   0.925435 0.383954 0.565085 -0.484028
C11   C     C_3   0.071544 0.489726 0.408206 0.351419
C12   C     C_3   0.121793 0.500083 0.503025 0.026487
C13   C     C_3   0.877144 0.500327 0.503269 0.107608
C14   C     C_R   0.500030 0.502037 0.340813 0.801404
C15   C     C_3   0.926515 0.474658 0.412857 -0.363364
C16   C     C_3   0.616314 0.085066 0.460454 0.169515
C17   C     C_3   0.609401 0.919398 0.452285 0.165908
C18   C     C_3   0.494531 0.074198 0.590797 0.101209
C19   C     C_3   0.512498 0.908754 0.589516 0.114141
C20   C     C_3   0.391973 0.084389 0.456356 -0.270020
C21   C     C_3   0.384459 0.919847 0.465885 -0.281794
C22   C     C_R   0.739168 0.500066 0.502211 0.757549
C23   C     C_R   0.500079 0.498099 0.659241 0.866831
C24   C     C_3   0.399579 0.585141 0.047373 -0.415490
C25   C     C_3   0.513684 0.357555 0.054207 -0.417482
C26   C     C_3   0.493836 0.352951 0.957427 -0.168730
C27   C     C_3   0.402955 0.590509 0.948850 -0.187119
C28   C     C_1   0.504458 0.494747 0.748687 -0.185373
C29   C     C_3   0.517625 0.510881 0.083196 0.180880
C30   C     C_3   0.516998 0.502943 0.916434 0.099027
Cu1   Cu    Cu3+1 0.499860 0.642410 0.500040 0.913882
Cu2   Cu    Cu3+1 0.499860 0.357590 0.500040 0.920369
H1    H     H_    0.316269 0.537818 0.928265 0.128238
H2    H     H_    0.394099 0.325374 0.947931 0.161205
H3    H     H_    0.900770 0.726403 0.486125 0.171143
H4    H     H_    0.883520 0.281523 0.550730 0.176058
H5    H     H_    0.880445 0.547707 0.366796 0.141728
H6    H     H_    0.896830 0.368650 0.395075 0.152365
H7    H     H_    0.695955 0.105102 0.502987 0.107815
H8    H     H_    0.697591 0.880185 0.480186 0.125907
H9    H     H_    0.303659 0.127754 0.481121 0.174574
H10   H     H_    0.303614 0.891523 0.507519 0.174178
H11   H     H_    0.395731 0.116427 0.388302 0.171441
H12   H     H_    0.362345 0.874851 0.404195 0.166703
H13   H     H_    0.398074 0.089853 0.615484 0.179655
H14   H     H_    0.435339 0.862548 0.628743 0.195568
H15   H     H_    0.315320 0.525530 0.069002 0.161945
H16   H     H_    0.435431 0.300458 0.086684 0.184991
H17   H     H_    0.599363 0.300959 0.073296 0.192863
H18   H     H_    0.387613 0.688962 0.074742 0.221677
H19   H     H_    0.107479 0.730512 0.504120 0.166360
H20   H     H_    0.088236 0.275386 0.524003 0.174527
H21   H     H_    0.880950 0.668542 0.593493 0.152825
H22   H     H_    0.895721 0.407787 0.630619 0.150249
N1    N     N_3   0.500250 0.143650 0.501830 -0.137350
N2    N     N_3   0.500250 0.856350 0.501830 -0.144306
O1    O     O_R   0.317570 0.620260 0.500050 -0.566631
O2    O     O_R   0.317570 0.379740 0.500050 -0.569470
O3    O     O_R   0.499890 0.620310 0.379470 -0.583545
O4    O     O_R   0.499890 0.379690 0.379470 -0.582780
O5    O     O_R   0.682190 0.620260 0.500020 -0.614806
O6    O     O_R   0.682190 0.379740 0.500020 -0.607314
O7    O     O_R   0.499870 0.620210 0.620600 -0.567840
O8    O     O_R   0.499870 0.379790 0.620600 -0.563633
C31   C     C_3   0.105443 0.621137 0.352245 -0.872312
H23   H     H_    0.079335 0.606142 0.285334 0.234652
H24   H     H_    0.054328 0.714991 0.371579 0.209946
H25   H     H_    0.207037 0.642845 0.353233 0.231046
C32   C     C_3   0.126077 0.364157 0.360418 -0.869807
H26   H     H_    0.103926 0.262118 0.391317 0.203651
H27   H     H_    0.085918 0.360986 0.295985 0.229894
H28   H     H_    0.228610 0.373262 0.352250 0.240798
C33   C     C_3   0.658891 0.158210 0.376004 -0.773454
H29   H     H_    0.590040 0.145434 0.324904 0.234737
H30   H     H_    0.684560 0.267588 0.379184 0.260045
H31   H     H_    0.750509 0.116065 0.356680 0.165577
C34   C     C_3   0.621757 0.866029 0.360732 -0.780943
H32   H     H_    0.532858 0.869097 0.325771 0.235660
H33   H     H_    0.691471 0.920990 0.320533 0.184718
H34   H     H_    0.664605 0.761720 0.362257 0.246643
C35   C     C_3   0.578527 0.139354 0.659878 -0.760038
H35   H     H_    0.655264 0.203892 0.632049 0.241707
H36   H     H_    0.519588 0.194666 0.705752 0.239891
H37   H     H_    0.621376 0.068640 0.707180 0.201035
C36   C     C_3   0.636119 0.857620 0.633125 -0.850217
H38   H     H_    0.671407 0.758081 0.612864 0.272624
H39   H     H_    0.715410 0.929658 0.619732 0.197463
H40   H     H_    0.621376 0.843882 0.702495 0.219115
C37   C     C_2   0.562416 0.233276 0.918067 0.365525
H41   H     H_    0.612703 0.247679 0.858696 0.080281
O9    O     O_2   0.556533 0.116472 0.950721 -0.526851
C38   C     C_2   0.389813 0.735002 0.908368 0.372207
H42   H     H_    0.400920 0.749403 0.840407 0.108151
O10   O     O_2   0.362541 0.835710 0.949582 -0.526600
C39   C     C_3   0.635741 0.744509 0.071105 -0.810415
H43   H     H_    0.561232 0.803289 0.038331 0.272880
H44   H     H_    0.620065 0.755923 0.140008 0.222833
H45   H     H_    0.725239 0.797878 0.055167 0.237393
C40   C     C_3   0.758019 0.531513 0.096195 -0.861208
H46   H     H_    0.753647 0.555477 0.164355 0.228754
H47   H     H_    0.770151 0.417693 0.093672 0.217073
H48   H     H_    0.843970 0.582488 0.070559 0.234097
C41   C     C_3   0.682474 0.703415 0.895794 -0.836052
H49   H     H_    0.689677 0.685687 0.826953 0.223041
H50   H     H_    0.616149 0.789226 0.903562 0.248803
H51   H     H_    0.774919 0.742651 0.915444 0.234114
C42   C     C_3   0.756330 0.465779 0.922359 -0.860973
H52   H     H_    0.753338 0.442109 0.854204 0.218350
H53   H     H_    0.849090 0.513425 0.932825 0.235522
H54   H     H_    0.754792 0.366192 0.959204 0.223906
C43   C     C_2   0.108239 0.663731 0.631350 0.319017
H55   H     H_    0.046375 0.635275 0.683763 0.070297
O11   O     O_2   0.208537 0.717104 0.646579 -0.561090
C44   C     C_2   0.127178 0.348317 0.643837 0.360583
H56   H     H_    0.099335 0.408617 0.697222 0.068048
O12   O     O_2   0.204049 0.256345 0.655230 -0.556091

loop_
_geom_bond_atom_site_label_1
_geom_bond_atom_site_label_2
_ccdc_geom_bond_type
C19   N2    S    
C33   H30   S    
C33   H29   S    
Cu1   O5    S    
C39   H43   S    
C24   C27   S    
Cu2   O2    S    
C35   H37   S    
C44   H56   S    
C39   H45   S    
C34   H32   S    
C27   H1    S    
C26   C37   S    
C14   O3    A    
C5    C6    T    
C36   H40   S    
C6    C14   S    
C2    C42   S    
C18   C35   S    
C32   H27   S    
C18   C19   S    
Cu1   O3    S    
C3    C29   S    
C9    C13   S    
C24   C29   S    
C15   H5    S    
C4    C28   T    
C11   C15   S    
C26   H2    S    
Cu1   Cu2   S    
C16   C17   S    
C31   H24   S    
C42   H52   S    
Cu1   N2    S    
C37   O9    D    
C8    H20   S    
Cu2   N1    S    
C8    C44   S    
C23   O7    A    
C27   C30   S    
C24   H18   S    
C42   H53   S    
C1    C12   S    
C20   N1    S    
C17   C34   S    
C35   H36   S    
C20   H9    S    
C5    C29   S    
C36   H39   S    
C25   C29   S    
C7    C12   S    
C19   H14   S    
C16   C33   S    
Cu1   O7    S    
Cu2   O8    S    
C43   O11   D    
C25   C26   S    
C36   H38   S    
C35   H35   S    
C10   H4    S    
C17   H8    S    
C32   H28   S    
C15   H6    S    
C1    O1    A    
C22   O6    A    
C21   H12   S    
C40   H46   S    
C17   N2    S    
C8    C12   S    
C31   H25   S    
C38   O10   D    
C34   H33   S    
C27   C38   S    
C41   H50   S    
C23   C28   S    
C25   H16   S    
C18   N1    S    
C23   O8    A    
C40   H47   S    
C26   C30   S    
C13   C15   S    
C42   H54   S    
C9    H21   S    
Cu2   O4    S    
C18   H13   S    
C20   H11   S    
C34   H34   S    
C7    C9    S    
C39   H44   S    
C43   H55   S    
C24   H15   S    
C19   C36   S    
C10   C13   S    
C21   N2    S    
C44   O12   D    
C11   C12   S    
C11   C32   S    
C14   O4    A    
C2    C30   S    
Cu1   O1    S    
C2    C3    S    
C16   N1    S    
Cu2   O6    S    
C1    O2    A    
C22   O5    A    
C2    C41   S    
C38   H42   S    
C33   H31   S    
C7    C43   S    
C13   C22   S    
C41   H51   S    
C32   H26   S    
C10   H22   S    
C25   H17   S    
C16   H7    S    
C7    H19   S    
C21   H10   S    
C3    C40   S    
C40   H48   S    
C20   C21   S    
C8    C10   S    
C31   H23   S    
C41   H49   S    
C9    H3    S    
C3    C39   S    
C37   H41   S    
C4    C30   S    
C11   C31   S    
