data_mof_unit_50927.cif
_audit_creation_date              2012-12-11T14:49:27-0500
_audit_creation_method            fapswitch 2.2
_symmetry_space_group_name_H-M    P1
_symmetry_Int_Tables_number       1
_space_group_crystal_system       triclinic
_cell_length_a                    16.888078
_cell_length_b                    16.740511
_cell_length_c                    19.551121
_cell_angle_alpha                 116.424158
_cell_angle_beta                  62.336557
_cell_angle_gamma                 100.309984
_cell_volume                      4381.43033138

loop_
_atom_site_label
_atom_site_type_symbol
_atom_type_description
_atom_site_fract_x
_atom_site_fract_y
_atom_site_fract_z
_atom_type_partial_charge
C1    C     C_R   0.023679 0.760474 0.025615 -0.100126
C2    C     C_R   0.740885 0.541079 0.249457 0.075244
C3    C     C_R   0.749191 0.450984 0.926105 0.099660
C4    C     C_R   0.038753 0.744852 0.243997 0.079931
C5    C     C_R   0.261801 0.539991 0.983055 0.269653
C6    C     C_R   0.977776 0.249035 0.830894 -0.140673
C7    C     C_R   0.153725 0.514412 0.761581 0.297559
C8    C     C_R   0.032705 0.309827 0.069070 -0.098623
C9    C     C_R   0.953080 0.243538 0.996876 -0.123857
C10   C     C_R   0.236804 0.578228 0.832320 -0.174862
C11   C     C_R   0.194476 0.460691 0.060687 0.129157
C12   C     C_R   0.748594 0.479731 0.169867 -0.123883
C13   C     C_R   0.048009 0.327612 0.753616 -0.128339
C14   C     C_R   0.278016 0.482691 0.009968 -0.002012
C15   C     C_R   0.037294 0.243161 0.751333 0.080945
C16   C     C_R   0.232962 0.558278 0.756702 0.029840
C17   C     C_R   0.997175 0.228535 0.034974 0.058324
C18   C     C_R   0.125802 0.121845 0.612827 0.219526
C19   C     C_R   0.044118 0.166194 0.677123 0.060796
C20   C     C_R   0.963956 0.142757 0.670738 -0.302838
C21   C     C_R   0.961325 0.074049 0.599332 0.090232
C22   C     C_R   0.042383 0.027623 0.532843 -0.046532
C23   C     C_R   0.820540 0.505105 0.907306 -0.135355
C24   C     C_R   0.124894 0.050780 0.539286 0.106064
C25   C     C_R   0.879633 0.051669 0.592799 0.282163
C26   C     C_R   0.879856 0.982867 0.519097 -0.185327
C27   C     C_R   0.959248 0.935997 0.452509 0.002245
C28   C     C_R   0.040989 0.958237 0.459616 0.026202
C29   C     C_R   0.121497 0.910992 0.393184 0.161701
C30   C     C_R   0.202148 0.933201 0.399534 -0.190670
C31   C     C_R   0.204073 0.002653 0.471777 -0.186380
C32   C     C_R   0.958976 0.866597 0.378870 0.143697
C33   C     C_R   0.039455 0.819512 0.315862 0.038784
C34   C     C_R   0.003685 0.664074 0.242747 0.315834
C35   C     C_R   0.119955 0.841271 0.321416 -0.286237
C36   C     C_R   0.364627 0.644060 0.696631 -0.231712
C37   C     C_R   0.296080 0.585028 0.687797 0.116072
C38   C     C_R   0.292497 0.543982 0.609217 -0.243241
C39   C     C_R   0.354296 0.561243 0.539948 0.077201
C40   C     C_R   0.427744 0.613525 0.547223 -0.010814
C41   C     C_R   0.432364 0.656089 0.625965 0.152413
C42   C     C_R   0.348088 0.522068 0.461746 0.265881
C43   C     C_R   0.419909 0.528147 0.390067 -0.215491
C44   C     C_R   0.497744 0.569655 0.394971 0.075748
C45   C     C_R   0.752155 0.427759 0.984464 -0.137781
C46   C     C_R   0.500673 0.615767 0.474011 0.029881
C47   C     C_R   0.579749 0.656574 0.478531 0.139022
C48   C     C_R   0.581437 0.704301 0.557684 -0.180492
C49   C     C_R   0.507645 0.704827 0.631236 -0.178839
C50   C     C_R   0.575518 0.557074 0.320931 -0.215108
C51   C     C_R   0.657386 0.583921 0.324767 0.113941
C52   C     C_R   0.658000 0.640814 0.403427 -0.213586
C53   C     C_R   0.686735 0.419727 0.887139 0.031946
C54   C     C_R   0.365055 0.437179 0.973626 0.088300
C55   C     C_R   0.457459 0.335818 0.967666 0.214284
C56   C     C_R   0.066838 0.743973 0.166188 -0.172061
C57   C     C_R   0.373644 0.370885 0.995066 -0.186890
C58   C     C_R   0.439842 0.455253 0.911159 -0.203873
C59   C     C_R   0.524941 0.428704 0.888279 0.018128
C60   C     C_R   0.535565 0.370106 0.918753 0.016661
C61   C     C_R   0.622860 0.356216 0.904952 0.223637
C62   C     C_R   0.678990 0.466608 0.846534 -0.261413
C63   C     C_R   0.599693 0.467023 0.842283 0.215049
C64   C     C_R   0.812589 0.185267 0.173619 0.069380
C65   C     C_R   0.925765 0.862925 0.025458 0.119585
C66   C     C_R   0.831639 0.948809 0.016108 -0.178001
C67   C     C_R   0.825907 0.549606 0.245959 -0.118457
C68   C     C_R   0.872915 0.868180 0.989218 -0.170785
C69   C     C_R   0.938164 0.941380 0.088241 -0.195659
C70   C     C_R   0.897114 0.022970 0.115647 0.083262
C71   C     C_R   0.842204 0.027119 0.080098 0.124221
C72   C     C_R   0.799284 0.109430 0.110092 0.146682
C73   C     C_R   0.867686 0.181507 0.207741 0.229164
C74   C     C_R   0.909657 0.100338 0.178907 -0.248668
C75   C     C_R   0.944220 0.691261 0.950910 -0.112192
C76   C     C_R   0.964408 0.775357 0.000416 0.050059
H1    H     H_    0.055488 0.810377 0.062141 0.093590
H2    H     H_    0.947628 0.194159 0.847945 0.107448
H3    H     H_    0.062566 0.323122 0.110725 0.149240
H4    H     H_    0.908735 0.197590 0.973306 0.105668
H5    H     H_    0.279548 0.626341 0.855930 0.128268
H6    H     H_    0.085893 0.345389 0.700658 0.127679
H7    H     H_    0.903478 0.181182 0.722287 0.164856
H8    H     H_    0.696605 0.457692 0.148847 0.101238
H9    H     H_    0.816954 0.966249 0.515069 0.179374
H10   H     H_    0.180774 0.802842 0.270222 0.149531
H11   H     H_    0.263922 0.896817 0.348439 0.138147
H12   H     H_    0.268130 0.017850 0.473819 0.153892
H13   H     H_    0.369032 0.676123 0.756476 0.125823
H14   H     H_    0.245643 0.492860 0.599409 0.163596
H15   H     H_    0.417697 0.494794 0.329068 0.154428
H16   H     H_    0.572826 0.517529 0.260821 0.124008
H17   H     H_    0.846238 0.525582 0.855820 0.093349
H18   H     H_    0.719934 0.666463 0.407383 0.142320
H19   H     H_    0.641335 0.737204 0.562180 0.146379
H20   H     H_    0.511677 0.738645 0.691337 0.145835
H21   H     H_    0.731169 0.509166 0.824343 0.160900
H22   H     H_    0.315399 0.345968 0.033829 0.186252
H23   H     H_    0.432725 0.494583 0.883695 0.179019
H24   H     H_    0.791004 0.948840 0.986640 0.148919
H25   H     H_    0.952016 0.097686 0.205929 0.160099
H26   H     H_    0.862469 0.809853 0.940093 0.123141
H27   H     H_    0.978247 0.939258 0.117438 0.121820
H28   H     H_    0.712329 0.379638 0.007792 0.117102
H29   H     H_    0.106742 0.792809 0.143475 0.115065
H30   H     H_    0.843002 0.593043 0.296635 0.132958
H31   H     H_    0.900962 0.676442 0.920203 0.097388
N1    N     N_R   0.036080 0.671900 0.995420 -0.039703
N2    N     N_R   0.954660 0.334720 0.880230 -0.043471
N3    N     N_R   0.116260 0.502360 0.832930 -0.056141
N4    N     N_R   0.012950 0.371090 0.051890 -0.044272
N5    N     N_R   0.963920 0.328100 0.004580 -0.044050
N6    N     N_R   0.165290 0.545350 0.880240 -0.053029
N7    N     N_R   0.132570 0.490700 0.051900 -0.074487
N8    N     N_R   0.996640 0.382750 0.832930 -0.042701
N9    N     N_R   0.834710 0.454650 0.119760 -0.043058
N10   N     N_R   0.867430 0.509300 0.948100 -0.039984
N11   N     N_R   0.003360 0.617250 0.167070 -0.051666
N12   N     N_R   0.825450 0.461270 0.995400 -0.042184
N13   N     N_R   0.045340 0.665280 0.119770 -0.052309
N14   N     N_R   0.883740 0.497640 0.167070 -0.042070
N15   N     N_R   0.987050 0.628910 0.948110 -0.040600
N16   N     N_R   0.174550 0.538730 0.004600 -0.067249
Ni1   Ni    Ni4+2 0.104370 0.604370 0.000010 0.211888
Ni2   Ni    Ni4+2 0.895630 0.395630 0.999990 0.212695
Ni3   Ni    Ni4+2 0.991920 0.505780 0.891500 0.210609
Ni4   Ni    Ni4+2 0.008080 0.494220 0.108500 0.237946
C77   C     C_3   0.095508 0.522422 0.725143 -1.059856
H32   H     H_    0.109945 0.583853 0.713638 0.264063
H33   H     H_    0.105031 0.463140 0.665322 0.242052
H34   H     H_    0.023848 0.527095 0.770362 0.256233
I1    I     I_    0.167566 0.452002 0.174707 -0.478549
C78   C     C_3   0.211934 0.149650 0.622512 -1.008038
H35   H     H_    0.202221 0.205720 0.684272 0.260129
H36   H     H_    0.242055 0.092645 0.617924 0.255532
H37   H     H_    0.259659 0.171107 0.571807 0.252130
C79   C     C_3   0.791643 0.099736 0.663016 -0.996727
H38   H     H_    0.795083 0.171493 0.675487 0.257798
H39   H     H_    0.734852 0.072219 0.646476 0.260294
H40   H     H_    0.776704 0.092896 0.721751 0.252517
I2    I     I_    0.839656 0.832540 0.358887 -0.483818
C80   C     C_3   0.267406 0.471741 0.452579 -0.961784
H41   H     H_    0.271650 0.452082 0.388662 0.265864
H42   H     H_    0.262137 0.409877 0.461850 0.244093
H43   H     H_    0.205864 0.514447 0.500232 0.253771
C81   C     C_3   0.653879 0.270123 0.893641 -0.956238
H44   H     H_    0.625213 0.212523 0.856237 0.276143
H45   H     H_    0.727827 0.260950 0.857286 0.236236
H46   H     H_    0.635310 0.268999 0.955357 0.266915
I3    I     I_    0.450285 0.244839 0.019360 -0.427628
I4    I     I_    0.595229 0.544515 0.782113 -0.450362
C82   C     C_3   0.739158 0.118933 0.076380 -0.987906
H47   H     H_    0.681318 0.075097 0.088616 0.262955
H48   H     H_    0.712963 0.188808 0.107511 0.258497
H49   H     H_    0.776835 0.100270 0.007077 0.241506
C83   C     C_3   0.992501 0.627435 0.303920 -0.978622
H50   H     H_    0.054759 0.636322 0.312088 0.278136
H51   H     H_    0.936649 0.664021 0.366600 0.249214
H52   H     H_    0.978910 0.555187 0.279936 0.263896
C84   C     C_3   0.882324 0.264239 0.274236 -0.932645
H53   H     H_    0.859367 0.254461 0.333112 0.257719
H54   H     H_    0.954638 0.278696 0.251046 0.255777
H55   H     H_    0.844817 0.322700 0.289438 0.248550
C85   C     C_3   0.315324 0.620184 0.975568 -1.002976
H56   H     H_    0.355612 0.639416 0.011773 0.265844
H57   H     H_    0.360850 0.606717 0.908514 0.252677
H58   H     H_    0.269776 0.677729 0.002570 0.245817

loop_
_geom_bond_atom_site_label_1
_geom_bond_atom_site_label_2
_ccdc_geom_bond_type
C36   H13   S    
C34   N11   A    
C66   C68   A    
C75   C76   A    
C75   H31   S    
C48   H19   S    
C75   N15   A    
C1    H1    S    
C73   C74   A    
C3    C23   A    
N4    N5    A    
C83   H52   S    
C61   C81   S    
C2    C12   A    
C77   H32   S    
N16   Ni1   S    
C40   C46   A    
C79   H39   S    
C73   C84   S    
C26   C27   A    
C37   C38   A    
C65   C76   S    
C18   C24   A    
C85   H56   S    
C68   H26   S    
N14   Ni4   S    
N10   N12   A    
C38   C39   A    
C11   C14   A    
C65   C69   A    
C6    H2    S    
C4    C33   S    
C44   C50   A    
C62   H21   S    
C12   H8    S    
C18   C78   S    
C18   C19   A    
C66   H24   S    
C11   N7    A    
C21   C25   A    
C6    C15   A    
C15   C19   S    
C53   C61   A    
C66   C71   A    
C72   C82   S    
C42   C80   S    
C78   H37   S    
C64   C73   A    
C52   H18   S    
C70   C71   A    
C7    C77   S    
N10   Ni3   S    
C16   C37   S    
C45   N12   A    
C9    N5    A    
C59   C60   A    
C22   C28   A    
C55   C60   A    
C11   I1    S    
C85   H57   S    
C56   N13   A    
C80   H43   S    
C36   C41   A    
N1    Ni1   S    
C67   N14   A    
C41   C49   A    
C44   C46   A    
C39   C42   A    
C81   H45   S    
C69   H27   S    
C79   H40   S    
C4    C34   A    
N9    N14   A    
C50   H16   S    
C51   C52   A    
C84   H55   S    
C2    C67   A    
C8    N4    A    
C39   C40   A    
C58   C59   A    
C13   H6    S    
C3    C45   A    
C43   H15   S    
C23   H17   S    
C60   C61   A    
C9    H4    S    
C83   H50   S    
N15   Ni3   S    
C25   C79   S    
C43   C44   A    
C5    C85   S    
C70   C74   A    
C29   C30   A    
C45   H28   S    
C8    H3    S    
C81   H46   S    
C53   C62   A    
C47   C48   A    
C82   H49   S    
C65   C68   A    
C62   C63   A    
C50   C51   A    
C5    C14   A    
C82   H47   S    
N8    Ni3   S    
N3    N6    A    
C63   I4    S    
C32   I2    S    
C13   N8    A    
C10   N6    A    
N3    Ni3   S    
C74   H25   S    
N7    N16   A    
N12   Ni2   S    
N2    Ni2   S    
C40   C41   A    
C14   C54   S    
C82   H48   S    
N9    Ni2   S    
C55   C57   A    
N4    Ni4   S    
C78   H35   S    
C6    N2    A    
C80   H42   S    
N11   Ni4   S    
C77   H34   S    
C55   I3    S    
C81   H44   S    
C54   C58   A    
C9    C17   A    
C29   C35   A    
C46   C47   A    
C28   C29   A    
C31   H12   S    
C27   C32   A    
C38   H14   S    
C1    C76   A    
C85   H58   S    
C7    C16   A    
C58   H23   S    
N1    N15   A    
C77   H33   S    
C23   N10   A    
C67   H30   S    
C47   C52   A    
C34   C83   S    
C79   H38   S    
C5    N16   A    
C10   H5    S    
C59   C63   A    
C8    C17   A    
C7    N3    A    
C32   C33   A    
C19   C20   A    
C13   C15   A    
C25   C26   A    
C24   C31   A    
C71   C72   A    
C10   C16   A    
C84   H53   S    
N7    Ni4   S    
C3    C53   S    
C30   C31   A    
N6    Ni1   S    
C26   H9    S    
C48   C49   A    
C57   H22   S    
C83   H51   S    
C33   C35   A    
C22   C24   A    
C64   C72   A    
C49   H20   S    
C69   C70   A    
N11   N13   A    
C56   H29   S    
C2    C51   S    
N2    N8    A    
C1    N1    A    
C20   C21   A    
C36   C37   A    
C42   C43   A    
C20   H7    S    
C27   C28   A    
C78   H36   S    
C80   H41   S    
N5    Ni2   S    
C30   H11   S    
C21   C22   A    
C35   H10   S    
C4    C56   A    
N13   Ni1   S    
C84   H54   S    
C12   N9    A    
C54   C57   A    
