data_mof_unit_36198.cif
_audit_creation_date              2013-03-05T16:00:56-0500
_audit_creation_method            fapswitch 2.2
_symmetry_space_group_name_H-M    P1
_symmetry_Int_Tables_number       1
_space_group_crystal_system       triclinic
_cell_length_a                    6.929866
_cell_length_b                    34.366143
_cell_length_c                    38.310747
_cell_angle_alpha                 99.591172
_cell_angle_beta                  89.787307
_cell_angle_gamma                 90.437348
_cell_volume                      8995.98555552

loop_
_atom_site_label
_atom_site_type_symbol
_atom_site_description
_atom_site_fract_x
_atom_site_fract_y
_atom_site_fract_z
_atom_type_partial_charge
O1    O     O_R   0.494320 0.461440 0.460990 -0.588596
O2    O     O_R   0.821450 0.462560 0.532500 -0.580442
O3    O     O_R   0.994330 0.538560 0.539010 -0.597389
C1    C     C_R   0.651868 0.454329 0.543961 1.004931
O4    O     O_R   0.823870 0.456770 0.460860 -0.584151
O5    O     O_R   0.996760 0.532730 0.466860 -0.599173
C2    C     C_R   0.655175 0.446858 0.447395 0.959582
O6    O     O_R   0.491880 0.467270 0.533140 -0.575037
O7    O     O_3   0.661650 0.524930 0.502050 -0.287484
V1    V     V_3+5 0.935500 0.495380 0.499620 1.203656
O8    O     O_R   0.326630 0.537440 0.467500 -0.610695
C3    C     C_R   0.158200 0.545945 0.456033 0.979565
O9    O     O_R   0.324210 0.543230 0.539140 -0.600029
C4    C     C_R   0.155526 0.553804 0.552102 1.025992
V2    V     V_3+5 0.435810 0.504620 0.500380 1.188211
O10   O     O_3   0.159790 0.475070 0.497950 -0.254554
C5    C     C_R   0.051501 0.832413 0.792415 0.527558
N1    N     N_R   0.050936 0.822486 0.825628 -0.168988
C6    C     C_R   0.064174 0.783730 0.829969 0.661681
C7    C     C_R   0.059491 0.752908 0.800285 -0.353935
C8    C     C_R   0.075083 0.763100 0.766202 -0.015682
C9    C     C_R   0.074224 0.803209 0.762293 -0.021224
C10   C     C_R   0.047244 0.712358 0.803496 0.521946
C11   C     C_R   0.067276 0.682911 0.773598 0.519987
C12   C     C_R   0.081165 0.693053 0.739195 -0.351306
C13   C     C_R   0.091287 0.733319 0.735877 -0.016272
C14   C     C_R   0.117981 0.744004 0.702158 -0.027596
C15   C     C_R   0.121658 0.784092 0.698849 -0.089889
C16   C     C_R   0.096416 0.813290 0.728444 -0.099730
C17   C     C_R   0.078386 0.664525 0.707792 0.696533
N2    N     N_R   0.114193 0.675383 0.675482 -0.162609
C18   C     C_R   0.138730 0.714262 0.672400 0.636057
O11   O     O_2   0.032884 0.870522 0.788570 -0.514301
O12   O     O_2   0.086515 0.775316 0.862855 -0.446048
O13   O     O_2   0.037874 0.626382 0.709211 -0.459138
O14   O     O_2   0.178381 0.724108 0.640469 -0.503398
H1    H     H_    0.140712 0.793053 0.673251 0.182215
H2    H     H_    0.097451 0.843860 0.724755 0.181736
C19   C     C_R   0.972546 0.640281 0.618963 0.420303
C20   C     C_R   0.985233 0.610105 0.589298 -0.260003
H3    H     H_    0.868598 0.605811 0.570275 0.183350
C21   C     C_R   0.146321 0.585559 0.583502 -0.230600
C22   C     C_R   0.297223 0.590968 0.608028 -0.183625
H4    H     H_    0.421679 0.571908 0.603517 0.174181
C23   C     C_R   0.288864 0.620003 0.638606 0.404491
C24   C     C_R   0.125459 0.645284 0.644195 -0.099327
C25   C     C_R   0.876455 0.853836 0.879903 0.282091
C26   C     C_R   0.865872 0.882902 0.910822 0.219005
C27   C     C_R   0.009346 0.912773 0.917475 -0.395968
C28   C     C_R   0.165398 0.911918 0.893982 -0.161491
H5    H     H_    0.277047 0.934419 0.898785 0.173993
C29   C     C_R   0.183705 0.882304 0.864433 0.635176
C30   C     C_R   0.036374 0.853232 0.856549 -0.159184
C31   C     C_R   0.118394 0.862410 0.178262 0.586917
O15   O     O_2   0.165707 0.901015 0.186478 -0.490482
N3    N     N_R   0.057792 0.847361 0.144764 -0.171779
C32   C     C_R   0.014318 0.808078 0.135433 0.628932
C33   C     C_R   0.174559 0.870628 0.090305 0.301319
C34   C     C_R   0.155618 0.896067 0.065022 0.212357
C35   C     C_R   0.878432 0.927449 0.097756 0.367059
C36   C     C_R   0.895370 0.901097 0.121838 -0.117755
C37   C     C_R   0.043025 0.873237 0.118757 -0.022603
C38   C     C_R   0.085871 0.797571 0.195429 -0.070776
C39   C     C_R   0.132415 0.837898 0.204152 -0.087361
C40   C     C_R   0.202580 0.852625 0.237890 -0.231027
C41   C     C_R   0.038482 0.781821 0.159967 -0.233065
C42   C     C_R   0.008318 0.925070 0.068823 -0.469517
H6    H     H_    0.796302 0.903043 0.143994 0.190881
H7    H     H_    0.252229 0.882972 0.243861 0.191731
C43   C     C_R   0.148241 0.572652 0.429239 -0.141236
C44   C     C_R   0.136866 0.764222 0.283902 0.085697
C45   C     C_R   0.029000 0.707906 0.239360 -0.070553
C46   C     C_R   0.089540 0.723475 0.274327 0.063918
C47   C     C_R   0.161256 0.779104 0.320402 -0.113245
C48   C     C_R   0.170176 0.754246 0.345531 -0.108812
C49   C     C_R   0.143500 0.713597 0.335746 -0.045214
C50   C     C_R   0.096885 0.698284 0.300378 -0.055182
C51   C     C_R   0.054273 0.657840 0.291280 -0.142901
C52   C     C_R   0.071830 0.633047 0.316942 0.602781
N4    N     N_R   0.118661 0.648430 0.351261 -0.177632
C53   C     C_R   0.152576 0.688115 0.360982 0.495638
C54   C     C_R   0.300508 0.618700 0.395467 -0.137491
C55   C     C_R   0.311658 0.593746 0.420777 -0.177585
C56   C     C_R   0.973770 0.577035 0.411641 -0.332236
C57   C     C_R   0.962026 0.601839 0.385867 0.609740
C58   C     C_R   0.127018 0.622796 0.377657 0.129088
O16   O     O_2   0.192835 0.703034 0.395040 -0.528011
C59   C     C_R   0.146324 0.788926 0.257254 -0.036855
C60   C     C_R   0.089394 0.772988 0.222016 0.034402
C61   C     C_R   0.041653 0.732360 0.212730 0.049866
C62   C     C_R   0.221384 0.828304 0.263718 0.495133
H8    H     H_    0.448122 0.591184 0.433862 0.146876
H9    H     H_    0.427535 0.634941 0.389558 0.180126
H10   H     H_    0.193916 0.767274 0.372943 0.186876
H11   H     H_    0.164233 0.810148 0.330871 0.201143
O17   O     O_2   0.943293 0.794865 0.102861 -0.421165
C63   C     C_R   0.020625 0.740464 0.150285 0.381065
C64   C     C_R   0.953242 0.668520 0.232837 0.284021
C65   C     C_R   0.981759 0.643444 0.257609 -0.129271
O18   O     O_2   0.042320 0.593843 0.307575 -0.503078
C66   C     C_R   0.026162 0.716602 0.176411 -0.160927
H12   H     H_    0.846204 0.561018 0.417766 0.140234
H13   H     H_    0.930187 0.613238 0.251525 0.214597
H14   H     H_    0.029228 0.685158 0.167384 0.194285
C67   C     C_R   0.746391 0.331955 0.656231 0.735827
O19   O     O_2   0.906359 0.333830 0.636506 -0.441087
N5    N     N_R   0.603156 0.359597 0.655749 -0.156863
C68   C     C_R   0.499228 0.369034 0.686703 0.643930
C69   C     C_R   0.483273 0.417160 0.626569 0.287244
C70   C     C_R   0.530259 0.442907 0.602825 0.393894
C71   C     C_R   0.694091 0.388879 0.565061 0.347523
C72   C     C_R   0.661672 0.364746 0.591298 0.562615
C73   C     C_R   0.585578 0.381046 0.625148 -0.194755
C74   C     C_R   0.592449 0.308119 0.705914 -0.086200
C75   C     C_R   0.736840 0.303804 0.679543 -0.283233
C76   C     C_R   0.876038 0.273559 0.679047 0.427970
C77   C     C_R   0.468922 0.340957 0.709241 -0.180349
C78   C     C_R   0.636461 0.428978 0.571675 -0.522124
C79   C     C_R   0.513270 0.074192 0.930678 -0.304635
C80   C     C_R   0.672795 0.219221 0.748783 0.033601
C81   C     C_R   0.451724 0.264124 0.785879 0.143446
C82   C     C_R   0.557035 0.228448 0.779576 0.036755
C83   C     C_R   0.739698 0.179864 0.739322 0.584576
C84   C     C_R   0.727610 0.153721 0.763912 -0.258491
C85   C     C_R   0.636116 0.164762 0.796663 -0.102083
C86   C     C_R   0.544755 0.201630 0.804035 -0.059963
C87   C     C_R   0.440417 0.211606 0.835844 -0.064405
C88   C     C_R   0.435303 0.185140 0.860225 0.548021
N6    N     N_R   0.529807 0.149851 0.853027 -0.168296
C89   C     C_R   0.627477 0.139128 0.821802 0.577431
C90   C     C_R   0.376858 0.096711 0.879139 -0.134183
C91   C     C_R   0.369477 0.072203 0.904694 -0.113083
C92   C     C_R   0.666879 0.101799 0.930874 0.168874
C93   C     C_R   0.673166 0.126891 0.904810 0.458456
C94   C     C_R   0.527940 0.123858 0.878941 0.116061
O20   O     O_2   0.716479 0.103879 0.815157 -0.536034
C95   C     C_R   0.708558 0.249097 0.727649 -0.153695
C96   C     C_R   0.581956 0.281658 0.730749 0.082499
C97   C     C_R   0.450558 0.288876 0.759550 0.079559
C98   C     C_R   0.870846 0.248610 0.704727 0.324380
H15   H     H_    0.251843 0.051123 0.903846 0.165503
H16   H     H_    0.264182 0.094693 0.859395 0.165752
H17   H     H_    0.786139 0.124300 0.756930 0.185082
O21   O     O_2   0.449426 0.406582 0.698766 -0.435084
C99   C     C_R   0.327676 0.346198 0.736375 0.409848
C100  C     C_R   0.349544 0.273529 0.818192 -0.172835
C101  C     C_R   0.344983 0.247817 0.842716 -0.051504
O22   O     O_2   0.337379 0.194657 0.890934 -0.510667
C102  C     C_R   0.321141 0.320505 0.761018 -0.291366
H18   H     H_    0.276134 0.301225 0.825747 0.143707
H19   H     H_    0.265507 0.256475 0.867144 0.180224
H20   H     H_    0.206207 0.324867 0.780299 0.167703
C103  C     C_R   0.395811 0.182245 0.197871 0.648894
N7    N     N_R   0.549342 0.175396 0.175097 -0.175191
C104  C     C_R   0.713815 0.197875 0.180817 0.614829
C105  C     C_R   0.724845 0.229999 0.209290 -0.254108
C106  C     C_R   0.574837 0.234727 0.234813 -0.006511
C107  C     C_R   0.411542 0.209462 0.229888 -0.214549
C108  C     C_R   0.883753 0.256671 0.213668 0.480534
C109  C     C_R   0.897387 0.285991 0.243678 0.480681
C110  C     C_R   0.752505 0.289722 0.270321 -0.265988
C111  C     C_R   0.589265 0.264358 0.265423 -0.037554
C112  C     C_R   0.441177 0.268413 0.291287 -0.197956
C113  C     C_R   0.285702 0.240876 0.287485 0.465398
C114  C     C_R   0.270299 0.211826 0.257061 0.284654
C115  C     C_R   0.765956 0.317843 0.301874 0.652968
N8    N     N_R   0.616037 0.323019 0.325538 -0.170941
C116  C     C_R   0.453793 0.299845 0.320325 0.579566
O23   O     O_2   0.227841 0.163079 0.189202 -0.446033
O24   O     O_2   0.867460 0.188410 0.159484 -0.484541
O25   O     O_2   0.927105 0.339929 0.309027 -0.486909
O26   O     O_2   0.304754 0.307576 0.343105 -0.477828
C117  C     C_R   0.759784 0.352127 0.383484 0.645290
C118  C     C_R   0.768421 0.383078 0.412764 -0.378618
H21   H     H_    0.868974 0.381235 0.434016 0.169815
C119  C     C_R   0.645523 0.415840 0.415290 -0.320052
C120  C     C_R   0.514214 0.417881 0.387204 0.532585
C121  C     C_R   0.504988 0.386799 0.358475 -0.175867
H22   H     H_    0.404565 0.388536 0.337189 0.195036
C122  C     C_R   0.626997 0.354093 0.356140 -0.000051
C123  C     C_R   0.560181 0.152743 0.110427 -0.061929
H23   H     H_    0.587687 0.182866 0.106780 0.156772
C124  C     C_R   0.547912 0.123159 0.080711 -0.153194
H24   H     H_    0.568587 0.130908 0.054685 0.186506
C125  C     C_R   0.506716 0.084077 0.084302 -0.338725
C126  C     C_R   0.476839 0.074628 0.118684 0.446196
C127  C     C_R   0.500032 0.104289 0.148843 0.339785
C128  C     C_R   0.538023 0.143875 0.144695 -0.038449
O27   O     O_R   0.662230 0.032770 0.966890 -0.582685
O28   O     O_R   0.330090 0.043230 0.039150 -0.601736
O29   O     O_R   0.157350 0.967260 0.033130 -0.594341
C129  C     C_R   0.498651 0.053629 0.052091 0.999241
O30   O     O_R   0.332650 0.037450 0.967510 -0.587614
O31   O     O_R   0.159930 0.961430 0.960980 -0.591492
C130  C     C_R   0.502319 0.046544 0.956627 1.009429
O32   O     O_R   0.659640 0.038600 0.039040 -0.556587
O33   O     O_3   0.492510 0.975090 0.997960 -0.240111
V3    V     V_3+5 0.218600 0.004620 0.000380 1.284766
O34   O     O_R   0.830050 0.956730 0.960830 -0.590789
C131  C     C_R   0.998921 0.945483 0.948346 1.059185
O35   O     O_R   0.827490 0.962520 0.032470 -0.553513
C132  C     C_R   0.996370 0.953431 0.043382 1.119353
V4    V     V_3+5 0.718310 0.995320 0.999580 1.325663
O36   O     O_3   0.994270 0.024900 0.002040 -0.254140
O37   O     O_3   0.014283 0.700097 0.835467 -0.595388
H25   H     H_    0.907605 0.716292 0.847329 0.373912
N9    N     N_R   0.711936 0.881371 0.935747 0.275983
O38   O     O_R   0.750609 0.878564 0.968445 -0.274852
O39   O     O_R   0.533082 0.880973 0.925548 -0.321738
O40   O     O_3   0.349118 0.882876 0.844312 -0.691596
H26   H     H_    0.360980 0.857633 0.827841 0.347994
N10   N     N_R   0.736213 0.957951 0.104436 0.253935
O41   O     O_R   0.568252 0.950458 0.117211 -0.331925
O42   O     O_R   0.785571 0.994451 0.103890 -0.380787
O43   O     O_3   0.073268 0.644399 0.779275 -0.598205
H27   H     H_    0.183481 0.631677 0.765383 0.370984
O44   O     O_3   0.328712 0.841701 0.293705 -0.763244
H28   H     H_    0.372597 0.869225 0.293636 0.337061
N11   N     N_R   0.287431 0.892517 0.035653 0.274770
O45   O     O_R   0.472714 0.894740 0.041103 -0.295109
O46   O     O_R   0.222578 0.886254 0.003354 -0.306447
N12   N     N_R   0.325628 0.841795 0.086841 0.266622
O47   O     O_R   0.354406 0.818657 0.056792 -0.210033
O48   O     O_R   0.431595 0.837779 0.113967 -0.370030
N13   N     N_R   0.013030 0.721592 0.113948 0.277096
O49   O     O_R   0.893984 0.692304 0.104468 -0.261956
O50   O     O_R   0.149909 0.728084 0.092239 -0.234259
N14   N     N_R   0.821857 0.655249 0.204306 0.234101
O51   O     O_R   0.680895 0.677873 0.197943 -0.359508
O52   O     O_R   0.823442 0.618653 0.188532 -0.318789
O53   O     O_3   0.791208 0.606324 0.368615 -0.749462
H29   H     H_    0.693546 0.587916 0.375746 0.312453
O54   O     O_3   0.776845 0.371719 0.533276 -0.733185
H30   H     H_    0.768602 0.389436 0.515525 0.319705
O55   O     O_3   0.684544 0.324211 0.583468 -0.700639
H31   H     H_    0.730817 0.316223 0.558886 0.381431
O56   O     O_3   0.023179 0.268507 0.654515 -0.644074
H32   H     H_    0.961446 0.265156 0.630882 0.367527
O57   O     O_3   0.801584 0.166487 0.705114 -0.701993
H33   H     H_    0.840731 0.138482 0.702842 0.337185
N15   N     N_R   0.041962 0.226863 0.710421 0.268577
O58   O     O_R   0.146079 0.209960 0.683909 -0.280149
O59   O     O_R   0.099722 0.225531 0.742477 -0.436271
O60   O     O_3   0.454458 0.480549 0.609343 -0.662792
H34   H     H_    0.537508 0.498498 0.598060 0.315844
N16   N     N_R   0.299566 0.422830 0.644066 0.291639
O61   O     O_R   0.246849 0.457567 0.660054 -0.210751
O62   O     O_R   0.174941 0.393998 0.640346 -0.309922
N17   N     N_R   0.181702 0.375963 0.738248 0.265619
O63   O     O_R   0.125729 0.394844 0.768856 -0.314860
O64   O     O_R   0.081809 0.379331 0.710246 -0.301000
N18   N     N_R   0.812149 0.105089 0.957815 0.237973
O65   O     O_R   0.992265 0.098702 0.949233 -0.394323
O66   O     O_R   0.764131 0.113657 0.991051 -0.406535
O67   O     O_3   0.814571 0.155357 0.904121 -0.714783
H35   H     H_    0.890110 0.158801 0.926262 0.372194
O68   O     O_3   0.025137 0.256416 0.188247 -0.677928
H36   H     H_    0.958951 0.255485 0.165230 0.342498
O69   O     O_3   0.051479 0.311744 0.245147 -0.677797
H37   H     H_    0.997039 0.338704 0.248400 0.344956
O70   O     O_3   0.153125 0.239659 0.314190 -0.638684
H38   H     H_    0.227131 0.239488 0.336261 0.359719
N19   N     N_R   0.124714 0.181666 0.256507 0.285954
O71   O     O_R   0.946940 0.191185 0.264688 -0.320846
O72   O     O_R   0.176158 0.145015 0.254501 -0.246638
O73   O     O_3   0.877018 0.319499 0.381217 -0.675057
H39   H     H_    0.962401 0.322729 0.402231 0.337290
N20   N     N_R   0.803601 0.665136 0.622736 0.258987
O74   O     O_R   0.685183 0.664460 0.596337 -0.370773
O75   O     O_R   0.761607 0.687598 0.652510 -0.352218
O76   O     O_3   0.396193 0.449829 0.386078 -0.727195
H40   H     H_    0.452497 0.473456 0.400933 0.308378
O77   O     O_3   0.430916 0.036849 0.124101 -0.620723
H41   H     H_    0.400246 0.019842 0.101334 0.333706
N21   N     N_R   0.489477 0.093924 0.183679 0.274710
O78   O     O_R   0.614239 0.108343 0.207799 -0.305592
O79   O     O_R   0.358603 0.069259 0.191247 -0.212594
N22   N     N_R   0.446547 0.622876 0.663569 0.264247
O80   O     O_R   0.473221 0.654200 0.687289 -0.364346
O81   O     O_R   0.570721 0.594375 0.661829 -0.321854
N23   N     N_R   0.727634 0.824179 0.872735 0.267988
O82   O     O_R   0.656414 0.814818 0.841047 -0.412703
O83   O     O_R   0.671959 0.804518 0.897261 -0.233461

loop_
_geom_bond_atom_site_label_1
_geom_bond_atom_site_label_2
_geom_bond_distance
_ccdc_geom_bond_type
C33   C37   1.410101 A    
C65   H13   1.083474 S    
V4    O36   2.153866 S    
C44   C59   1.433468 A    
N16   O62   1.299534 A    
C62   O44   1.381947 S    
C86   C87   1.408341 A    
C9    C16   1.404556 A    
C36   H6    1.083394 S    
C71   O54   1.385667 S    
C56   H12   1.083336 S    
O35   C132  1.301808 A    
C67   O19   1.346477 S    
C63   N13   1.435467 S    
C112  C113  1.420318 A    
C57   O53   1.380011 S    
O29   V3    1.981756 S    
C68   O21   1.343357 S    
C32   C41   1.418393 A    
C1    O6    1.292764 A    
C127  N21   1.439003 S    
C88   N6    1.369310 A    
C70   C78   1.415443 A    
N14   O52   1.301501 A    
C74   C75   1.410250 A    
C33   N12   1.437492 S    
C126  O77   1.383111 S    
C81   C100  1.414939 A    
N19   O71   1.300792 A    
O3    V1    1.973481 S    
C45   C64   1.430927 A    
O37   H25   0.991109 S    
O27   V4    1.980965 S    
C55   H8    1.082987 S    
C67   N5    1.381435 A    
N17   O63   1.301329 A    
C106  C107  1.414941 A    
C17   O13   1.348367 S    
C71   C78   1.419169 A    
C129  O32   1.296138 A    
C41   C63   1.412409 A    
C99   N17   1.437203 S    
C15   C16   1.394652 A    
N21   O79   1.301253 A    
O60   H34   0.990020 S    
C93   O67   1.382647 S    
C111  C112  1.415254 A    
C90   C94   1.397847 A    
C124  C125  1.399936 A    
O5    C3    1.296724 A    
O70   H38   0.991408 S    
N4    C53   1.371290 A    
C11   O43   1.377509 S    
V2    O10   2.153797 S    
C123  H23   1.082819 S    
O67   H35   0.988167 S    
C91   H15   1.083382 S    
N3    C32   1.369234 A    
C26   N9    1.435568 S    
C77   C99   1.415591 A    
C98   N15   1.442935 S    
C107  C114  1.419099 A    
N18   O65   1.300500 A    
C103  C107  1.417191 A    
C118  H21   1.083738 S    
C117  O73   1.380511 S    
N4    C58   1.449185 S    
C25   N23   1.438935 S    
N1    C30   1.453809 S    
C34   C42   1.422224 A    
C8    C9    1.411155 A    
N6    C94   1.441880 S    
O8    V2    1.981133 S    
C85   C89   1.410217 A    
O31   C131  1.298396 A    
O57   H33   0.991636 S    
C35   C42   1.417407 A    
O30   C130  1.299288 A    
N2    C24   1.449213 S    
C16   H2    1.083088 S    
C28   C29   1.396553 A    
N5    C68   1.378117 A    
C59   C62   1.428893 A    
C84   H17   1.083348 S    
C119  C120  1.422714 A    
O1    V2    1.975384 S    
O29   C132  1.294405 A    
C113  O70   1.378144 S    
C43   C56   1.407730 A    
O54   H30   0.987532 S    
N16   O61   1.301925 A    
C83   O57   1.382313 S    
C110  C115  1.419152 A    
C80   C83   1.421498 A    
C50   C51   1.404833 A    
C4    C21   1.484975 S    
N3    C37   1.446143 S    
C20   C21   1.399004 A    
N8    C122  1.450123 S    
C38   C41   1.414953 A    
O34   C131  1.299525 A    
C108  O68   1.377932 S    
C54   H9    1.082019 S    
C117  C118  1.412518 A    
O9    C4    1.298895 A    
C10   O37   1.377819 S    
O34   V4    1.978215 S    
O35   V4    1.980952 S    
C1    C78   1.484480 S    
C115  N8    1.369304 A    
C36   C37   1.397864 A    
C5    O11   1.349282 S    
O3    C4    1.296731 A    
C120  O76   1.380545 S    
C72   C73   1.425143 A    
C123  C128  1.403966 A    
C80   C82   1.417050 A    
O30   V3    1.983884 S    
C110  C111  1.416580 A    
C104  C105  1.418644 A    
C64   N14   1.437593 S    
C49   C50   1.407212 A    
C123  C124  1.396667 A    
C95   C98   1.422780 A    
C31   N3    1.367590 A    
N17   O64   1.300602 A    
C81   C82   1.416934 A    
C47   C48   1.391318 A    
C100  C101  1.393031 A    
N9    O38   1.301348 A    
C89   O20   1.349131 S    
C25   C26   1.418636 A    
C121  H22   1.083478 S    
C52   O18   1.349457 S    
C83   C84   1.407845 A    
C11   C12   1.421106 A    
C96   C97   1.418775 A    
C102  H20   1.078443 S    
N11   O45   1.301244 A    
C44   C46   1.423290 A    
C19   N20   1.447085 S    
N1    C6    1.373232 A    
C106  C111  1.422520 A    
C117  C122  1.407278 A    
C28   H5    1.083954 S    
N23   O82   1.301050 A    
C57   C58   1.408973 A    
N7    C128  1.454348 S    
C76   O56   1.376369 S    
C97   C102  1.408250 A    
C109  O69   1.377012 S    
C52   N4    1.371997 A    
C35   C36   1.402121 A    
N15   O59   1.301214 A    
C105  C106  1.416059 A    
C82   C86   1.421533 A    
O2    C1    1.298592 A    
C48   C49   1.395768 A    
C61   C66   1.410649 A    
C70   O60   1.383290 S    
N11   O46   1.301284 A    
C92   C93   1.424280 A    
C45   C61   1.427831 A    
O27   C130  1.296127 A    
C63   C66   1.396433 A    
C108  C109  1.399767 A    
C29   O40   1.380844 S    
C7    C10   1.421111 A    
C17   N2    1.372285 A    
O55   H31   0.988958 S    
C68   C77   1.412058 A    
N5    C73   1.490941 S    
C38   C60   1.427977 A    
O68   H36   0.991138 S    
C114  N19   1.438557 S    
N13   O49   1.301248 A    
C13   C14   1.411760 A    
C124  H24   1.082793 S    
C79   C92   1.419734 A    
C56   C57   1.410798 A    
O32   V4    1.979474 S    
N12   O48   1.301272 A    
C43   C55   1.405742 A    
C35   N10   1.435311 S    
C92   N18   1.434791 S    
N7    C104  1.369637 A    
C53   O16   1.349352 S    
C90   H16   1.082931 S    
C115  O25   1.348451 S    
C126  C127  1.416440 A    
C19   C24   1.426989 A    
C40   C62   1.404598 A    
C26   C27   1.416476 A    
O53   H29   0.991237 S    
N21   O78   1.301429 A    
N10   O42   1.301162 A    
C69   N16   1.435952 S    
C27   C28   1.401740 A    
O6    V2    1.980349 S    
C74   C96   1.422744 A    
C54   C55   1.400113 A    
O9    V2    1.978452 S    
C22   H4    1.082851 S    
V3    O36   1.705146 S    
C85   C86   1.406258 A    
C34   N11   1.436523 S    
N22   O81   1.301911 A    
C87   C101  1.399072 A    
C33   C34   1.415833 A    
N23   O83   1.301243 A    
C21   C22   1.398975 A    
O69   H37   0.991335 S    
O2    V1    1.983933 S    
C18   O14   1.349249 S    
N8    C116  1.368669 A    
C29   C30   1.420556 A    
O28   V3    1.974785 S    
C125  C129  1.479932 S    
N18   O66   1.300825 A    
N6    C89   1.369592 A    
O7    V1    2.153598 S    
C12   C17   1.419780 A    
N19   O72   1.301499 A    
O76   H40   0.989084 S    
C31   O15   1.349686 S    
C113  C114  1.406454 A    
O28   C129  1.294938 A    
C71   C72   1.421935 A    
C14   C18   1.406360 A    
O1    C2    1.296999 A    
C47   H11   1.075478 S    
C67   C75   1.422839 A    
N2    C18   1.370047 A    
C88   O22   1.349380 S    
N20   O75   1.299694 A    
C45   C46   1.420823 A    
C76   C98   1.408769 A    
C6    O12   1.348491 S    
C79   C91   1.404352 A    
C49   C53   1.410330 A    
O5    V1    1.981796 S    
C44   C47   1.416877 A    
C121  C122  1.402365 A    
O8    C3    1.300992 A    
C100  H18   1.078434 S    
C93   C94   1.406157 A    
C80   C95   1.429256 A    
C69   C73   1.427096 A    
C51   C65   1.396282 A    
C72   O55   1.385424 S    
C95   C96   1.416319 A    
C5    C9    1.406710 A    
C2    C119  1.488684 S    
C5    N1    1.371156 A    
C25   C30   1.419811 A    
C109  C110  1.420245 A    
C81   C97   1.423771 A    
C6    C7    1.419388 A    
C112  C116  1.418075 A    
C12   C13   1.411722 A    
O4    C2    1.299469 A    
O4    V1    1.974920 S    
C22   C23   1.407881 A    
C42   C132  1.491679 S    
V1    O10   1.705301 S    
C90   C91   1.394371 A    
C105  C108  1.419767 A    
C54   C58   1.404099 A    
C51   C52   1.410297 A    
C104  O24   1.348217 S    
C125  C126  1.422223 A    
O31   V3    1.973719 S    
C120  C121  1.401494 A    
C31   C39   1.408294 A    
C15   H1    1.083094 S    
N15   O58   1.301532 A    
C40   H7    1.083500 S    
C101  H19   1.083310 S    
C8    C13   1.419275 A    
O44   H28   0.991776 S    
N13   O50   1.301521 A    
C118  C119  1.407167 A    
O33   V4    1.704527 S    
C79   C130  1.486579 S    
C3    C43   1.488725 S    
O40   H26   0.987806 S    
O43   H27   0.991089 S    
O7    V2    1.705814 S    
O33   V3    2.153656 S    
O56   H32   0.991665 S    
C74   C77   1.410171 A    
O73   H39   0.991618 S    
C39   C40   1.395012 A    
C10   C11   1.403573 A    
N14   O51   1.301805 A    
C38   C39   1.405707 A    
C19   C20   1.408061 A    
C23   C24   1.426247 A    
C116  O26   1.348754 S    
C59   C60   1.425629 A    
C127  C128  1.418274 A    
C7    C8    1.410706 A    
C64   C65   1.399619 A    
C103  O23   1.348074 S    
C14   C15   1.404398 A    
N9    O39   1.300232 A    
C46   C50   1.427263 A    
N22   O80   1.300365 A    
C84   C85   1.399774 A    
C20   H3    1.083026 S    
C66   H14   1.078682 S    
C32   O17   1.348292 S    
C75   C76   1.421191 A    
C60   C61   1.419069 A    
C69   C70   1.406388 A    
N12   O47   1.301153 A    
C23   N22   1.446744 S    
C99   C102  1.396377 A    
C87   C88   1.408299 A    
C48   H10   1.083430 S    
N10   O41   1.301479 A    
N20   O74   1.301885 A    
C103  N7    1.370063 A    
C27   C131  1.491710 S    
O77   H41   0.988515 S    
