data_mof_unit_16288.cif
_audit_creation_date              2012-12-11T15:32:41-0500
_audit_creation_method            fapswitch 2.2
_symmetry_space_group_name_H-M    P1
_symmetry_Int_Tables_number       1
_space_group_crystal_system       triclinic
_cell_length_a                    6.969917
_cell_length_b                    20.449629
_cell_length_c                    24.26407
_cell_angle_alpha                 90.009381
_cell_angle_beta                  90.360542
_cell_angle_gamma                 89.333513
_cell_volume                      3458.10922399

loop_
_atom_site_label
_atom_site_type_symbol
_atom_type_description
_atom_site_fract_x
_atom_site_fract_y
_atom_site_fract_z
_atom_type_partial_charge
O1    O     O_R   0.507320 0.423560 0.460500 -0.537059
O2    O     O_R   0.170760 0.556250 0.437010 -0.542641
O3    O     O_R   0.004030 0.576440 0.539500 -0.525182
C1    C     C_R   0.338207 0.576718 0.421380 0.714211
O4    O     O_R   0.177370 0.422820 0.454110 -0.538472
O5    O     O_R   0.010680 0.442050 0.556720 -0.533775
C2    C     C_R   0.347103 0.398721 0.443257 0.714506
O6    O     O_R   0.500680 0.557950 0.443280 -0.535481
O7    O     O_3   0.340380 0.506470 0.533650 -0.360704
V1    V     V_3+5 0.064130 0.498800 0.493760 1.440370
O8    O     O_R   0.681160 0.443750 0.562990 -0.537268
C3    C     C_R   0.850373 0.423722 0.578706 0.757196
O9    O     O_R   0.674560 0.577180 0.545890 -0.543853
C4    C     C_R   0.842500 0.600880 0.557249 0.772143
V2    V     V_3+5 0.564560 0.501200 0.506240 1.449226
O10   O     O_3   0.838180 0.493530 0.466350 -0.376661
C5    C     C_R   0.969981 0.837129 0.911350 -0.119483
C6    C     C_R   0.844301 0.662560 0.589389 -0.121463
C7    C     C_R   0.943775 0.718174 0.913860 0.168118
C8    C     C_R   0.958984 0.779038 0.940571 -0.258064
C9    C     C_R   0.964707 0.835973 0.853631 0.327639
C10   C     C_R   0.909735 0.777394 0.825176 -0.092690
C11   C     C_R   0.910470 0.717031 0.855089 -0.049983
C12   C     C_R   0.853782 0.777591 0.767966 -0.113673
C13   C     C_R   0.853943 0.718457 0.737706 -0.117942
C14   C     C_R   0.834061 0.659756 0.768248 0.295295
C15   C     C_R   0.870219 0.658270 0.825629 0.313636
C16   C     C_R   0.772956 0.833577 0.741712 0.294049
C17   C     C_R   0.748482 0.835507 0.683904 0.308632
C18   C     C_R   0.790823 0.779356 0.651102 -0.046356
C19   C     C_R   0.849117 0.720181 0.678339 -0.093234
C20   C     C_R   0.768503 0.779330 0.592028 0.169523
C21   C     C_R   0.779327 0.719370 0.563771 -0.257066
C22   C     C_R   0.899692 0.664442 0.645036 0.326399
H1    H     H_    0.742347 0.716150 0.520530 0.141556
H2    H     H_    0.967211 0.782423 0.984971 0.138831
C23   C     C_3   0.835550 0.304538 0.769121 0.192472
C24   C     C_3   0.029666 0.275687 0.788326 0.312879
C25   C     C_1   0.964630 0.121614 0.875594 -0.152860
C26   C     C_1   0.860252 0.378313 0.624321 -0.172015
C27   C     C_3   0.747623 0.236015 0.771829 0.190181
C28   C     C_3   0.941509 0.206774 0.791236 -0.079573
C29   C     C_3   0.803650 0.223837 0.711399 0.314482
C30   C     C_3   0.890943 0.292896 0.708291 -0.013013
C31   C     C_3   0.998783 0.194558 0.730111 0.002626
C32   C     C_3   0.087760 0.264123 0.727531 0.023729
C33   C     C_1   0.956828 0.159934 0.837525 0.073961
C34   C     C_1   0.870311 0.339910 0.662281 0.071734
C35   C     C_3   0.512976 0.722323 0.212182 0.291683
C36   C     C_3   0.314224 0.697599 0.230258 0.066432
C37   C     C_1   0.344666 0.622656 0.375676 -0.191339
C38   C     C_1   0.478156 0.878473 0.124989 -0.202308
C39   C     C_3   0.570441 0.732794 0.272584 0.249067
C40   C     C_3   0.373020 0.708611 0.291450 -0.078705
C41   C     C_3   0.495093 0.803959 0.270375 0.093182
C42   C     C_3   0.436512 0.793366 0.209138 -0.023670
C43   C     C_3   0.294863 0.780128 0.288869 0.084268
C44   C     C_3   0.235898 0.769242 0.227438 0.078647
C45   C     C_1   0.353873 0.661377 0.337732 -0.002975
C46   C     C_1   0.464617 0.840198 0.163085 0.013929
C47   C     C_R   0.461463 0.165129 0.085733 -0.209169
C48   C     C_R   0.363239 0.336584 0.411604 -0.174753
C49   C     C_R   0.331947 0.276947 0.088771 0.105980
C50   C     C_R   0.367580 0.218598 0.059349 0.278668
C51   C     C_R   0.515975 0.170401 0.141912 0.094598
C52   C     C_R   0.434532 0.221871 0.174307 0.051370
C53   C     C_R   0.371280 0.279046 0.146263 0.014144
C54   C     C_R   0.418982 0.220079 0.233442 0.018253
C55   C     C_R   0.388713 0.279287 0.263285 0.015110
C56   C     C_R   0.382091 0.337770 0.233142 -0.186575
C57   C     C_R   0.357208 0.337514 0.176402 -0.182645
C58   C     C_R   0.414103 0.160670 0.262900 0.254686
C59   C     C_R   0.447886 0.160500 0.320558 0.067913
C60   C     C_R   0.434990 0.220594 0.350112 -0.029145
C61   C     C_R   0.377042 0.278706 0.322253 -0.002678
C62   C     C_R   0.472923 0.223589 0.407105 -0.143479
C63   C     C_R   0.446593 0.280849 0.437266 0.313905
C64   C     C_R   0.311635 0.333448 0.354777 0.052596
H3    H     H_    0.333118 0.384246 0.156710 0.132087
H4    H     H_    0.393114 0.384464 0.253016 0.160191
H5    H     H_    0.525305 0.181488 0.429686 0.158724
O11   O     O_R   0.323550 0.942140 0.056770 -0.536538
O12   O     O_R   0.647080 0.077200 0.045890 -0.543228
O13   O     O_R   0.813610 0.057920 0.943260 -0.536004
C65   C     C_R   0.477526 0.101666 0.056240 0.710444
O14   O     O_R   0.653470 0.943760 0.063000 -0.541491
O15   O     O_R   0.820050 0.923540 0.960490 -0.539923
C66   C     C_R   0.485854 0.923812 0.078957 0.718359
O16   O     O_R   0.317110 0.076520 0.039540 -0.530025
O17   O     O_3   0.483830 0.993580 0.966380 -0.363265
V3    V     V_3+5 0.760140 0.001190 0.006240 1.432100
O18   O     O_R   0.149510 0.922740 0.954070 -0.534525
C67   C     C_R   0.980987 0.899133 0.942727 0.771647
O19   O     O_R   0.143120 0.056170 0.936970 -0.531855
C68   C     C_R   0.973962 0.076251 0.921273 0.756076
V4    V     V_3+5 0.259690 0.998700 0.993700 1.470188
O20   O     O_3   0.986130 0.006420 0.033620 -0.373430
O21   O     O_3   0.853988 0.599781 0.853682 -0.660877
H6    H     H_    0.862944 0.562367 0.827874 0.346029
C69   C     C_3   0.731070 0.842019 0.558949 -0.260612
C70   C     C_3   0.757425 0.837442 0.496359 -0.842647
H7    H     H_    0.899778 0.815722 0.486259 0.238895
H8    H     H_    0.641076 0.808339 0.477239 0.231075
H9    H     H_    0.749641 0.887298 0.478261 0.229826
H10   H     H_    0.582066 0.859522 0.566522 0.219462
H11   H     H_    0.834277 0.879560 0.573159 0.211218
O22   O     O_3   0.147101 0.301561 0.829680 -0.620712
H12   H     H_    0.135019 0.349708 0.826158 0.305610
O23   O     O_3   0.751472 0.362007 0.789369 -0.629480
H13   H     H_    0.732691 0.354224 0.829275 0.302050
C71   C     C_3   0.275608 0.281420 0.699209 -0.301559
C72   C     C_3   0.341927 0.350234 0.713390 -0.636481
H14   H     H_    0.226750 0.386796 0.704703 0.215550
H15   H     H_    0.383961 0.353164 0.757421 0.270689
H16   H     H_    0.468600 0.362403 0.688090 0.227997
H17   H     H_    0.386292 0.245398 0.711473 0.260425
H18   H     H_    0.255402 0.277956 0.653886 0.179313
C73   C     C_3   0.089115 0.130035 0.710708 -0.322487
C74   C     C_3   0.122150 0.128545 0.648624 -0.704227
H19   H     H_    0.986398 0.138408 0.625829 0.256259
H20   H     H_    0.230595 0.164999 0.636641 0.232281
H21   H     H_    0.176612 0.079382 0.636578 0.217813
H22   H     H_    0.228304 0.122396 0.732456 0.205765
H23   H     H_    0.992425 0.089419 0.721965 0.190185
O24   O     O_3   0.685020 0.196971 0.670846 -0.641045
H24   H     H_    0.646327 0.153870 0.685482 0.300299
O25   O     O_3   0.570794 0.220823 0.795214 -0.629368
H25   H     H_    0.577289 0.237136 0.833634 0.315258
C75   C     C_3   0.209885 0.635868 0.211093 -0.337345
C76   C     C_3   0.257977 0.616631 0.151883 -0.720585
H26   H     H_    0.150596 0.581269 0.136422 0.203296
H27   H     H_    0.258004 0.659796 0.124233 0.249887
H28   H     H_    0.401458 0.592622 0.150416 0.230065
H29   H     H_    0.250294 0.594368 0.238495 0.171129
H30   H     H_    0.052866 0.644130 0.215083 0.188919
O26   O     O_3   0.630734 0.693701 0.172269 -0.645870
H31   H     H_    0.678185 0.652161 0.188697 0.275360
C77   C     C_3   0.047275 0.794778 0.201970 -0.325642
C78   C     C_3   0.017771 0.773929 0.142147 -0.702069
H32   H     H_    0.146569 0.783646 0.116991 0.219375
H33   H     H_    0.983079 0.721344 0.139855 0.254792
H34   H     H_    0.894706 0.801750 0.124200 0.223821
H35   H     H_    0.925867 0.777180 0.226665 0.228531
H36   H     H_    0.046835 0.848992 0.203458 0.168204
O27   O     O_3   0.005844 0.612080 0.664969 -0.628464
H37   H     H_    0.088877 0.628048 0.695288 0.306345
C79   C     C_3   0.167132 0.807681 0.334712 -0.315042
C80   C     C_3   0.128252 0.881171 0.329746 -0.783388
H38   H     H_    0.261119 0.909810 0.331789 0.235484
H39   H     H_    0.052899 0.893162 0.290775 0.221949
H40   H     H_    0.039143 0.897404 0.364918 0.221532
H41   H     H_    0.029418 0.781361 0.333605 0.220589
H42   H     H_    0.235175 0.797261 0.375290 0.175484
C81   C     C_3   0.604998 0.863985 0.289988 -0.305795
C82   C     C_3   0.642902 0.863126 0.352067 -0.734894
H43   H     H_    0.509243 0.858994 0.375914 0.227326
H44   H     H_    0.737735 0.821418 0.363492 0.256657
H45   H     H_    0.711385 0.909590 0.364437 0.204379
H46   H     H_    0.743291 0.865550 0.267944 0.170376
H47   H     H_    0.523814 0.908959 0.278453 0.167659
O28   O     O_3   0.744450 0.712744 0.296487 -0.662121
H48   H     H_    0.752549 0.664832 0.290633 0.277253
C83   C     C_3   0.151061 0.378705 0.333889 -0.324888
C84   C     C_3   0.210546 0.450244 0.326468 -0.770381
H49   H     H_    0.364426 0.457645 0.336625 0.207902
H50   H     H_    0.184472 0.466217 0.283289 0.201936
H51   H     H_    0.121547 0.482324 0.353071 0.232722
H52   H     H_    0.087086 0.360189 0.294978 0.180799
H53   H     H_    0.030285 0.376723 0.363533 0.186013
O29   O     O_3   0.495608 0.278419 0.492589 -0.638279
H54   H     H_    0.438596 0.316084 0.512389 0.282909
C85   C     C_3   0.502059 0.096272 0.348903 -0.367401
C86   C     C_3   0.333469 0.067770 0.380566 -0.757674
H55   H     H_    0.284455 0.101620 0.413451 0.236418
H56   H     H_    0.211153 0.058200 0.352287 0.219180
H57   H     H_    0.378503 0.020798 0.399938 0.220390
H58   H     H_    0.552800 0.059320 0.318575 0.186335
H59   H     H_    0.627479 0.102790 0.376653 0.174978
C87   C     C_3   0.240903 0.334999 0.058620 -0.297074
C88   C     C_3   0.029235 0.343048 0.073565 -0.744367
H60   H     H_    0.949584 0.298121 0.062444 0.240168
H61   H     H_    0.011820 0.352555 0.118292 0.221821
H62   H     H_    0.965904 0.384939 0.050400 0.217042
H63   H     H_    0.320177 0.380592 0.067316 0.149212
H64   H     H_    0.249463 0.329364 0.013208 0.233161
O30   O     O_3   0.312994 0.216162 0.004393 -0.643073
H65   H     H_    0.388271 0.182133 0.984868 0.286855
C89   C     C_3   0.688149 0.130607 0.162884 -0.292822
C90   C     C_3   0.875198 0.155987 0.138421 -0.734760
H66   H     H_    0.872262 0.155077 0.092745 0.241122
H67   H     H_    0.899666 0.207091 0.152136 0.221367
H68   H     H_    0.997725 0.125150 0.152886 0.229696
H69   H     H_    0.707730 0.134192 0.208014 0.195070
H70   H     H_    0.670519 0.077947 0.153161 0.181967
O31   O     O_3   0.372634 0.103922 0.234371 -0.667892
H71   H     H_    0.311035 0.072597 0.259572 0.294027
O32   O     O_3   0.668155 0.890664 0.659698 -0.664518
H72   H     H_    0.679909 0.928889 0.684494 0.334785
C91   C     C_3   0.959624 0.655637 0.948465 -0.257068
C92   C     C_3   0.021693 0.663280 0.008862 -0.835340
H73   H     H_    0.159663 0.689754 0.011891 0.237225
H74   H     H_    0.908855 0.689166 0.032861 0.240853
H75   H     H_    0.042849 0.614123 0.027545 0.230542
H76   H     H_    0.818214 0.631130 0.948604 0.222090
H77   H     H_    0.068856 0.622938 0.929321 0.215935
O33   O     O_3   0.019862 0.891994 0.826526 -0.633558
H78   H     H_    0.074921 0.879067 0.790532 0.308210
O34   O     O_3   0.753790 0.604709 0.744890 -0.623176
H79   H     H_    0.660575 0.618839 0.716127 0.308449
O35   O     O_3   0.691965 0.884093 0.771863 -0.630574
H80   H     H_    0.641016 0.865931 0.806631 0.308562

loop_
_geom_bond_atom_site_label_1
_geom_bond_atom_site_label_2
_ccdc_geom_bond_type
C31   C73   S    
C85   H58   S    
C41   C81   S    
C52   C54   A    
C41   C42   S    
C15   O21   S    
C13   C19   A    
C70   H7    S    
O15   V3    S    
C82   H44   S    
C59   C60   A    
C4    C6    S    
C48   C63   A    
O2    C1    A    
C7    C8    A    
C80   H40   S    
O18   V4    S    
C1    O6    A    
C29   O24   S    
C58   O31   S    
C57   H3    S    
O27   H37   S    
C43   C44   S    
C22   O27   S    
C43   C79   S    
C31   C32   S    
C88   H60   S    
C69   H10   S    
O34   H79   S    
C60   C62   A    
C84   H49   S    
C42   C46   S    
C80   H39   S    
C24   C28   S    
C77   H35   S    
O5    C3    A    
C18   C19   A    
C78   H34   S    
O14   C66   A    
C86   H57   S    
O29   H54   S    
C16   O35   S    
V2    O10   S    
C91   H77   S    
C5    C8    A    
C49   C87   S    
C27   C28   S    
C24   O22   S    
C90   H67   S    
C27   O25   S    
C73   C74   S    
C69   C70   S    
C38   C46   T    
C79   C80   S    
C75   H30   S    
O8    V2    S    
C83   C84   S    
C30   C32   S    
C54   C55   A    
O22   H12   S    
C71   H17   S    
O1    V2    S    
O13   V3    S    
C11   C15   A    
C17   C18   A    
O7    V1    S    
C63   O29   S    
C23   O23   S    
O11   C66   A    
C88   H62   S    
C73   H22   S    
C44   C77   S    
C74   H20   S    
C52   C53   A    
C51   C89   S    
C89   H70   S    
C91   C92   S    
C70   H8    S    
C86   H55   S    
O9    C4    A    
C49   C50   A    
C82   H45   S    
C27   C29   S    
O32   H72   S    
C20   C69   S    
C79   H42   S    
C72   H15   S    
C72   H14   S    
C6    C21   A    
C88   H61   S    
O28   H48   S    
C40   C45   S    
C86   H56   S    
C78   H32   S    
C49   C53   A    
O11   V4    S    
C60   C61   A    
C1    C37   S    
C56   H4    S    
C36   C44   S    
O8    C3    A    
C38   C66   S    
C12   C13   A    
O4    C2    A    
C65   O16   A    
O33   H78   S    
C92   H73   S    
C13   C14   A    
C39   C40   S    
C5    C9    A    
C87   C88   S    
C89   C90   S    
O13   C68   A    
C9    O33   S    
C3    C26   S    
C90   H68   S    
C76   H27   S    
C29   C30   S    
C2    C48   S    
C81   H47   S    
C23   C24   S    
C36   C75   S    
C29   C31   S    
C76   H26   S    
C54   C58   A    
C32   C71   S    
V4    O20   S    
C14   C15   A    
C19   C22   A    
C73   H23   S    
V3    O20   S    
C59   C85   S    
O19   V4    S    
C6    C22   A    
C25   C68   S    
C81   C82   S    
C56   C57   A    
O3    C4    A    
C47   C65   S    
O12   C65   A    
C35   O26   S    
C89   H69   S    
C35   C36   S    
C70   H9    S    
C17   O32   S    
O9    V2    S    
C91   H76   S    
C10   C12   A    
C76   H28   S    
C5    C67   S    
C51   C52   A    
C39   C41   S    
O25   H25   S    
O2    V1    S    
C81   H46   S    
C85   C86   S    
C7    C11   A    
C25   C33   T    
C87   H63   S    
C74   H21   S    
C85   H59   S    
C90   H66   S    
C26   C34   T    
C16   C17   A    
C71   C72   S    
O1    C2    A    
C69   H11   S    
C48   C64   A    
C84   H51   S    
C14   O34   S    
C12   C16   A    
C58   C59   A    
C62   H5    S    
O5    V1    S    
C74   H19   S    
O17   V4    S    
C87   H64   S    
O6    V2    S    
C35   C42   S    
O12   V3    S    
C7    C91   S    
C71   H18   S    
O14   V3    S    
C20   C21   A    
C23   C30   S    
C41   C43   S    
C79   H41   S    
C75   C76   S    
C83   H52   S    
O4    V1    S    
C36   C40   S    
O3    V1    S    
V1    O10   S    
O23   H13   S    
C47   C50   A    
C18   C20   A    
C62   C63   A    
C78   H33   S    
C39   O28   S    
O17   V3    S    
O24   H24   S    
O16   V4    S    
C92   H75   S    
C35   C39   S    
O15   C67   A    
C84   H50   S    
O18   C67   A    
C21   H1    S    
C42   C44   S    
C55   C61   A    
C53   C57   A    
C28   C33   S    
O35   H80   S    
C23   C27   S    
O19   C68   A    
C83   H53   S    
C61   C64   A    
C55   C56   A    
C75   H29   S    
C24   C32   S    
C77   C78   S    
O31   H71   S    
C8    H2    S    
C47   C51   A    
C64   C83   S    
C37   C45   T    
C92   H74   S    
O21   H6    S    
C82   H43   S    
C10   C11   A    
O26   H31   S    
C77   H36   S    
O30   H65   S    
C9    C10   A    
C80   H38   S    
C28   C31   S    
C72   H16   S    
C50   O30   S    
C30   C34   S    
O7    V2    S    
C40   C43   S    
