data_mof_unit_31274.cif
_audit_creation_date              2012-12-11T15:55:46-0500
_audit_creation_method            fapswitch 2.2
_symmetry_space_group_name_H-M    P1
_symmetry_Int_Tables_number       1
_space_group_crystal_system       triclinic
_cell_length_a                    11.314198
_cell_length_b                    11.319595
_cell_length_c                    18.775714
_cell_angle_alpha                 90.68324
_cell_angle_beta                  89.857614
_cell_angle_gamma                 58.354013
_cell_volume                      2046.83619568

loop_
_atom_site_label
_atom_site_type_symbol
_atom_type_description
_atom_site_fract_x
_atom_site_fract_y
_atom_site_fract_z
_atom_type_partial_charge
C1    C     C_R   0.361357 0.759813 0.395301 0.553813
C2    C     C_R   0.600556 0.063703 0.168941 0.053167
C3    C     C_R   0.354273 0.300570 0.170088 0.009803
C4    C     C_R   0.498971 0.225550 0.273940 -0.087805
C5    C     C_R   0.483639 0.198671 0.203854 0.002216
C6    C     C_R   0.048624 0.582465 0.356341 -0.115879
C7    C     C_R   0.971119 0.616512 0.420294 0.021860
C8    C     C_R   0.572701 0.975659 0.133565 -0.000229
C9    C     C_R   0.654845 0.895857 0.074733 -0.006826
C10   C     C_R   0.241877 0.400848 0.211960 -0.164260
C11   C     C_R   0.256579 0.406026 0.284892 -0.034707
C12   C     C_R   0.414141 0.370425 0.382671 0.545382
C13   C     C_R   0.993832 0.509999 0.466493 -0.037089
C14   C     C_R   0.085257 0.371528 0.447112 -0.115674
C15   C     C_R   0.157093 0.338172 0.382293 -0.066050
C16   C     C_R   0.142210 0.443628 0.336734 0.025644
C17   C     C_R   0.390098 0.337926 0.311609 0.026765
C18   C     C_R   0.971218 0.293309 0.195960 -0.005326
C19   C     C_R   0.970500 0.191317 0.235343 -0.030586
C20   C     C_R   0.934545 0.205991 0.308179 0.020150
C21   C     C_R   0.892250 0.433285 0.303977 -0.137572
C22   C     C_R   0.942760 0.410644 0.233830 -0.138644
C23   C     C_R   0.781591 0.377709 0.404042 0.532171
C24   C     C_3   0.881552 0.137336 0.220022 -0.100287
C25   C     C_3   0.860290 0.133504 0.300167 -0.070945
C26   C     C_R   0.876682 0.334280 0.340911 0.019404
C27   C     C_R   0.353901 0.830517 0.174625 0.030181
C28   C     C_R   0.453242 0.835467 0.219504 -0.050420
C29   C     C_R   0.453680 0.800236 0.290715 0.002635
C30   C     C_R   0.269894 0.764130 0.276017 -0.109111
C31   C     C_R   0.274217 0.779116 0.203384 -0.093591
C32   C     C_3   0.609342 0.725794 0.219838 0.064314
C33   C     C_3   0.591001 0.672290 0.288101 -0.244416
C34   C     C_R   0.342327 0.770535 0.603269 0.546980
C35   C     C_R   0.347633 0.796174 0.321326 0.018671
C36   C     C_R   0.298972 0.303996 0.808003 0.020054
C37   C     C_R   0.401630 0.191525 0.768479 0.036593
C38   C     C_R   0.412914 0.197955 0.696365 0.028527
C39   C     C_R   0.201383 0.422788 0.696538 -0.175380
C40   C     C_R   0.191011 0.415756 0.770870 -0.168658
C41   C     C_3   0.554828 0.107326 0.779359 -0.278366
C42   C     C_3   0.568990 0.112840 0.699749 -0.260604
C43   C     C_R   0.321503 0.319897 0.660193 0.014877
C44   C     C_R   0.814612 0.331402 0.836750 0.016658
C45   C     C_R   0.369389 0.349943 0.594851 0.547472
C46   C     C_R   0.753262 0.461223 0.804306 0.024269
C47   C     C_R   0.741096 0.471676 0.731560 0.038109
C48   C     C_R   0.825679 0.228681 0.719469 -0.170868
C49   C     C_R   0.840268 0.216388 0.793980 -0.165685
C50   C     C_3   0.781679 0.576807 0.808713 -0.269830
C51   C     C_3   0.771522 0.584649 0.728467 -0.263214
C52   C     C_R   0.786094 0.355725 0.687226 0.019503
C53   C     C_R   0.290899 0.868620 0.820761 0.020513
C54   C     C_R   0.184039 0.870226 0.783420 0.024907
C55   C     C_R   0.190902 0.855651 0.710374 0.024979
C56   C     C_R   0.757315 0.380015 0.611302 0.535114
C57   C     C_R   0.395913 0.869526 0.707327 -0.158762
C58   C     C_R   0.391714 0.879056 0.781562 -0.152969
C59   C     C_3   0.124171 0.781414 0.792841 -0.283819
C60   C     C_3   0.132872 0.763541 0.712649 -0.263705
C61   C     C_R   0.303901 0.842310 0.671848 0.021411
C62   C     C_R   0.978498 0.287398 0.116652 0.561125
C63   C     C_R   0.324694 0.285075 0.096027 0.536449
C64   C     C_R   0.306785 0.900309 0.105450 0.529914
C65   C     C_R   0.883525 0.309501 0.905370 0.558908
C66   C     C_R   0.292904 0.284222 0.883897 0.554527
C67   C     C_R   0.788790 0.870629 0.068424 -0.063683
C68   C     C_R   0.272727 0.900643 0.896558 0.547874
C69   C     C_R   0.837041 0.916000 0.124027 -0.044974
C70   C     C_R   0.741772 0.002585 0.177791 -0.040644
Cr1   Cr    Cr6+3 0.601740 0.606840 0.505840 1.045360
Cr2   Cr    Cr6+3 0.291500 0.601560 0.495070 1.017988
Cr3   Cr    Cr6+3 0.606780 0.291630 0.499130 1.068276
Cr4   Cr    Cr6+3 0.062440 0.063060 0.008240 1.029925
Cr5   Cr    Cr6+3 0.062950 0.375000 0.998920 1.031445
Cr6   Cr    Cr6+3 0.374550 0.061770 0.992470 0.979937
H1    H     H_    0.592714 0.152895 0.300955 0.147650
H2    H     H_    0.937814 0.533528 0.516617 0.162942
H3    H     H_    0.100728 0.289819 0.482443 0.118395
H4    H     H_    0.231600 0.230106 0.369530 0.130124
H5    H     H_    0.859649 0.531971 0.327567 0.152548
H6    H     H_    0.947126 0.489155 0.206442 0.206714
H7    H     H_    0.946931 0.037287 0.191764 0.137292
H8    H     H_    0.751703 0.195213 0.318573 0.134083
H9    H     H_    0.212827 0.719254 0.295936 0.183467
H10   H     H_    0.618800 0.849357 0.036833 0.152130
H11   H     H_    0.208421 0.758188 0.170554 0.145362
H12   H     H_    0.585726 0.577188 0.282874 0.181383
H13   H     H_    0.647573 0.674923 0.335336 0.180351
H14   H     H_    0.123334 0.514303 0.669190 0.124747
H15   H     H_    0.103951 0.500391 0.799241 0.118724
H16   H     H_    0.591929 0.001156 0.798475 0.129663
H17   H     H_    0.593820 0.164816 0.809765 0.148057
H18   H     H_    0.619364 0.171088 0.685367 0.170468
H19   H     H_    0.613217 0.009906 0.672829 0.149026
H20   H     H_    0.852076 0.137971 0.687215 0.132318
H21   H     H_    0.884220 0.114522 0.816818 0.139828
H22   H     H_    0.887218 0.545012 0.826825 0.162652
H23   H     H_    0.696328 0.670575 0.836239 0.129326
H24   H     H_    0.682648 0.683468 0.709513 0.146859
H25   H     H_    0.872240 0.550947 0.701469 0.142299
H26   H     H_    0.477848 0.871339 0.678520 0.129857
H27   H     H_    0.469175 0.891441 0.808116 0.131841
H28   H     H_    0.015709 0.841395 0.813578 0.134819
H29   H     H_    0.858129 0.803629 0.026409 0.100278
H30   H     H_    0.194834 0.683854 0.821464 0.142269
H31   H     H_    0.210781 0.656064 0.695155 0.164732
H32   H     H_    0.029663 0.810903 0.686940 0.144864
H33   H     H_    0.947474 0.872428 0.128983 0.113599
H34   H     H_    0.774674 0.006613 0.229706 0.146391
H35   H     H_    0.042207 0.661909 0.323507 0.148404
H36   H     H_    0.473758 0.997379 0.148269 0.145689
H37   H     H_    0.142194 0.468032 0.188472 0.139088
O1    O     O_R   0.748670 0.497520 0.427970 -0.542275
O2    O     O_R   0.300170 0.471020 0.567120 -0.509980
O3    O     O_R   0.491630 0.259030 0.574940 -0.508537
O4    O     O_R   0.718640 0.304340 0.577850 -0.501573
O5    O     O_3   0.500010 0.500010 0.500020 -0.293496
O6    O     O_R   0.186620 0.923750 0.087000 -0.537422
O7    O     O_R   0.957350 0.194160 0.084660 -0.453682
O8    O     O_R   0.935120 0.407280 0.085350 -0.449350
O9    O     O_R   0.203800 0.365060 0.067090 -0.517697
O10   O     O_R   0.417470 0.174910 0.067830 -0.538765
O11   O     O_R   0.375160 0.946380 0.070880 -0.550753
O12   O     O_R   0.476470 0.723930 0.429450 -0.494231
O13   O     O_R   0.160500 0.919670 0.926690 -0.514467
O14   O     O_R   0.933140 0.190380 0.936050 -0.494122
O15   O     O_R   0.909010 0.403210 0.925030 -0.520757
O16   O     O_R   0.179590 0.361290 0.918480 -0.510507
O17   O     O_R   0.391360 0.170840 0.907510 -0.519899
O18   O     O_R   0.350950 0.942600 0.922260 -0.516699
O19   O     O_3   0.166650 0.166610 0.999880 -0.298484
O20   O     O_R   0.264730 0.744140 0.416740 -0.533794
O21   O     O_R   0.309440 0.472410 0.418220 -0.497404
O22   O     O_R   0.501630 0.260530 0.414310 -0.514356
O23   O     O_R   0.727920 0.305730 0.428950 -0.484712
O24   O     O_R   0.738670 0.496020 0.588600 -0.521678
O25   O     O_R   0.467190 0.722540 0.578350 -0.494125
O26   O     O_R   0.254720 0.742640 0.577370 -0.518188
C71   C     C_2   0.745971 0.247554 0.184307 0.575559
O27   O     O_2   0.658633 0.348587 0.218642 -0.529581
O28   O     O_R   0.719460 0.231118 0.113237 -0.663252
H38   H     H_    0.622203 0.303727 0.097997 0.339766
C72   C     C_2   0.937430 0.998064 0.336985 0.539812
O29   O     O_2   0.973821 0.891118 0.304132 -0.640042
O30   O     O_R   0.961188 0.996390 0.410098 -0.669019
H39   H     H_    0.008483 0.899898 0.430451 0.347662
C73   C     C_2   0.705989 0.777527 0.239183 0.522790
O31   O     O_2   0.671851 0.866071 0.286187 -0.564402
O32   O     O_R   0.837142 0.717468 0.208239 -0.718215
H40   H     H_    0.897965 0.746096 0.232520 0.339253
C74   C     C_2   0.649349 0.632294 0.154632 0.587060
O33   O     O_2   0.726850 0.633511 0.110156 -0.487047
O34   O     O_R   0.581834 0.561537 0.139414 -0.669410
H41   H     H_    0.606693 0.516567 0.090263 0.344805
C75   C     C_2   0.864065 0.762233 0.437366 0.220203
H42   H     H_    0.834579 0.841446 0.397814 0.181805
O35   O     O_2   0.805713 0.795454 0.495419 -0.526326

loop_
_geom_bond_atom_site_label_1
_geom_bond_atom_site_label_2
_ccdc_geom_bond_type
C44   C49   A    
C7    C13   A    
C21   C26   A    
C12   O21   A    
Cr4   O19   S    
C63   O10   A    
Cr5   O9    S    
C41   C42   S    
C19   C20   A    
C57   C58   A    
Cr1   O24   S    
C53   C54   A    
C24   C71   S    
C57   H26   S    
Cr2   O2    S    
C50   H23   S    
C64   O6    A    
C23   O23   A    
C59   H28   S    
C22   H6    S    
C21   C22   A    
C28   C29   A    
C24   H7    S    
C71   O28   S    
C38   C42   S    
C8    H36   S    
C30   C31   A    
Cr6   O18   S    
C36   C66   S    
C20   C25   S    
C15   C16   A    
C29   C33   S    
C34   O26   A    
C18   C19   A    
Cr5   O15   S    
C56   O4    A    
C23   C26   S    
C4    H1    S    
C53   C68   S    
C70   H34   S    
C46   C47   A    
Cr6   O17   S    
Cr2   O26   S    
C41   H17   S    
C7    C75   S    
Cr3   O22   S    
C8    C9    A    
C12   O22   A    
C12   C17   S    
C25   H8    S    
C39   H14   S    
C62   O7    A    
C60   H32   S    
C66   O16   A    
C59   C60   S    
C42   H18   S    
C55   C60   S    
C44   C65   S    
C69   H33   S    
Cr4   O14   S    
C1    O20   A    
Cr5   O8    S    
C44   C46   A    
Cr1   O25   S    
C54   C59   S    
C71   O27   D    
C50   H22   S    
C59   H30   S    
C31   H11   S    
C27   C31   A    
C42   H19   S    
Cr6   O11   S    
C65   O15   A    
C28   C32   S    
Cr3   O4    S    
C24   C25   S    
C72   O30   S    
C10   C11   A    
C39   C40   A    
C67   H29   S    
C68   O13   A    
C39   C43   A    
C64   O11   A    
C6    C16   A    
C34   O25   A    
C34   C61   S    
Cr1   O1    S    
C67   C69   A    
C68   O18   A    
C9    C67   A    
C37   C38   A    
Cr4   O6    S    
C33   H13   S    
C9    H10   S    
C43   C45   S    
C11   C16   S    
C45   O2    A    
Cr2   O21   S    
C15   H4    S    
C32   C74   S    
Cr3   O23   S    
C36   C40   A    
C14   C15   A    
C50   C51   S    
C14   H3    S    
C73   O31   D    
C30   H9    S    
Cr3   O3    S    
O34   H41   S    
C47   C52   A    
C60   H31   S    
C4    C17   A    
C30   C35   A    
C48   C49   A    
C21   H5    S    
C2    C5    S    
C65   O14   A    
C63   O9    A    
Cr5   O19   S    
C1    C35   S    
O30   H39   S    
C74   O34   S    
C51   H24   S    
C46   C50   S    
C54   C55   A    
C75   H42   S    
C10   H37   S    
Cr3   O5    S    
C48   H20   S    
Cr1   O5    S    
C18   C22   A    
Cr6   O10   S    
C33   H12   S    
C2    C8    A    
C73   O32   S    
C72   O29   D    
C3    C5    A    
C11   C17   A    
C47   C51   S    
C53   C58   A    
C57   C61   A    
C6    C7    A    
C32   C73   S    
C3    C63   S    
C51   H25   S    
Cr4   O7    S    
C29   C35   A    
C1    O12   A    
C32   C33   S    
C75   O35   D    
C19   C24   S    
C38   C43   A    
C3    C10   A    
C2    C70   A    
C23   O1    A    
C56   O24   A    
Cr6   O19   S    
C45   O3    A    
Cr2   O20   S    
Cr4   O13   S    
C20   C26   A    
C4    C5    A    
C55   C61   A    
C6    H35   S    
C40   H15   S    
C37   C41   S    
C69   C70   A    
C27   C64   S    
C13   H2    S    
C49   H21   S    
C25   C72   S    
Cr5   O16   S    
C48   C52   A    
C41   H16   S    
C74   O33   D    
C36   C37   A    
Cr2   O5    S    
C27   C28   A    
O28   H38   S    
O32   H40   S    
Cr1   O12   S    
C18   C62   S    
C58   H27   S    
C13   C14   A    
C62   O8    A    
C52   C56   S    
C66   O17   A    
