data_mof_unit_29575.cif
_audit_creation_date              2013-03-05T16:49:24-0500
_audit_creation_method            fapswitch 2.2
_symmetry_space_group_name_H-M    P1
_symmetry_Int_Tables_number       1
_space_group_crystal_system       triclinic
_cell_length_a                    10.870684
_cell_length_b                    16.034504
_cell_length_c                    17.293346
_cell_angle_alpha                 96.634855
_cell_angle_beta                  90.242972
_cell_angle_gamma                 91.763158
_cell_volume                      2992.6365703

loop_
_atom_site_label
_atom_site_type_symbol
_atom_site_description
_atom_site_fract_x
_atom_site_fract_y
_atom_site_fract_z
_atom_type_partial_charge
O1    O     O_R   0.494030 0.420280 0.382610 -0.545964
O2    O     O_R   0.505970 0.579720 0.617390 -0.591823
O3    O     O_R   0.504770 0.563150 0.389400 -0.558038
O4    O     O_R   0.495230 0.436850 0.610600 -0.544921
C1    C     C_R   0.506588 0.489241 0.349854 0.882831
C2    C     C_R   0.501688 0.510667 0.650218 0.898470
O5    O     O_R   0.314270 0.428570 0.496610 -0.607790
O6    O     O_R   0.685730 0.571430 0.503390 -0.593395
O7    O     O_R   0.325020 0.571440 0.503400 -0.583066
O8    O     O_R   0.674980 0.428560 0.496600 -0.595434
C3    C     C_R   0.262319 0.500921 0.497374 0.814456
C4    C     C_R   0.737289 0.498741 0.496320 0.768587
Cu1   Cu    Cu3+1 0.493640 0.415410 0.495980 0.979084
Cu2   Cu    Cu3+1 0.506360 0.584590 0.504020 0.961734
H1    H     H_    0.189640 0.902416 0.506947 0.163315
H2    H     H_    0.723174 0.136184 0.328164 0.180141
C5    C     C_R   0.133988 0.805147 0.576273 -0.190838
C6    C     C_R   0.747169 0.269563 0.327021 -0.122809
H3    H     H_    0.123850 0.848032 0.628805 0.154203
H4    H     H_    0.690475 0.271042 0.275669 0.141847
C7    C     C_R   0.107754 0.719571 0.577008 -0.253935
C8    C     C_R   0.801110 0.343812 0.363803 -0.159548
H5    H     H_    0.074260 0.697087 0.630009 0.161333
H6    H     H_    0.785930 0.401975 0.339709 0.107383
C9    C     C_R   0.118472 0.663694 0.508814 0.082932
C10   C     C_R   0.874068 0.343190 0.431094 0.040816
C11   C     C_R   0.158447 0.693592 0.439133 0.484729
C12   C     C_R   0.896500 0.265985 0.459846 0.444196
C13   C     C_R   0.183652 0.780865 0.439521 -0.223287
C14   C     C_R   0.840292 0.191452 0.422224 -0.260615
H7    H     H_    0.208442 0.807833 0.387223 0.168131
H8    H     H_    0.850866 0.131916 0.444771 0.133368
C15   C     C_R   0.170919 0.835778 0.507555 -0.138308
C16   C     C_R   0.766436 0.193557 0.356258 -0.171497
C17   C     C_R   0.935919 0.573125 0.509098 -0.254256
C18   C     C_R   0.063262 0.426501 0.470737 -0.178067
H9    H     H_    0.887310 0.630954 0.523090 0.168437
H10   H     H_    0.112784 0.369767 0.453566 0.159563
C19   C     C_R   0.870950 0.496941 0.490768 -0.105973
C20   C     C_R   0.128227 0.502685 0.491928 -0.065748
C21   C     C_R   0.935122 0.422922 0.466791 0.044535
C22   C     C_R   0.063010 0.577873 0.506159 0.060486
C23   C     C_R   0.526304 0.485357 0.265611 -0.283881
C24   C     C_R   0.507082 0.513812 0.734911 -0.302190
C25   C     C_R   0.598340 0.549820 0.236911 0.264848
C26   C     C_R   0.581865 0.456524 0.768431 0.285761
C27   C     C_R   0.601666 0.555576 0.156874 0.352118
C28   C     C_R   0.563979 0.442794 0.846450 0.420071
C29   C     C_R   0.543745 0.492942 0.105216 -0.062875
C30   C     C_R   0.475463 0.488911 0.890578 -0.057686
C31   C     C_R   0.480353 0.425417 0.133207 -0.341079
C32   C     C_R   0.408928 0.549850 0.858838 -0.332220
C33   C     C_R   0.473131 0.419540 0.213732 0.383204
C34   C     C_R   0.426919 0.564756 0.781651 0.381527
C35   C     C_2   0.553559 0.498093 0.021596 -0.103305
C36   C     C_2   0.459114 0.478702 0.972688 -0.135022
H11   H     H_    0.368560 0.462141 0.993655 0.149010
H12   H     H_    0.638751 0.523826 0.000064 0.172605
H13   H     H_    0.436320 0.377796 0.091963 0.166622
H14   H     H_    0.342854 0.586172 0.894155 0.176979
N1    N     N_R   0.515930 0.711660 0.510070 -0.193109
N2    N     N_R   0.484070 0.288340 0.489930 -0.184042
C37   C     C_R   0.587641 0.754378 0.462780 0.061105
C38   C     C_R   0.577645 0.249391 0.522025 0.145461
C39   C     C_R   0.587788 0.842258 0.470134 -0.204521
C40   C     C_R   0.579310 0.162073 0.515385 -0.210930
C41   C     C_R   0.511079 0.885524 0.525456 0.174560
C42   C     C_R   0.481791 0.114508 0.477399 0.171051
C43   C     C_R   0.442494 0.839437 0.575190 -0.219780
C44   C     C_R   0.385655 0.156303 0.445509 -0.251364
C45   C     C_R   0.445191 0.752363 0.565822 0.077988
C46   C     C_R   0.388889 0.243877 0.452161 0.054753
C47   C     C_2   0.500198 0.978515 0.532831 -0.138631
C48   C     C_2   0.480462 0.021124 0.469728 -0.124979
H15   H     H_    0.643345 0.720386 0.419169 0.167070
H16   H     H_    0.652199 0.286129 0.551833 0.144216
H17   H     H_    0.316093 0.276243 0.426465 0.134456
H18   H     H_    0.388807 0.716617 0.602158 0.160108
H19   H     H_    0.383784 0.870437 0.619313 0.137525
H20   H     H_    0.309022 0.121492 0.415674 0.132090
H21   H     H_    0.656009 0.131902 0.539565 0.131866
H22   H     H_    0.645079 0.875934 0.432283 0.129004
O9    O     O_3   0.619075 0.376960 0.877456 -0.544665
C49   C     C_3   0.746870 0.393419 0.888425 0.108047
H23   H     H_    0.771794 0.461743 0.900497 0.090959
H24   H     H_    0.796788 0.366300 0.836121 0.191558
C50   C     C_3   0.790825 0.350343 0.956984 -0.802496
H25   H     H_    0.771020 0.281621 0.945855 0.256497
H26   H     H_    0.891588 0.361527 0.965286 0.199450
H27   H     H_    0.743483 0.375614 0.011037 0.248812
O10   O     O_3   0.664160 0.622366 0.129161 -0.580966
C51   C     C_3   0.583779 0.690024 0.130474 0.093724
H28   H     H_    0.552280 0.710320 0.190780 0.172976
H29   H     H_    0.502071 0.672538 0.092195 0.129251
C52   C     C_3   0.651439 0.764114 0.100597 -0.793661
H30   H     H_    0.682468 0.746360 0.039973 0.242779
H31   H     H_    0.589161 0.817816 0.101384 0.197599
H32   H     H_    0.732779 0.783633 0.138215 0.252101
C53   C     C_2   0.454747 0.977772 0.390009 0.821402
O11   O     O_2   0.397079 0.910696 0.380708 -0.634158
O12   O     O_R   0.492989 0.016228 0.325225 -0.786444
H33   H     H_    0.469075 0.981848 0.274167 0.323996
C54   C     C_2   0.503850 0.022122 0.613993 0.827477
O13   O     O_2   0.436853 0.080784 0.633122 -0.596053
O14   O     O_R   0.580894 0.993020 0.669324 -0.765905
H34   H     H_    0.574402 0.026459 0.722528 0.336168
O15   O     O_3   0.155995 0.636709 0.371686 -0.609999
C55   C     C_3   0.241522 0.657561 0.315264 0.039795
H35   H     H_    0.334621 0.672095 0.341505 0.187750
H36   H     H_    0.209538 0.711296 0.286105 0.140982
C56   C     C_3   0.249902 0.583074 0.252830 -0.760605
H37   H     H_    0.160597 0.572007 0.221304 0.237718
H38   H     H_    0.322859 0.595745 0.210568 0.187780
H39   H     H_    0.271597 0.525775 0.279918 0.259379
O16   O     O_3   0.963228 0.266909 0.528658 -0.602469
C57   C     C_3   0.053645 0.205116 0.522207 0.018965
H40   H     H_    0.100942 0.200993 0.464834 0.124258
H41   H     H_    0.011576 0.142875 0.530913 0.157115
C58   C     C_3   0.150039 0.227956 0.585777 -0.720117
H42   H     H_    0.105987 0.232396 0.643880 0.249426
H43   H     H_    0.220467 0.179010 0.582853 0.232918
H44   H     H_    0.195766 0.289349 0.578154 0.252098
O17   O     O_3   0.658678 0.611300 0.287354 -0.571264
C59   C     C_3   0.786126 0.595971 0.287356 0.118134
H45   H     H_    0.822218 0.575964 0.228047 0.160495
H46   H     H_    0.805121 0.546429 0.325287 0.124088
C60   C     C_3   0.856762 0.676128 0.319027 -0.762841
H47   H     H_    0.846012 0.688350 0.383079 0.224133
H48   H     H_    0.955826 0.669607 0.305791 0.239563
H49   H     H_    0.822945 0.730279 0.291247 0.246462
O18   O     O_3   0.664718 0.408221 0.723742 -0.546161
C61   C     C_3   0.768075 0.459536 0.708482 -0.005893
H50   H     H_    0.808480 0.493166 0.763145 0.112419
H51   H     H_    0.743399 0.506717 0.669229 0.140055
C62   C     C_3   0.866142 0.404853 0.668476 -0.680859
H52   H     H_    0.827783 0.370837 0.613871 0.273562
H53   H     H_    0.946629 0.444542 0.654349 0.206510
H54   H     H_    0.896861 0.358482 0.706851 0.235181
O19   O     O_3   0.356097 0.622813 0.750213 -0.565620
C63   C     C_3   0.402496 0.704615 0.776810 0.079273
H55   H     H_    0.480933 0.720958 0.739725 0.156763
H56   H     H_    0.434581 0.711713 0.838692 0.130614
C64   C     C_3   0.301677 0.767332 0.771127 -0.819100
H57   H     H_    0.224606 0.753874 0.810238 0.247584
H58   H     H_    0.338809 0.832097 0.788577 0.210108
H59   H     H_    0.266319 0.763185 0.710679 0.243730
O20   O     O_3   0.406490 0.355144 0.243859 -0.561014
C65   C     C_3   0.420951 0.276332 0.199268 0.061352
H60   H     H_    0.515493 0.269142 0.175014 0.131437
H61   H     H_    0.352058 0.268051 0.151083 0.150322
C66   C     C_3   0.398317 0.206663 0.250556 -0.754066
H62   H     H_    0.305869 0.212149 0.277421 0.237104
H63   H     H_    0.403227 0.144547 0.215116 0.208600
H64   H     H_    0.469818 0.210786 0.296935 0.262239

loop_
_geom_bond_atom_site_label_1
_geom_bond_atom_site_label_2
_geom_bond_distance
_ccdc_geom_bond_type
C62   H54   1.110039 S    
C40   C42   1.402001 A    
C35   C36   1.333532 D    
C37   C39   1.400065 A    
O12   H33   1.013832 S    
C11   C13   1.416899 A    
C52   H30   1.110794 S    
C47   C48   1.372227 D    
O20   C65   1.415764 S    
C49   C50   1.521776 S    
C50   H25   1.110696 S    
C52   H32   1.110873 S    
C62   H52   1.107568 S    
C27   C29   1.397182 A    
C25   O17   1.385509 S    
O5    C3    1.304534 A    
O1    C1    1.303191 A    
C17   H9    1.084883 S    
C63   H56   1.116287 S    
C66   H64   1.109546 S    
C42   C48   1.487506 S    
O16   C57   1.412640 S    
C13   C15   1.395760 A    
C33   O20   1.394235 S    
C55   H35   1.114286 S    
N1    C37   1.359287 A    
C25   C27   1.398315 A    
O4    Cu1   1.972139 S    
C43   C45   1.388067 A    
C17   C22   1.382801 A    
C18   C20   1.402328 A    
N2    C38   1.359132 A    
C32   H14   1.084144 S    
H2    C16   1.082451 S    
C50   H27   1.110045 S    
C50   H26   1.110499 S    
C49   H23   1.116072 S    
C23   C33   1.411390 A    
C64   H58   1.110487 S    
Cu1   N2    2.027511 S    
C34   O19   1.382894 S    
C55   H36   1.111253 S    
C61   H50   1.114184 S    
C29   C31   1.399834 A    
C47   C54   1.493825 S    
C30   C32   1.394018 A    
C66   H62   1.110632 S    
C65   C66   1.519563 S    
C41   C47   1.490161 S    
N1    C45   1.355955 A    
C28   C30   1.405216 A    
C1    C23   1.467905 S    
C2    C24   1.460520 S    
Cu1   Cu2   2.699423 S    
C13   H7    1.078357 S    
C18   C21   1.393440 A    
O2    C2    1.301055 A    
C5    C15   1.393343 A    
C24   C26   1.416222 A    
C58   H43   1.110312 S    
C26   C28   1.405310 A    
C14   C16   1.396383 A    
C44   H20   1.083013 S    
C57   C58   1.521274 S    
O17   C59   1.414512 S    
C65   H60   1.115891 S    
C54   O14   1.398284 S    
C64   H59   1.106287 S    
O10   C51   1.412007 S    
C39   C41   1.407456 A    
C29   C35   1.462084 S    
Cu2   N1    2.027508 S    
C51   C52   1.520061 S    
C5    C7    1.394376 A    
C31   C33   1.408914 A    
C38   C40   1.392204 A    
C17   C19   1.395367 A    
O7    Cu2   1.975924 S    
C60   H48   1.107486 S    
C46   H17   1.081025 S    
C12   O16   1.389384 S    
C6    C16   1.393545 A    
O9    C49   1.413926 S    
C11   O15   1.394805 S    
O6    C4    1.302074 A    
C51   H29   1.114701 S    
C38   H16   1.080034 S    
N2    C46   1.358939 A    
C56   H38   1.110732 S    
C55   C56   1.519894 S    
C63   H55   1.112076 S    
C63   C64   1.520472 S    
O7    C3    1.295662 A    
O3    Cu2   1.972141 S    
O8    C4    1.295969 A    
C59   C60   1.521360 S    
O4    C2    1.297057 A    
C53   O12   1.398577 S    
C7    H5    1.083402 S    
C8    C10   1.406633 A    
C8    H6    1.081340 S    
C43   H19   1.082888 S    
O1    Cu1   1.971113 S    
C36   H11   1.086369 S    
O15   C55   1.411459 S    
C60   H47   1.109648 S    
C26   O18   1.385233 S    
C59   H46   1.110554 S    
C58   H44   1.110831 S    
C62   H53   1.110717 S    
C7    C9    1.403756 A    
C52   H31   1.110508 S    
O6    Cu2   1.967646 S    
C56   H37   1.110743 S    
C6    C8    1.394533 A    
C27   O10   1.383737 S    
C65   H61   1.111700 S    
O3    C1    1.298767 A    
O8    Cu1   1.975926 S    
C9    C22   1.480999 S    
O19   C63   1.415750 S    
C28   O9    1.388356 S    
C48   C53   1.491710 S    
C9    C11   1.412746 A    
O14   H34   1.013837 S    
C10   C12   1.413867 A    
C53   O11   1.222004 D    
C4    C19   1.457513 S    
C18   H10   1.083792 S    
C64   H57   1.110574 S    
C60   H49   1.111022 S    
C12   C14   1.413118 A    
C23   C25   1.414212 A    
C40   H21   1.082895 S    
C14   H8    1.081182 S    
C39   H22   1.082752 S    
C37   H15   1.077856 S    
C61   C62   1.519057 S    
C20   C22   1.414977 A    
C51   H28   1.114559 S    
C5    H3    1.082336 S    
C57   H41   1.111329 S    
C57   H40   1.115527 S    
C56   H39   1.109515 S    
C6    H4    1.081734 S    
C66   H63   1.110388 S    
C3    C20   1.461668 S    
O2    Cu2   1.971111 S    
C30   C36   1.459014 S    
C24   C34   1.406123 A    
O5    Cu1   1.967644 S    
C31   H13   1.081507 S    
C19   C21   1.416648 A    
C61   H51   1.111160 S    
C58   H42   1.110704 S    
C32   C34   1.396496 A    
C35   H12   1.086960 S    
C54   O13   1.223474 D    
C42   C44   1.403213 A    
C49   H24   1.108819 S    
C44   C46   1.394942 A    
C41   C43   1.400018 A    
H1    C15   1.082811 S    
C45   H18   1.078857 S    
O18   C61   1.415925 S    
C10   C21   1.489287 S    
C59   H45   1.115321 S    
