data_mof_unit_27521.cif
_audit_creation_date              2013-03-05T16:02:39-0500
_audit_creation_method            fapswitch 2.2
_symmetry_space_group_name_H-M    P1
_symmetry_Int_Tables_number       1
_space_group_crystal_system       triclinic
_cell_length_a                    6.954294
_cell_length_b                    17.360886
_cell_length_c                    18.719472
_cell_angle_alpha                 106.220282
_cell_angle_beta                  89.411599
_cell_angle_gamma                 90.255414
_cell_volume                      2169.97340079

loop_
_atom_site_label
_atom_site_type_symbol
_atom_site_description
_atom_site_fract_x
_atom_site_fract_y
_atom_site_fract_z
_atom_type_partial_charge
O1    O     O_R   0.494360 0.415680 0.413760 -0.577680
O2    O     O_R   0.818810 0.432910 0.557230 -0.552694
O3    O     O_R   0.994290 0.584320 0.586240 -0.588931
C1    C     C_R   0.649748 0.417050 0.581554 0.992149
O4    O     O_R   0.823740 0.406440 0.412520 -0.569473
O5    O     O_R   0.999250 0.557660 0.440500 -0.564893
C2    C     C_R   0.655810 0.383512 0.384565 1.013255
O6    O     O_R   0.489400 0.442340 0.559500 -0.553589
O7    O     O_3   0.662500 0.549650 0.509350 -0.264041
V1    V     V_3+5 0.935340 0.490790 0.498270 1.231432
O8    O     O_R   0.329270 0.567090 0.442770 -0.559872
C3    C     C_R   0.161247 0.584069 0.419429 0.961087
O9    O     O_R   0.324340 0.593560 0.587480 -0.588623
C4    C     C_R   0.154517 0.614583 0.616568 0.970794
V2    V     V_3+5 0.435970 0.509210 0.501730 1.221486
O10   O     O_3   0.158940 0.450350 0.490650 -0.234828
H1    H     H_    0.927360 0.846346 0.548472 0.152420
C5    C     C_R   0.231130 0.595273 0.769185 0.027155
C6    C     C_R   0.309023 0.591730 0.837735 0.135578
C7    C     C_R   0.314207 0.660716 0.898114 0.315676
C8    C     C_R   0.248056 0.732925 0.889586 -0.323803
C9    C     C_R   0.187320 0.740925 0.820248 0.065383
C10   C     C_R   0.186187 0.671698 0.757266 0.020871
C11   C     C_R   0.127060 0.817298 0.814435 -0.236540
C12   C     C_R   0.082861 0.827548 0.743460 0.044929
C13   C     C_R   0.080943 0.758414 0.680207 0.099385
C14   C     C_R   0.138590 0.681811 0.686190 -0.247309
C15   C     C_R   0.045047 0.904297 0.731349 0.100114
C16   C     C_R   0.984484 0.909124 0.661834 -0.092441
C17   C     C_R   0.971563 0.841267 0.602267 -0.117962
C18   C     C_R   0.023772 0.767378 0.610451 -0.175748
H2    H     H_    0.247402 0.783210 0.938991 0.159082
H3    H     H_    0.953275 0.966753 0.652856 0.165368
H4    H     H_    0.018138 0.717527 0.560758 0.111217
C19   C     C_1   0.111348 0.863380 0.132121 -0.207417
C20   C     C_1   0.118810 0.820661 0.175571 0.170987
C21   C     C_1   0.128391 0.770520 0.227522 0.079634
C22   C     C_1   0.136598 0.728390 0.271483 0.053255
C23   C     C_1   0.146145 0.678407 0.323582 0.112245
C24   C     C_1   0.153637 0.635990 0.367307 -0.257868
C25   C     C_1   0.640903 0.365359 0.633818 -0.179953
C26   C     C_1   0.636837 0.322561 0.677218 0.185252
C27   C     C_1   0.633544 0.271952 0.728769 0.085279
C28   C     C_1   0.631037 0.229339 0.772350 0.075186
C29   C     C_1   0.627681 0.178818 0.823988 0.166500
C30   C     C_1   0.623656 0.136092 0.867463 -0.203103
C31   C     C_R   0.713118 0.405328 0.231626 0.083080
C32   C     C_R   0.766444 0.411671 0.161340 -0.220203
C33   C     C_R   0.779570 0.344568 0.100093 0.381302
C34   C     C_R   0.730976 0.269789 0.109038 -0.306549
C35   C     C_R   0.679034 0.259750 0.179359 0.060579
C36   C     C_R   0.679698 0.328045 0.243428 0.052714
C37   C     C_R   0.622325 0.182708 0.185110 -0.198518
C38   C     C_R   0.579913 0.171424 0.256188 0.000384
C39   C     C_R   0.608109 0.237113 0.320741 -0.009434
C40   C     C_R   0.648907 0.315697 0.315079 -0.221944
C41   C     C_R   0.513080 0.097000 0.267101 0.042429
C42   C     C_R   0.436568 0.096393 0.336963 0.120152
C43   C     C_R   0.486665 0.158084 0.399971 0.288733
C44   C     C_R   0.599267 0.221385 0.390759 -0.018662
H5    H     H_    0.795135 0.470393 0.154087 0.204818
H6    H     H_    0.734205 0.219393 0.059775 0.151428
O11   O     O_R   0.775690 0.057750 0.940570 -0.556188
O12   O     O_R   0.441200 0.093570 0.087490 -0.582514
O13   O     O_R   0.265840 0.942320 0.059480 -0.555299
C45   C     C_R   0.609542 0.115279 0.116028 0.970803
O14   O     O_R   0.446270 0.067110 0.942790 -0.561429
O15   O     O_R   0.270950 0.915660 0.913750 -0.583918
C46   C     C_R   0.615269 0.084101 0.919440 0.959677
O16   O     O_R   0.770580 0.084400 0.086300 -0.584686
O17   O     O_3   0.602640 0.950400 0.990690 -0.245396
V3    V     V_3+5 0.329740 0.009200 0.001730 1.229855
O18   O     O_R   0.940900 0.906360 0.912450 -0.581042
C47   C     C_R   0.110897 0.885120 0.883578 0.973697
O19   O     O_R   0.935830 0.932820 0.057160 -0.556746
C48   C     C_R   0.103836 0.915707 0.080373 0.963375
V4    V     V_3+5 0.829130 0.990680 0.998180 1.232179
O20   O     O_3   0.106100 0.049590 0.009310 -0.249539
I1    I     I_    0.669104 0.521401 0.306933 -0.353822
N1    N     N_R   0.836775 0.352669 0.028283 0.251910
O21   O     O_R   0.869623 0.423123 0.018963 -0.322012
O22   O     O_R   0.861168 0.289594 0.971900 -0.398222
I2    I     I_    0.576565 0.980012 0.195149 -0.289167
I3    I     I_    0.249163 0.002288 0.348123 -0.247442
I4    I     I_    0.846680 0.245193 0.459599 -0.233723
I5    I     I_    0.143944 0.481104 0.697196 -0.295856
I6    I     I_    0.434700 0.483789 0.850611 -0.169854
N2    N     N_R   0.380204 0.658235 0.969906 0.252603
O23   O     O_R   0.307846 0.606251 0.001094 -0.314134
O24   O     O_R   0.484309 0.716745 0.009775 -0.381842
I7    I     I_    0.104141 0.020762 0.803369 -0.360104
N3    N     N_R   0.443601 0.152791 0.473603 0.266499
O25   O     O_R   0.483311 0.087843 0.492211 -0.331072
O26   O     O_R   0.391102 0.216729 0.525077 -0.375856

loop_
_geom_bond_atom_site_label_1
_geom_bond_atom_site_label_2
_geom_bond_distance
_ccdc_geom_bond_type
C39   C40   1.424694 A    
C25   C26   1.244776 T    
C6    C7    1.399069 A    
C31   I1    2.133387 S    
C1    O6    1.312163 A    
C41   C42   1.409563 A    
C45   O16   1.295050 A    
C29   C30   1.244961 T    
C12   C15   1.438412 A    
C13   C14   1.425048 A    
C5    I5    2.150843 S    
O13   C48   1.312626 A    
C8    C9    1.412409 A    
C15   C16   1.396506 A    
C21   C22   1.246196 T    
C5    C6    1.415102 A    
C6    I6    2.145904 S    
O5    C3    1.312349 A    
C22   C23   1.477563 S    
C1    C25   1.501674 S    
O15   C47   1.295901 A    
V2    O10   2.161263 S    
C16   H3    1.083030 S    
O14   V3    1.865177 S    
O18   C47   1.305806 A    
C30   C46   1.501266 S    
V3    O20   1.697132 S    
O8    V2    1.849738 S    
O11   C46   1.313406 A    
C41   I2    2.145125 S    
O1    V2    2.002900 S    
C10   C14   1.432021 A    
C4    C14   1.490450 S    
O7    V1    2.139668 S    
C43   C44   1.395012 A    
O9    C4    1.305406 A    
O16   V4    2.006706 S    
H1    C17   1.082861 S    
C2    C40   1.491833 S    
C8    H2    1.079976 S    
C19   C48   1.503145 S    
C5    C10   1.441662 A    
C11   C12   1.425615 A    
N1    O22   1.301597 A    
C23   C24   1.246147 T    
O4    C2    1.299290 A    
C42   C43   1.399641 A    
V4    O20   2.161249 S    
C35   C36   1.431729 A    
C35   C37   1.425107 A    
C19   C20   1.245990 T    
O12   C45   1.301687 A    
C3    C24   1.503373 S    
O2    C1    1.312094 A    
O19   C48   1.314460 A    
C16   C17   1.380756 A    
C42   I3    2.139484 S    
C31   C32   1.396887 A    
O15   V3    2.007605 S    
N3    O26   1.301052 A    
C34   C35   1.418291 A    
C18   H4    1.080074 S    
N2    O23   1.301094 A    
C37   C45   1.485357 S    
O19   V4    1.849772 S    
O3    C4    1.296561 A    
C32   C33   1.390169 A    
N2    O24   1.301530 A    
O6    V2    1.835416 S    
O9    V2    1.998768 S    
C27   C28   1.244952 T    
C34   H6    1.079547 S    
C9    C11   1.425464 A    
C26   C27   1.475401 S    
O2    V1    1.865087 S    
O17   V4    1.711575 S    
C28   C29   1.475534 S    
O11   V4    1.835907 S    
C38   C39   1.425548 A    
C20   C21   1.477408 S    
O1    C2    1.301403 A    
C13   C18   1.418501 A    
N1    O21   1.301768 A    
O5    V1    1.844357 S    
C44   I4    2.129196 S    
C37   C38   1.425758 A    
C31   C36   1.436937 A    
O13   V3    1.844193 S    
C33   N1    1.441941 S    
C12   C13   1.431415 A    
O4    V1    2.006405 S    
O3    V1    2.007629 S    
V1    O10   1.697187 S    
C11   C47   1.490322 S    
C32   H5    1.082831 S    
C17   C18   1.384149 A    
C7    N2    1.436579 S    
N3    O25   1.301213 A    
C15   I7    2.134434 S    
C43   N3    1.435291 S    
O12   V3    2.006315 S    
O7    V2    1.712837 S    
O17   V3    2.139600 S    
C7    C8    1.388219 A    
C33   C34   1.394276 A    
O18   V4    1.998654 S    
C9    C10   1.429335 A    
O14   C46   1.310612 A    
C39   C44   1.412236 A    
C36   C40   1.430087 A    
O8    C3    1.314781 A    
C38   C41   1.437826 A    
