data_mof_unit_28881.cif
_audit_creation_date              2013-03-05T16:44:34-0500
_audit_creation_method            fapswitch 2.2
_symmetry_space_group_name_H-M    P1
_symmetry_Int_Tables_number       1
_space_group_crystal_system       triclinic
_cell_length_a                    27.341113
_cell_length_b                    10.67833
_cell_length_c                    9.886934
_cell_angle_alpha                 89.598532
_cell_angle_beta                  88.532482
_cell_angle_gamma                 90.878665
_cell_volume                      2885.19865743

loop_
_atom_site_label
_atom_site_type_symbol
_atom_site_description
_atom_site_fract_x
_atom_site_fract_y
_atom_site_fract_z
_atom_type_partial_charge
O1    O     O_R   0.500010 0.316790 0.614690 -0.658567
O2    O     O_R   0.500000 0.316760 0.385350 -0.599468
C1    C     C_R   0.501131 0.260040 0.500306 0.906524
O3    O     O_R   0.428760 0.500040 0.614660 -0.645344
O4    O     O_R   0.428750 0.500000 0.385310 -0.575325
C2    C     C_R   0.405866 0.499178 0.501805 0.951619
Zn1   Zn    Zn3+2 0.500000 0.500020 0.653130 0.971237
Zn2   Zn    Zn3+2 0.500000 0.499980 0.346870 0.997972
O5    O     O_R   0.500000 0.683240 0.614650 -0.608915
O6    O     O_R   0.499990 0.683210 0.385310 -0.643022
O7    O     O_R   0.571250 0.500000 0.614690 -0.617284
O8    O     O_R   0.571240 0.499960 0.385340 -0.646644
C3    C     C_R   0.501698 0.739899 0.499584 0.938240
C4    C     C_R   0.594048 0.500795 0.498598 0.944166
C5    C     C_R   0.179973 0.301371 0.489612 0.595640
O9    O     O_2   0.206193 0.226846 0.406344 -0.513267
N1    N     N_R   0.202682 0.395327 0.557934 -0.328048
C6    C     C_R   0.178320 0.465990 0.651877 0.552453
C7    C     C_R   0.269671 0.518887 0.443533 -0.027988
C8    C     C_R   0.320349 0.547361 0.433006 0.127561
C9    C     C_R   0.336169 0.379557 0.593654 -0.220671
C10   C     C_R   0.286823 0.351645 0.605093 -0.105896
C11   C     C_R   0.253513 0.420330 0.531904 0.267663
C12   C     C_R   0.102635 0.366457 0.587532 -0.027926
C13   C     C_R   0.129265 0.286126 0.501838 -0.016586
C14   C     C_R   0.104447 0.193808 0.429985 -0.101042
C15   C     C_R   0.127510 0.448226 0.674691 -0.143858
C16   C     C_R   0.353228 0.476560 0.508487 -0.082660
H1    H     H_    0.361306 0.325121 0.651990 0.169468
H2    H     H_    0.274112 0.277600 0.673350 0.164889
H3    H     H_    0.124094 0.123432 0.372996 0.200315
C17   C     C_R   0.647007 0.490454 0.496287 -0.073242
C18   C     C_R   0.976419 0.311067 0.462153 0.060023
C19   C     C_R   0.974612 0.466511 0.644972 0.017277
C20   C     C_R   0.949993 0.394426 0.546804 0.070217
C21   C     C_R   0.952024 0.256702 0.350461 -0.104449
C22   C     C_R   0.900504 0.255663 0.348184 -0.085702
C23   C     C_R   0.873725 0.337313 0.434317 -0.027293
C24   C     C_R   0.899115 0.410691 0.529735 -0.098872
C25   C     C_R   0.873737 0.501147 0.608258 -0.111711
C26   C     C_R   0.822797 0.507710 0.598193 0.602109
N2    N     N_R   0.799176 0.438551 0.504233 -0.355345
C27   C     C_R   0.822928 0.356728 0.421517 0.574346
C28   C     C_R   0.716219 0.366039 0.556055 -0.107012
C29   C     C_R   0.666218 0.384168 0.557556 -0.226803
C30   C     C_R   0.678290 0.580924 0.432150 -0.103972
C31   C     C_R   0.729056 0.559893 0.427943 0.241433
C32   C     C_R   0.747619 0.453422 0.492469 0.239450
O10   O     O_2   0.797190 0.297645 0.325801 -0.496659
C33   C     C_R   0.026792 0.291320 0.487846 0.085218
C34   C     C_R   0.051140 0.367939 0.582114 0.048287
C35   C     C_R   0.024603 0.446603 0.669716 -0.029758
C36   C     C_R   0.053661 0.193340 0.427897 -0.124382
H4    H     H_    0.642288 0.314849 0.606652 0.160334
H5    H     H_    0.730825 0.284817 0.606287 0.173070
H6    H     H_    0.036049 0.116445 0.377030 0.151013
O11   O     O_2   0.203109 0.555916 0.717929 -0.566921
C37   C     C_R   0.100586 0.507950 0.779693 -0.095137
C38   C     C_R   0.950187 0.567718 0.703936 -0.184409
C39   C     C_R   0.900481 0.584038 0.690177 0.339563
O12   O     O_2   0.796371 0.581040 0.681957 -0.458820
C40   C     C_R   0.049050 0.498692 0.781947 0.246835
H7    H     H_    0.970079 0.639281 0.757363 0.208943
C41   C     C_R   0.507706 0.062515 0.622568 -0.009377
C42   C     C_R   0.508221 0.128730 0.500548 -0.063175
C43   C     C_R   0.518079 0.066327 0.378514 -0.134270
H8    H     H_    0.522120 0.116228 0.282994 0.200559
C44   C     C_R   0.518527 0.936859 0.377945 -0.115463
H9    H     H_    0.522502 0.889010 0.282134 0.174412
C45   C     C_R   0.509602 0.871398 0.499639 -0.042678
C46   C     C_R   0.509490 0.934990 0.622053 0.064394
C47   C     C_3   0.476691 0.920811 0.744912 -0.367079
C48   C     C_3   0.473722 0.063586 0.745147 -0.062379
H10   H     H_    0.441726 0.871196 0.722746 0.231293
H11   H     H_    0.496479 0.880196 0.831436 0.221506
C49   C     C_R   0.467406 0.426327 0.074428 0.205012
N3    N     N_R   0.499670 0.499140 0.142800 -0.172109
C50   C     C_R   0.535078 0.564578 0.067219 -0.004389
C51   C     C_R   0.535128 0.562198 0.923427 -0.036320
H12   H     H_    0.562235 0.615230 0.864342 0.193704
N4    N     N_R   0.499670 0.499180 0.857150 -0.124917
C52   C     C_R   0.466583 0.429249 0.932172 0.120605
C53   C     C_3   0.411853 0.439139 0.933821 -0.358821
C54   C     C_3   0.413053 0.431742 0.087587 0.064294
H13   H     H_    0.393804 0.357221 0.886670 0.147052
H14   H     H_    0.400197 0.516921 0.140513 0.203115
C55   C     C_2   0.234363 0.593029 0.364399 0.495043
H15   H     H_    0.245600 0.680374 0.315869 0.131540
O13   O     O_2   0.192212 0.557226 0.350189 -0.546705
C56   C     C_2   0.125608 0.569805 0.893472 0.624877
H16   H     H_    0.158058 0.528896 0.935328 0.094770
O14   O     O_2   0.110562 0.667942 0.940174 -0.496235
C57   C     C_2   0.659208 0.699792 0.377014 0.461655
H17   H     H_    0.677771 0.746613 0.292218 0.155190
O15   O     O_2   0.623482 0.749361 0.428798 -0.608393
Br1   Br    Br    0.874314 0.729740 0.778701 -0.303991
Br2   Br    Br    0.774215 0.677770 0.341360 -0.371863
Br3   Br    Br    0.014427 0.519856 0.954294 -0.365123
C58   C     C_2   0.422657 0.109635 0.720440 0.435811
H18   H     H_    0.401502 0.150530 0.802691 0.092100
O16   O     O_2   0.403694 0.095850 0.610867 -0.542764
C59   C     C_2   0.496949 0.123418 0.865756 0.353343
H19   H     H_    0.526847 0.190706 0.851714 0.090288
O17   O     O_2   0.481652 0.098903 0.980155 -0.537114
C60   C     C_2   0.572253 0.644052 0.131956 0.411145
H20   H     H_    0.567195 0.675168 0.234062 0.150818
O18   O     O_2   0.609274 0.678459 0.069687 -0.573353
C61   C     C_2   0.393009 0.562799 0.883666 0.516154
H21   H     H_    0.360627 0.563876 0.822561 0.087359
O19   O     O_2   0.412857 0.661868 0.913089 -0.553330
Br4   Br    Br    0.385640 0.276271 0.161457 -0.372851
C62   C     C_2   0.875993 0.170728 0.251902 0.535421
H22   H     H_    0.883055 0.180745 0.143837 0.058967
O20   O     O_2   0.848982 0.086203 0.293882 -0.462636
C63   C     C_2   0.978990 0.218412 0.224855 0.396192
H23   H     H_    0.967542 0.136314 0.169205 0.067097
O21   O     O_2   0.013466 0.281345 0.180078 -0.484546
Br5   Br    Br    0.344975 0.686435 0.323691 -0.466701

loop_
_geom_bond_atom_site_label_1
_geom_bond_atom_site_label_2
_geom_bond_distance
_ccdc_geom_bond_type
C37   C40   1.410578 A    
C43   C44   1.382788 A    
C55   H15   1.082564 S    
C57   H17   1.083964 S    
C25   C39   1.412334 A    
C26   N2    1.360594 A    
C7    C11   1.420999 A    
C7    C8    1.415074 A    
C12   C15   1.410633 A    
C26   O12   1.347918 S    
C49   C54   1.490486 S    
C62   O20   1.221020 D    
N4    C52   1.365036 A    
N3    C50   1.385190 A    
C53   C61   1.509896 S    
Zn1   O7    1.975209 S    
C60   O18   1.221495 D    
N1    C11   1.427680 S    
C53   C54   1.522985 S    
C21   C22   1.409237 A    
C54   H14   1.109840 S    
C7    C55   1.491413 S    
C47   H11   1.112787 S    
O4    C2    1.296506 A    
O7    C4    1.291936 A    
C5    C13   1.395515 A    
C3    C45   1.417449 S    
C5    O9    1.349598 S    
C18   C21   1.426946 A    
C61   H21   1.084719 S    
C48   C58   1.512486 S    
C19   C20   1.419749 A    
C17   C29   1.398543 A    
C41   C46   1.363413 A    
O5    C3    1.284226 A    
C22   C62   1.484594 S    
C19   C35   1.413683 A    
C40   Br3   1.944249 S    
C2    C16   1.455386 S    
C58   H18   1.084073 S    
C44   H9    1.083252 S    
C63   O21   1.221127 D    
C41   C48   1.508340 S    
C45   C46   1.391885 A    
C12   C34   1.410649 A    
C43   H8    1.083441 S    
C14   H3    1.083328 S    
C57   O15   1.220828 D    
C9    C10   1.378858 A    
C1    C42   1.418440 S    
O3    Zn1   1.994110 S    
C8    Br5   1.932997 S    
C62   H22   1.085113 S    
C33   C34   1.416683 A    
C54   Br4   1.941172 S    
C34   C35   1.406727 A    
C33   C36   1.412658 A    
C12   C13   1.407657 A    
C47   H10   1.113299 S    
C49   C52   1.407371 A    
C24   C25   1.421492 A    
C51   N4    1.356747 A    
C50   C51   1.422035 A    
C27   O10   1.348193 S    
C8    C16   1.408521 A    
C18   C33   1.425455 A    
C9    H1    1.082017 S    
O6    C3    1.287066 A    
O1    C1    1.286671 A    
C20   C24   1.418704 A    
C22   C23   1.421082 A    
C6    O11   1.348867 S    
C56   O14   1.221020 D    
C31   C32   1.407594 A    
Zn2   O8    1.994110 S    
N1    C6    1.367216 A    
N2    C32   1.428550 S    
C49   N3    1.362536 A    
C59   O17   1.221053 D    
C37   C56   1.485180 S    
C39   Br1   1.928651 S    
O3    C2    1.293300 A    
C48   C59   1.506800 S    
Zn1   N4    2.016878 S    
C9    C16   1.397274 A    
O8    C4    1.295598 A    
C29   H4    1.084190 S    
C42   C43   1.404476 A    
C50   C60   1.475624 S    
Zn2   N3    2.017960 S    
N2    C27   1.361677 A    
C14   C36   1.389172 A    
C28   C29   1.383368 A    
C36   H6    1.079382 S    
Zn1   O5    1.990511 S    
C30   C31   1.409059 A    
C25   C26   1.401606 A    
C10   H2    1.083261 S    
C53   H13   1.109190 S    
O1    Zn1   1.995776 S    
C19   C38   1.401714 A    
C17   C30   1.416070 A    
O2    Zn2   1.990512 S    
C6    C15   1.411376 A    
C4    C17   1.453453 S    
C47   C48   1.528020 S    
C15   C37   1.418075 A    
O4    Zn2   1.975211 S    
C5    N1    1.363916 A    
C60   H20   1.071260 S    
C38   H7    1.079999 S    
C31   Br2   1.929964 S    
C41   C42   1.393702 A    
C55   O13   1.220472 D    
O2    C1    1.285420 A    
C13   C14   1.396757 A    
C23   C27   1.416126 A    
C35   C40   1.422203 A    
C28   H5    1.083098 S    
C56   H16   1.085086 S    
C23   C24   1.418818 A    
C30   C57   1.485166 S    
C18   C20   1.419169 A    
C61   O19   1.221900 D    
C59   H19   1.085623 S    
C51   H12   1.082376 S    
C28   C32   1.393751 A    
C38   C39   1.382830 A    
C46   C47   1.496686 S    
Zn2   O6    1.995775 S    
C52   C53   1.501385 S    
C44   C45   1.401343 A    
C10   C11   1.392049 A    
C21   C63   1.490783 S    
C58   O16   1.221784 D    
C63   H23   1.084623 S    
