data_mof_unit_18375.cif
_audit_creation_date              2012-10-26T17:13:08-0400
_audit_creation_method            fapswitch 2.2
_symmetry_space_group_name_H-M    P1
_symmetry_Int_Tables_number       1
_space_group_crystal_system       triclinic
_cell_length_a                    16.939742
_cell_length_b                    16.916198
_cell_length_c                    16.934544
_cell_angle_alpha                 68.54386
_cell_angle_beta                  68.412238
_cell_angle_gamma                 68.713336
_cell_volume                      4050.62537698

loop_
_atom_site_label
_atom_site_type_symbol
_atom_type_description
_atom_site_fract_x
_atom_site_fract_y
_atom_site_fract_z
_atom_type_partial_charge
C1    C     C_R   0.320811 0.964862 0.447957 -0.029131
C2    C     C_R   0.690632 0.992903 0.566704 -0.024406
C3    C     C_R   0.971097 0.446338 0.318267 -0.026402
C4    C     C_R   0.040232 0.550528 0.677141 -0.022916
C5    C     C_R   0.448404 0.320403 0.967355 -0.025096
C6    C     C_R   0.566007 0.688460 0.998672 -0.027151
C7    C     C_R   0.553275 0.031645 0.679436 -0.023296
C8    C     C_R   0.450203 0.960287 0.321227 -0.022548
C9    C     C_R   0.677952 0.551659 0.039196 -0.023282
C10   C     C_R   0.321575 0.449707 0.963138 -0.020212
C11   C     C_R   0.045014 0.677592 0.547592 -0.024528
C12   C     C_R   0.968641 0.319432 0.446688 -0.027249
C13   C     C_R   0.456642 0.978852 0.455307 0.020105
C14   C     C_R   0.550381 0.000262 0.550425 0.019727
C15   C     C_R   0.993416 0.451925 0.450914 0.020245
C16   C     C_R   0.026744 0.543094 0.540971 0.019203
C17   C     C_R   0.454247 0.454294 0.986397 0.018594
C18   C     C_R   0.548328 0.547169 0.010644 0.020942
C19   C     C_R   0.025462 0.828892 0.565253 0.838284
C20   C     C_R   0.975141 0.170866 0.434216 0.834882
C21   C     C_R   0.828967 0.565498 0.025197 0.853060
C22   C     C_R   0.171130 0.434246 0.975731 0.830795
C23   C     C_R   0.565866 0.024190 0.829049 0.834066
C24   C     C_R   0.434494 0.975006 0.170921 0.842874
C25   C     C_R   0.434040 0.170942 0.976420 0.830177
C26   C     C_R   0.568860 0.831030 0.015875 0.844629
C27   C     C_R   0.975297 0.434081 0.170827 0.835632
C28   C     C_R   0.024349 0.565910 0.828760 0.849341
C29   C     C_R   0.170792 0.976628 0.433749 0.826986
C30   C     C_R   0.831364 0.014832 0.569072 0.849829
C31   C     C_R   0.408364 0.970803 0.406969 -0.016173
C32   C     C_R   0.598116 0.008925 0.598758 -0.012331
C33   C     C_R   0.980628 0.404658 0.404171 -0.016337
C34   C     C_R   0.035599 0.591228 0.589128 -0.007141
C35   C     C_R   0.406907 0.407239 0.974893 -0.013304
C36   C     C_R   0.597217 0.595710 0.017177 -0.007904
C37   C     C_R   0.268041 0.968304 0.396835 -0.209145
C38   C     C_R   0.737446 0.010959 0.610043 -0.204564
C39   C     C_R   0.967385 0.396413 0.267468 -0.200993
C40   C     C_R   0.035940 0.601675 0.730370 -0.222200
C41   C     C_R   0.398037 0.268602 0.967129 -0.216477
C42   C     C_R   0.609964 0.736627 0.013650 -0.204467
C43   C     C_R   0.603173 0.030967 0.732037 -0.226396
C44   C     C_R   0.398047 0.966107 0.268124 -0.215574
C45   C     C_R   0.731777 0.602510 0.034200 -0.229847
C46   C     C_R   0.269050 0.398523 0.965499 -0.217837
C47   C     C_R   0.038133 0.730791 0.600165 -0.224830
C48   C     C_R   0.966566 0.267792 0.396740 -0.200078
C49   C     C_R   0.459941 0.053823 0.704326 0.199781
C50   C     C_R   0.543624 0.938579 0.294586 0.197752
C51   C     C_R   0.066056 0.705094 0.454076 0.178785
C52   C     C_R   0.949509 0.293059 0.540065 0.202238
C53   C     C_R   0.701880 0.458234 0.064641 0.174548
C54   C     C_R   0.294812 0.543015 0.943542 0.202376
C55   C     C_R   0.291524 0.950413 0.540455 0.201401
C56   C     C_R   0.732986 0.956808 0.493418 0.168842
C57   C     C_R   0.540933 0.291390 0.953550 0.205077
C58   C     C_R   0.491994 0.729649 0.964440 0.163793
C59   C     C_R   0.956312 0.539322 0.290251 0.202886
C60   C     C_R   0.053828 0.458321 0.706725 0.198589
C61   C     C_R   0.306634 0.974308 0.306035 0.344755
C62   C     C_R   0.693702 0.026163 0.693873 0.348825
C63   C     C_R   0.965201 0.306722 0.307103 0.332810
C64   C     C_R   0.034181 0.691437 0.690623 0.351023
C65   C     C_R   0.308713 0.308654 0.967253 0.330336
C66   C     C_R   0.694297 0.693561 0.027551 0.354742
C67   C     C_R   0.685096 0.972490 0.433954 0.023134
C68   C     C_R   0.328007 0.982329 0.581534 0.019982
C69   C     C_R   0.022528 0.417022 0.669952 0.023664
C70   C     C_R   0.991220 0.580331 0.324511 0.019404
C71   C     C_R   0.432156 0.681219 0.983631 0.022737
C72   C     C_R   0.581573 0.326711 0.987619 0.019758
C73   C     C_R   0.589200 0.962998 0.333731 0.023246
C74   C     C_R   0.416188 0.023140 0.668996 0.022495
C75   C     C_R   0.332898 0.587101 0.970905 0.020549
C76   C     C_R   0.665784 0.413083 0.035890 0.024677
C77   C     C_R   0.980538 0.329225 0.582893 0.020185
C78   C     C_R   0.038930 0.666788 0.409430 0.017946
C79   C     C_R   0.725811 0.973913 0.344198 0.169227
C80   C     C_R   0.283295 0.999435 0.664785 0.170282
C81   C     C_R   0.003060 0.334844 0.715845 0.173119
C82   C     C_R   0.007105 0.664574 0.279692 0.175102
C83   C     C_R   0.342510 0.721507 0.987215 0.169281
C84   C     C_R   0.665300 0.282429 0.004302 0.172482
C85   C     C_R   0.677468 0.969452 0.293589 0.170346
C86   C     C_R   0.328710 0.015194 0.710559 0.176630
C87   C     C_R   0.292581 0.674834 0.979035 0.175087
C88   C     C_R   0.708295 0.326199 0.026736 0.178304
C89   C     C_R   0.987620 0.288525 0.670722 0.172058
C90   C     C_R   0.028663 0.708972 0.322747 0.169876
C91   C     C_R   0.545925 0.978202 0.417415 -0.041322
C92   C     C_R   0.460228 0.004558 0.586795 -0.043586
C93   C     C_R   0.997933 0.412174 0.538644 -0.041465
C94   C     C_R   0.022846 0.582905 0.453021 -0.039621
C95   C     C_R   0.415862 0.542973 0.987475 -0.042189
C96   C     C_R   0.584415 0.457033 0.015573 -0.040753
C97   C     C_R   0.593500 0.985300 0.466477 -0.036191
C98   C     C_R   0.414627 0.989636 0.540972 -0.040253
C99   C     C_R   0.464579 0.589973 0.995849 -0.035114
C100  C     C_R   0.539583 0.411988 0.998258 -0.040822
C101  C     C_R   0.015392 0.457409 0.583227 -0.040597
C102  C     C_R   0.004069 0.537990 0.408871 -0.040301
Cu1   Cu    Cu3+1 0.995180 0.995180 0.424630 0.907013
Cu2   Cu    Cu3+1 0.004820 0.004820 0.575370 0.924160
Cu3   Cu    Cu3+1 0.995180 0.424630 0.995180 0.889771
Cu4   Cu    Cu3+1 0.004820 0.575370 0.004820 0.928226
Cu5   Cu    Cu3+1 0.424630 0.995180 0.995180 0.894492
Cu6   Cu    Cu3+1 0.575370 0.004820 0.004820 0.926263
O1    O     O_R   0.124540 0.978640 0.385460 -0.553925
O2    O     O_R   0.875460 0.021360 0.614540 -0.540319
O3    O     O_R   0.978640 0.385460 0.124540 -0.574065
O4    O     O_R   0.021360 0.614540 0.875460 -0.536891
O5    O     O_R   0.385460 0.124540 0.978640 -0.557334
O6    O     O_R   0.614540 0.875460 0.021360 -0.540211
O7    O     O_R   0.614540 0.021360 0.875460 -0.537394
O8    O     O_R   0.385460 0.978640 0.124540 -0.546407
O9    O     O_R   0.875460 0.614540 0.021360 -0.537816
O10   O     O_R   0.124540 0.385460 0.978640 -0.554536
O11   O     O_R   0.021360 0.875460 0.614540 -0.539324
O12   O     O_R   0.978640 0.124540 0.385460 -0.574880
O13   O     O_R   0.013780 0.867370 0.487190 -0.610064
O14   O     O_R   0.986220 0.132630 0.512810 -0.600039
O15   O     O_R   0.867370 0.487190 0.013780 -0.601103
O16   O     O_R   0.132630 0.512810 0.986220 -0.599858
O17   O     O_R   0.487190 0.013780 0.867370 -0.610217
O18   O     O_R   0.512810 0.986220 0.132630 -0.603594
O19   O     O_R   0.512810 0.132630 0.986220 -0.601811
O20   O     O_R   0.487190 0.867370 0.013780 -0.602339
O21   O     O_R   0.986220 0.512810 0.132630 -0.601942
O22   O     O_R   0.013780 0.487190 0.867370 -0.601726
O23   O     O_R   0.132630 0.986220 0.512810 -0.604460
O24   O     O_R   0.867370 0.013780 0.487190 -0.596722
O25   O     O_3   0.255089 0.983326 0.254524 -0.542648
C103  C     C_3   0.226881 0.073333 0.210766 0.144391
H1    H     H_    0.280577 0.107333 0.181347 0.123935
H2    H     H_    0.174246 0.108944 0.257724 0.095730
C104  C     C_3   0.193044 0.079197 0.136379 -0.736856
H3    H     H_    0.136328 0.049976 0.163770 0.213749
H4    H     H_    0.173566 0.148790 0.098864 0.225667
H5    H     H_    0.244381 0.042734 0.089563 0.271469
O26   O     O_3   0.742650 0.026843 0.742877 -0.521699
C105  C     C_3   0.733935 0.114865 0.736157 0.142865
H6    H     H_    0.664239 0.150420 0.760359 0.118959
H7    H     H_    0.758114 0.151334 0.666685 0.123362
C106  C     C_3   0.787348 0.113853 0.791443 -0.792040
H8    H     H_    0.780253 0.182451 0.788694 0.180175
H9    H     H_    0.763570 0.076940 0.860926 0.254904
H10   H     H_    0.857647 0.080589 0.766185 0.253327
O27   O     O_3   0.938349 0.265238 0.267135 -0.552842
C107  C     C_3   0.009594 0.218630 0.209482 0.170461
H11   H     H_    0.038868 0.151657 0.243913 0.165031
H12   H     H_    0.065328 0.249565 0.174840 0.128041
C108  C     C_3   0.974457 0.206571 0.144473 -0.773846
H13   H     H_    0.028225 0.170771 0.098418 0.179582
H14   H     H_    0.924906 0.167992 0.181245 0.227865
H15   H     H_    0.943156 0.270424 0.104471 0.260960
O28   O     O_3   0.025981 0.742500 0.742010 -0.521422
C109  C     C_3   0.111322 0.740870 0.737117 0.145096
H16   H     H_    0.148693 0.765030 0.668117 0.120842
H17   H     H_    0.149500 0.672923 0.761999 0.119507
C110  C     C_3   0.103546 0.798802 0.791346 -0.783001
H18   H     H_    0.170321 0.801021 0.784470 0.176463
H19   H     H_    0.063961 0.866678 0.767331 0.256100
H20   H     H_    0.070885 0.772000 0.861696 0.250741
O29   O     O_3   0.258069 0.257883 0.972970 -0.558300
C111  C     C_3   0.261790 0.263238 0.886795 0.155069
H21   H     H_    0.330335 0.238962 0.848948 0.127129
H22   H     H_    0.237578 0.332248 0.850067 0.128117
C112  C     C_3   0.205097 0.208321 0.892785 -0.836528
H23   H     H_    0.204591 0.214482 0.825527 0.194174
H24   H     H_    0.231641 0.138231 0.925662 0.246862
H25   H     H_    0.136623 0.231740 0.931847 0.250850
O30   O     O_3   0.743653 0.743106 0.026945 -0.520511
C113  C     C_3   0.738622 0.733242 0.114747 0.141969
H26   H     H_    0.764596 0.663615 0.149142 0.120541
H27   H     H_    0.669407 0.754212 0.152770 0.121117
C114  C     C_3   0.792504 0.788617 0.113436 -0.792373
H28   H     H_    0.789580 0.782057 0.181959 0.186392
H29   H     H_    0.862077 0.766096 0.076349 0.251920
H30   H     H_    0.766406 0.858702 0.080192 0.254230
C115  C     C_3   0.286209 0.012344 0.806789 -0.900044
H31   H     H_    0.248288 0.962366 0.838713 0.234481
H32   H     H_    0.335187 0.992606 0.843931 0.240091
H33   H     H_    0.240035 0.076872 0.812774 0.234483
C116  C     C_3   0.717955 0.980508 0.195709 -0.876687
H34   H     H_    0.744449 0.038411 0.166340 0.227968
H35   H     H_    0.772977 0.922161 0.184059 0.234192
H36   H     H_    0.669748 0.994446 0.159446 0.243853
C117  C     C_3   0.032821 0.803860 0.278909 -0.877381
H37   H     H_    0.994454 0.837854 0.229693 0.228685
H38   H     H_    0.003094 0.842864 0.327928 0.238659
H39   H     H_    0.102082 0.806233 0.244634 0.236945
C118  C     C_3   0.984997 0.193889 0.715422 -0.891695
H40   H     H_    0.027337 0.161615 0.760925 0.234036
H41   H     H_    0.917338 0.192236 0.755461 0.233221
H42   H     H_    0.009646 0.154508 0.667189 0.246539
C119  C     C_3   0.803124 0.284229 0.030211 -0.893504
H43   H     H_    0.838999 0.238291 0.988093 0.233910
H44   H     H_    0.840530 0.334566 0.003615 0.246358
H45   H     H_    0.804989 0.247317 0.099042 0.234846
C120  C     C_3   0.196473 0.717429 0.982693 -0.884791
H46   H     H_    0.164680 0.761849 0.025964 0.231213
H47   H     H_    0.191243 0.758274 0.916295 0.231381
H48   H     H_    0.158267 0.667821 0.009015 0.245115
C121  C     C_3   0.185058 0.010788 0.701292 -0.883189
H49   H     H_    0.155287 0.065900 0.732176 0.237019
H50   H     H_    0.152350 0.028734 0.648870 0.248673
H51   H     H_    0.171105 0.950148 0.751819 0.228437
C122  C     C_3   0.816062 0.991108 0.299399 -0.862938
H52   H     H_    0.862424 0.934852 0.273613 0.231389
H53   H     H_    0.812582 0.052278 0.244655 0.222894
H54   H     H_    0.843000 0.003549 0.342749 0.250874
C123  C     C_3   0.705678 0.186360 0.005762 -0.884010
H55   H     H_    0.744224 0.152466 0.054483 0.232710
H56   H     H_    0.654663 0.150860 0.026274 0.249127
H57   H     H_    0.750630 0.180657 0.940183 0.228840
C124  C     C_3   0.297799 0.807979 0.012036 -0.867191
H58   H     H_    0.247273 0.797701 0.076328 0.227716
H59   H     H_    0.342821 0.834929 0.022066 0.255087
H60   H     H_    0.266148 0.857444 0.961130 0.227722
C125  C     C_3   0.010620 0.703382 0.183046 -0.886702
H61   H     H_    0.063985 0.736633 0.148940 0.236426
H62   H     H_    0.026786 0.652079 0.149308 0.249230
H63   H     H_    0.947387 0.752152 0.175312 0.227739
C126  C     C_3   0.986935 0.301370 0.815119 -0.882139
H64   H     H_    0.929037 0.273886 0.844690 0.237306
H65   H     H_    0.045264 0.249308 0.832270 0.225787
H66   H     H_    0.970305 0.354946 0.846092 0.251914
C127  C     C_3   0.409777 0.135180 0.737028 -0.848457
H67   H     H_    0.370558 0.117845 0.805913 0.262960
H68   H     H_    0.454673 0.171805 0.732623 0.200759
H69   H     H_    0.364538 0.180990 0.696109 0.221553
C128  C     C_3   0.591680 0.858505 0.259690 -0.846340
H70   H     H_    0.545703 0.822254 0.265767 0.210603
H71   H     H_    0.627919 0.877538 0.190035 0.262184
H72   H     H_    0.639199 0.811653 0.297695 0.220322
C129  C     C_3   0.145640 0.742398 0.404975 -0.790228
H73   H     H_    0.127928 0.812894 0.369436 0.267252
H74   H     H_    0.182396 0.735375 0.450695 0.203035
H75   H     H_    0.192242 0.705260 0.356417 0.220932
C130  C     C_3   0.866698 0.262466 0.591478 -0.837584
H76   H     H_    0.827796 0.270062 0.547517 0.213270
H77   H     H_    0.882714 0.192885 0.628865 0.260955
H78   H     H_    0.823264 0.302437 0.638530 0.219796
C131  C     C_3   0.735091 0.410803 0.146399 -0.790764
H79   H     H_    0.805252 0.374444 0.131114 0.263555
H80   H     H_    0.726715 0.457738 0.182529 0.204419
H81   H     H_    0.696357 0.363263 0.192553 0.225354
C132  C     C_3   0.259528 0.593688 0.863905 -0.851761
H82   H     H_    0.263234 0.549316 0.827111 0.201312
H83   H     H_    0.190591 0.631485 0.883554 0.261609
H84   H     H_    0.299041 0.640395 0.817188 0.219873
C133  C     C_3   0.258094 0.869974 0.594898 -0.838074
H85   H     H_    0.189576 0.889302 0.633986 0.260708
H86   H     H_    0.261319 0.830918 0.552876 0.207901
H87   H     H_    0.298979 0.825895 0.640728 0.216864
C134  C     C_3   0.809242 0.874223 0.500045 -0.771619
H88   H     H_    0.869943 0.882841 0.446997 0.249820
H89   H     H_    0.824597 0.852522 0.564316 0.215905
H90   H     H_    0.791270 0.819244 0.495748 0.213241
C135  C     C_3   0.595429 0.260916 0.871420 -0.846988
H91   H     H_    0.632021 0.191279 0.888653 0.262785
H92   H     H_    0.553794 0.268653 0.830040 0.203578
H93   H     H_    0.643212 0.300812 0.830063 0.220940
C136  C     C_3   0.496336 0.805477 0.881074 -0.761176
H94   H     H_    0.441245 0.864384 0.890201 0.248519
H95   H     H_    0.559211 0.824092 0.857950 0.217207
H96   H     H_    0.492936 0.785451 0.827062 0.211762
C137  C     C_3   0.873339 0.593636 0.261695 -0.838095
H97   H     H_    0.889301 0.632335 0.192482 0.258658
H98   H     H_    0.832320 0.551620 0.268968 0.210292
H99   H     H_    0.832176 0.639758 0.303221 0.218963
C138  C     C_3   0.132363 0.403805 0.742409 -0.847154
H100  H     H_    0.171026 0.445715 0.740344 0.201209
H101  H     H_    0.111251 0.365094 0.810893 0.264916
H102  H     H_    0.177411 0.357706 0.701906 0.218678

loop_
_geom_bond_atom_site_label_1
_geom_bond_atom_site_label_2
_ccdc_geom_bond_type
C68   C80   A    
Cu4   O21   S    
C83   C87   A    
C20   C48   S    
C9    C45   A    
O28   C109  S    
C117  H39   S    
C18   C96   A    
C120  H46   S    
C6    C58   A    
C11   C47   A    
Cu1   O12   S    
C79   C85   A    
C12   C48   A    
C126  H66   S    
C103  C104  S    
C110  H18   S    
C75   C95   A    
C111  H22   S    
C82   C125  S    
Cu4   O4    S    
C115  H31   S    
C78   C90   A    
C124  H60   S    
C104  H4    S    
C57   C135  S    
C132  H82   S    
C127  H67   S    
C81   C126  S    
C30   O2    A    
Cu6   O7    S    
C29   O1    A    
C23   O7    A    
C126  H64   S    
Cu5   O20   S    
C134  H88   S    
C125  H63   S    
C133  H85   S    
C83   C124  S    
C19   C47   S    
C58   C71   A    
C116  H35   S    
Cu2   O14   S    
C28   C40   S    
C95   C99   A    
C74   C92   A    
C129  H74   S    
C65   O29   S    
C1    C31   A    
C138  H102  S    
C23   C43   S    
Cu3   O15   S    
C68   C98   A    
C2    C32   A    
C130  H76   S    
C112  H23   S    
Cu6   O6    S    
C13   C98   A    
C117  H38   S    
C113  H26   S    
C63   O27   S    
C21   O9    A    
Cu1   Cu2   S    
C109  C110  S    
C110  H19   S    
O26   C105  S    
C109  H17   S    
Cu5   O5    S    
Cu6   O19   S    
C56   C134  S    
Cu1   O24   S    
C27   C39   S    
C114  H29   S    
C107  C108  S    
C64   O28   S    
C10   C46   A    
C86   C115  S    
C80   C86   A    
Cu5   Cu6   S    
C109  H16   S    
C66   O30   S    
C10   C35   A    
C17   C95   A    
C7    C43   A    
C108  H14   S    
C128  H70   S    
C76   C88   A    
C124  H59   S    
C20   O14   A    
C137  H97   S    
C118  H40   S    
C131  H81   S    
C1    C37   A    
C23   O17   A    
Cu2   O11   S    
C16   C34   A    
C114  H30   S    
C115  H32   S    
C80   C121  S    
Cu3   O3    S    
C104  H3    S    
C19   O11   A    
C15   C102  A    
C125  H62   S    
C129  H73   S    
C13   C91   A    
C24   O18   A    
C120  H47   S    
C105  C106  S    
C112  H24   S    
C117  H37   S    
C21   C45   S    
C10   C54   A    
C110  H20   S    
C12   C52   A    
C106  H8    S    
C71   C83   A    
C121  H50   S    
C85   C116  S    
C126  H65   S    
C104  H5    S    
C4    C34   A    
C132  H83   S    
C136  H94   S    
C60   C138  S    
C106  H9    S    
C61   O25   S    
C4    C40   A    
C67   C79   A    
C7    C49   A    
C46   C65   A    
C122  H52   S    
C50   C73   A    
C93   C101  A    
C47   C64   A    
C135  H92   S    
C55   C68   A    
C48   C63   A    
C41   C65   A    
C118  H41   S    
C124  H58   S    
O30   C113  S    
C71   C99   A    
Cu2   O23   S    
C28   O4    A    
C55   C133  S    
C38   C62   A    
C134  H89   S    
C88   C119  S    
C21   O15   A    
C50   C128  S    
C8    C44   A    
C3    C33   A    
C26   O6    A    
C125  H61   S    
C25   O5    A    
C9    C36   A    
O25   C103  S    
C136  H95   S    
C2    C38   A    
C37   C61   A    
C123  H55   S    
C118  H42   S    
C89   C118  S    
C4    C60   A    
C138  H100  S    
C51   C129  S    
C113  H27   S    
C26   O20   A    
C74   C86   A    
C108  H15   S    
C128  H71   S    
C113  C114  S    
C73   C91   A    
C22   O10   A    
C72   C84   A    
C69   C81   A    
C121  H49   S    
C75   C87   A    
C22   C46   S    
C14   C92   A    
C119  H44   S    
C24   O8    A    
Cu5   O17   S    
C119  H45   S    
C131  H80   S    
Cu4   O9    S    
Cu3   O22   S    
C111  H21   S    
C24   C44   S    
C120  H48   S    
C107  H12   S    
Cu3   O10   S    
C137  H99   S    
C53   C76   A    
C9    C53   A    
C18   C99   A    
C62   O26   S    
C29   C37   S    
C52   C77   A    
Cu1   O13   S    
C8    C50   A    
C20   O12   A    
C106  H10   S    
C49   C127  S    
C84   C123  S    
C26   C42   S    
C14   C97   A    
C133  H86   S    
C72   C100  A    
C121  H51   S    
C79   C122  S    
C5    C41   A    
C19   O13   A    
C132  H84   S    
C7    C32   A    
C115  H33   S    
C59   C137  S    
C136  H96   S    
C105  H6    S    
C8    C31   A    
C13   C31   A    
C11   C34   A    
C42   C66   A    
C84   C88   A    
C131  H79   S    
C116  H36   S    
C40   C64   A    
C17   C100  A    
C15   C93   A    
C135  H93   S    
C103  H2    S    
C70   C102  A    
C22   O16   A    
C123  H57   S    
C77   C89   A    
C69   C101  A    
C44   C61   A    
C127  H69   S    
C56   C67   A    
C39   C63   A    
Cu3   Cu4   S    
C5    C35   A    
C103  H1    S    
C16   C94   A    
C82   C90   A    
C5    C57   A    
Cu1   O1    S    
C130  H78   S    
Cu6   O18   S    
C134  H90   S    
C133  H87   S    
C137  H98   S    
C25   O19   A    
C123  H56   S    
C81   C89   A    
C73   C85   A    
C127  H68   S    
C2    C56   A    
C52   C130  S    
C76   C96   A    
Cu2   O2    S    
C91   C97   A    
C28   O22   A    
C116  H34   S    
C29   O23   A    
C60   C69   A    
C78   C94   A    
C27   O21   A    
C96   C100  A    
C58   C136  S    
C77   C93   A    
C138  H101  S    
C54   C132  S    
C6    C36   A    
O29   C111  S    
C105  H7    S    
C57   C72   A    
C1    C55   A    
C119  H43   S    
C70   C82   A    
C128  H72   S    
C53   C131  S    
Cu5   O8    S    
C51   C78   A    
C11   C51   A    
C67   C97   A    
C59   C70   A    
C27   O3    A    
C54   C75   A    
C30   O24   A    
C16   C101  A    
C14   C32   A    
C94   C102  A    
C111  C112  S    
C92   C98   A    
C114  H28   S    
C6    C42   A    
C129  H75   S    
Cu4   O16   S    
C45   C66   A    
C135  H91   S    
C122  H53   S    
C49   C74   A    
C25   C41   S    
C112  H25   S    
C17   C35   A    
C30   C38   S    
C130  H77   S    
C12   C33   A    
O27   C107  S    
C18   C36   A    
C122  H54   S    
C15   C33   A    
C3    C39   A    
C43   C62   A    
C3    C59   A    
C107  H11   S    
C108  H13   S    
C90   C117  S    
C87   C120  S    
