data_mof_unit_14840.cif
_audit_creation_date              2012-12-11T15:36:53-0500
_audit_creation_method            fapswitch 2.2
_symmetry_space_group_name_H-M    P1
_symmetry_Int_Tables_number       1
_space_group_crystal_system       triclinic
_cell_length_a                    14.99837
_cell_length_b                    15.04041
_cell_length_c                    34.73857
_cell_angle_alpha                 91.597639
_cell_angle_beta                  91.85753
_cell_angle_gamma                 60.40489
_cell_volume                      6809.80982273

loop_
_atom_site_label
_atom_site_type_symbol
_atom_type_description
_atom_site_fract_x
_atom_site_fract_y
_atom_site_fract_z
_atom_type_partial_charge
C1    C     C_R   0.611392 0.300511 0.444106 0.574149
C2    C     C_R   0.727274 0.644405 0.176331 0.013238
C3    C     C_R   0.628547 0.133529 0.827857 -0.086982
C4    C     C_R   0.708038 0.143513 0.847151 0.022885
C5    C     C_R   0.721328 0.129919 0.887131 0.179293
C6    C     C_R   0.595410 0.240939 0.769405 0.260437
C7    C     C_R   0.608306 0.245922 0.729786 0.118743
C8    C     C_R   0.622270 0.163432 0.705133 -0.022567
C9    C     C_R   0.628917 0.074140 0.720748 0.334544
C10   C     C_R   0.625188 0.065930 0.760597 0.324091
C11   C     C_R   0.611877 0.148188 0.785440 0.005047
C12   C     C_R   0.545628 0.189290 0.638038 0.036178
C13   C     C_R   0.774316 0.571353 0.146482 0.081621
C14   C     C_R   0.549368 0.210111 0.599107 0.195685
C15   C     C_R   0.718362 0.194612 0.610061 0.023481
C16   C     C_R   0.718351 0.164550 0.648385 0.231773
C17   C     C_R   0.628489 0.172208 0.663023 -0.032095
C18   C     C_R   0.628462 0.227985 0.586516 -0.054482
C19   C     C_R   0.047580 0.738536 0.047848 0.573451
C20   C     C_R   0.746618 0.746310 0.063925 0.585077
C21   C     C_R   0.748906 0.044430 0.049814 0.581911
C22   C     C_R   0.019074 0.721396 0.939805 0.598279
C23   C     C_R   0.716767 0.729712 0.954962 0.551272
C24   C     C_R   0.775355 0.604664 0.108805 0.018777
C25   C     C_R   0.720304 0.026810 0.942382 0.572352
C26   C     C_R   0.669777 0.582702 0.232288 0.073086
C27   C     C_R   0.664640 0.579426 0.272342 -0.069408
C28   C     C_R   0.721902 0.607706 0.297159 0.078721
C29   C     C_R   0.793873 0.631844 0.282247 0.294473
C30   C     C_R   0.803729 0.631422 0.242094 0.101288
C31   C     C_R   0.737533 0.612614 0.217069 -0.029037
C32   C     C_R   0.604216 0.702576 0.350187 0.179702
C33   C     C_R   0.594724 0.610895 0.449675 0.569056
C34   C     C_R   0.574026 0.709875 0.388827 0.007954
C35   C     C_R   0.740876 0.560583 0.404402 0.017788
C36   C     C_R   0.768858 0.552873 0.365403 0.177883
C37   C     C_R   0.697405 0.619556 0.338411 0.033259
C38   C     C_R   0.638524 0.631873 0.415131 -0.072386
C39   C     C_R   0.114802 0.725831 0.081705 -0.046824
C40   C     C_R   0.200700 0.630177 0.091612 0.090336
C41   C     C_R   0.246272 0.617683 0.128855 0.319931
C42   C     C_R   0.204517 0.700434 0.155738 0.062985
C43   C     C_R   0.126267 0.796257 0.144109 -0.099458
C44   C     C_R   0.306111 0.589579 0.441563 0.572343
C45   C     C_R   0.082283 0.808899 0.107482 -0.124707
C46   C     C_R   0.280391 0.722940 0.219428 0.050585
C47   C     C_R   0.294221 0.706626 0.259695 0.239293
C48   C     C_R   0.243856 0.661111 0.278342 0.000364
C49   C     C_R   0.186654 0.627183 0.256123 -0.083595
C50   C     C_R   0.181399 0.633376 0.216041 0.212135
C51   C     C_R   0.225519 0.683681 0.197619 -0.037356
C52   C     C_R   0.271046 0.551120 0.335516 0.235904
C53   C     C_R   0.269677 0.539489 0.375779 0.248819
C54   C     C_R   0.245034 0.710357 0.386189 -0.152378
C55   C     C_R   0.607522 0.295805 0.552640 0.561001
C56   C     C_R   0.232432 0.726643 0.346495 -0.140153
C57   C     C_R   0.249624 0.646260 0.320782 0.020459
C58   C     C_R   0.267215 0.615791 0.401222 0.029727
C59   C     C_R   0.715189 0.113925 0.084340 -0.016843
C60   C     C_R   0.788638 0.125298 0.107784 0.006097
C61   C     C_R   0.771349 0.145075 0.147705 0.056754
C62   C     C_R   0.677545 0.163101 0.162727 -0.032540
C63   C     C_R   0.598280 0.172911 0.137930 -0.072867
C64   C     C_R   0.614988 0.150983 0.098569 0.070671
C65   C     C_R   0.594522 0.261448 0.222410 -0.070482
C66   C     C_R   0.588944 0.607726 0.558489 0.599202
C67   C     C_R   0.589217 0.268233 0.262458 -0.133892
C68   C     C_R   0.651552 0.182356 0.285009 0.043852
C69   C     C_R   0.716114 0.087484 0.267234 0.252707
C70   C     C_R   0.721814 0.081704 0.226864 -0.071650
C71   C     C_R   0.662725 0.168839 0.204591 0.008173
C72   C     C_R   0.737417 0.184778 0.348715 0.268578
C73   C     C_R   0.729819 0.203723 0.388840 0.034369
C74   C     C_R   0.551909 0.239897 0.385759 0.214918
C75   C     C_R   0.561639 0.217021 0.346224 -0.147811
C76   C     C_R   0.651090 0.194467 0.327287 0.007075
C77   C     C_R   0.295889 0.590341 0.551213 0.595498
C78   C     C_R   0.633182 0.242417 0.406719 -0.014099
C79   C     C_R   0.691146 0.693993 0.918260 -0.070275
C80   C     C_R   0.756153 0.596641 0.901777 0.022388
C81   C     C_R   0.747394 0.579919 0.861813 0.017313
C82   C     C_R   0.673569 0.661539 0.838993 -0.023674
C83   C     C_R   0.602124 0.754757 0.856719 0.235636
C84   C     C_R   0.609685 0.767667 0.896060 -0.059434
C85   C     C_R   0.591720 0.655014 0.776618 -0.079615
C86   C     C_R   0.587491 0.655228 0.736379 0.020567
C87   C     C_R   0.670081 0.651913 0.716052 0.010701
C88   C     C_R   0.734679 0.710511 0.101892 -0.048380
C89   C     C_R   0.755123 0.648409 0.736710 0.302874
C90   C     C_R   0.756449 0.647912 0.776817 0.000024
C91   C     C_R   0.674903 0.652339 0.796710 -0.042948
C92   C     C_R   0.723696 0.554059 0.655094 0.221087
C93   C     C_R   0.702890 0.544112 0.616204 -0.161604
C94   C     C_R   0.579214 0.726091 0.613073 0.310573
C95   C     C_R   0.600526 0.737421 0.652301 0.220176
C96   C     C_R   0.668022 0.649284 0.673603 0.019807
C97   C     C_R   0.626428 0.627669 0.595815 0.006618
C98   C     C_R   0.069438 0.694892 0.901622 -0.028782
C99   C     C_R   0.687011 0.782847 0.132127 -0.042119
C100  C     C_R   0.070536 0.772293 0.879695 0.210219
C101  C     C_R   0.093581 0.754652 0.840167 0.250685
C102  C     C_R   0.100016 0.667411 0.821798 0.046020
C103  C     C_R   0.103530 0.587891 0.843752 0.205758
C104  C     C_R   0.099515 0.597761 0.884128 0.031516
C105  C     C_R   0.200874 0.586262 0.762318 0.012438
C106  C     C_R   0.209640 0.583500 0.721931 0.015044
C107  C     C_R   0.126108 0.654596 0.698954 -0.022177
C108  C     C_R   0.032590 0.726026 0.715978 0.266815
C109  C     C_R   0.023919 0.727570 0.756094 0.132863
C110  C     C_R   0.679556 0.750149 0.168808 0.024014
C111  C     C_R   0.108190 0.659120 0.779299 -0.061023
C112  C     C_R   0.201945 0.705389 0.648816 -0.111126
C113  C     C_R   0.245840 0.690080 0.612724 0.238571
C114  C     C_R   0.154828 0.598599 0.591624 0.000472
C115  C     C_R   0.113423 0.612232 0.628815 0.056401
C116  C     C_R   0.143232 0.660542 0.657764 -0.055760
C117  C     C_R   0.227792 0.630651 0.584733 0.023486
C118  C     C_R   0.671629 0.085128 0.906482 0.000919
C119  C     C_R   0.588418 0.081164 0.887946 0.201689
C120  C     C_R   0.562195 0.113519 0.849153 0.212146
Cr1   Cr    Cr6+3 0.426010 0.422500 0.497000 1.156948
Cr2   Cr    Cr6+3 0.651300 0.426310 0.501970 1.114563
Cr3   Cr    Cr6+3 0.422670 0.651170 0.501050 1.141985
Cr4   Cr    Cr6+3 0.905130 0.911420 0.992650 1.132071
Cr5   Cr    Cr6+3 0.911860 0.682710 0.002320 1.145518
Cr6   Cr    Cr6+3 0.682710 0.906840 0.004710 1.144162
H1    H     H_    0.016226 0.881944 0.100502 0.190301
H2    H     H_    0.214023 0.800799 0.335709 0.191739
H3    H     H_    0.145938 0.594729 0.270121 0.185151
H4    H     H_    0.093633 0.859543 0.164531 0.177725
H5    H     H_    0.239660 0.771081 0.405158 0.170536
H6    H     H_    0.497814 0.219505 0.329755 0.122930
H7    H     H_    0.538773 0.341293 0.276006 0.155863
H8    H     H_    0.548374 0.329020 0.205395 0.175736
H9    H     H_    0.773581 0.009984 0.212740 0.160007
H10   H     H_    0.524152 0.194498 0.149731 0.194427
H11   H     H_    0.556450 0.841286 0.908465 0.194444
H12   H     H_    0.610640 0.560585 0.284708 0.164631
H13   H     H_    0.529628 0.657851 0.792731 0.210090
H14   H     H_    0.820692 0.646121 0.792680 0.184167
H15   H     H_    0.741432 0.468954 0.602735 0.165283
H16   H     H_    0.220103 0.745873 0.671190 0.124827
O1    O     O_R   0.324990 0.503440 0.453910 -0.409324
O2    O     O_R   0.639980 0.519500 0.542640 -0.516269
O3    O     O_R   0.500750 0.673190 0.545480 -0.404983
O4    O     O_R   0.336260 0.640450 0.538210 -0.438724
O5    O     O_3   0.499990 0.499990 0.500010 -0.307306
O6    O     O_R   0.834210 0.019400 0.034570 -0.491936
O7    O     O_R   0.002210 0.824620 0.031030 -0.498212
O8    O     O_R   0.024400 0.669340 0.039790 -0.467514
O9    O     O_R   0.830490 0.694950 0.045870 -0.475314
O10   O     O_R   0.675430 0.831160 0.051290 -0.481173
O11   O     O_R   0.698870 0.998880 0.039560 -0.453914
O12   O     O_R   0.522030 0.339050 0.458320 -0.433851
O13   O     O_R   0.811290 0.006780 0.950620 -0.482847
O14   O     O_R   0.980960 0.812920 0.953200 -0.432389
O15   O     O_R   0.001480 0.656720 0.955830 -0.471445
O16   O     O_R   0.809240 0.683250 0.968050 -0.469381
O17   O     O_R   0.652500 0.818540 0.967340 -0.495967
O18   O     O_R   0.677620 0.987170 0.961730 -0.431901
O19   O     O_3   0.833240 0.833660 0.999890 -0.305292
O20   O     O_R   0.676180 0.324490 0.458320 -0.482639
O21   O     O_R   0.643570 0.521510 0.464260 -0.482687
O22   O     O_R   0.504630 0.675350 0.460920 -0.469955
O23   O     O_R   0.339850 0.642450 0.459830 -0.523000
O24   O     O_R   0.321120 0.501280 0.538470 -0.481738
O25   O     O_R   0.518440 0.337050 0.536710 -0.481359
O26   O     O_R   0.672300 0.322330 0.542880 -0.468239
C121  C     C_2   0.650777 0.893159 0.126489 0.648910
O27   O     O_2   0.713222 0.920765 0.120842 -0.480889
O28   O     O_R   0.546806 0.966030 0.128418 -0.612535
H17   H     H_    0.501945 0.934364 0.132559 0.318200
C122  C     C_2   0.474356 0.797143 0.400714 0.598997
O29   O     O_2   0.471058 0.850423 0.428480 -0.454825
O30   O     O_R   0.384876 0.819765 0.379611 -0.696000
H18   H     H_    0.322212 0.881962 0.390166 0.344592
C123  C     C_2   0.821927 0.460545 0.155031 0.647089
O31   O     O_2   0.799060 0.405710 0.135396 -0.433941
O32   O     O_R   0.892669 0.419269 0.185637 -0.651385
H19   H     H_    0.920827 0.343037 0.188297 0.378252
C124  C     C_2   0.817415 0.493862 0.433819 0.603478
O33   O     O_2   0.870810 0.402086 0.427680 -0.469924
O34   O     O_R   0.826040 0.536396 0.469100 -0.663220
H20   H     H_    0.879509 0.483613 0.487037 0.346718
C125  C     C_2   0.243650 0.543365 0.063386 0.643466
O35   O     O_2   0.241321 0.559894 0.028984 -0.475997
O36   O     O_R   0.287741 0.442592 0.076061 -0.592106
H21   H     H_    0.314479 0.390714 0.054119 0.354461
O37   O     O_3   0.360067 0.732300 0.279421 -0.599280
H22   H     H_    0.387002 0.690460 0.302875 0.344590
C126  C     C_2   0.325301 0.779280 0.200604 0.635755
O38   O     O_2   0.353664 0.759529 0.167305 -0.510862
O39   O     O_R   0.334312 0.856073 0.220974 -0.579125
H23   H     H_    0.363304 0.890556 0.204824 0.367308
O40   O     O_3   0.329400 0.523914 0.138355 -0.622086
H24   H     H_    0.361265 0.530161 0.162946 0.335057
C127  C     C_2   0.820561 0.529097 0.076699 0.629030
O41   O     O_2   0.906404 0.454977 0.080331 -0.445399
O42   O     O_R   0.764975 0.543866 0.042115 -0.658929
H25   H     H_    0.803979 0.488094 0.022343 0.358136
O43   O     O_3   0.130722 0.593202 0.194200 -0.628483
H26   H     H_    0.113873 0.551523 0.210977 0.367914
O44   O     O_3   0.298360 0.469555 0.310204 -0.715932
H27   H     H_    0.341790 0.404958 0.324071 0.329565
O45   O     O_3   0.272987 0.453729 0.390676 -0.645105
H28   H     H_    0.242387 0.426045 0.371480 0.338570
C128  C     C_2   0.876889 0.126738 0.089980 0.626853
O46   O     O_2   0.862265 0.177210 0.061073 -0.448630
O47   O     O_R   0.975699 0.072074 0.105998 -0.665354
H29   H     H_    0.028290 0.079808 0.091002 0.357829
C129  C     C_2   0.526182 0.168777 0.073093 0.625758
O48   O     O_2   0.526245 0.185626 0.038849 -0.498972
O49   O     O_R   0.440378 0.170487 0.088548 -0.633886
H30   H     H_    0.384642 0.184433 0.068439 0.353604
O50   O     O_3   0.864627 0.481336 0.352441 -0.633053
H31   H     H_    0.916312 0.467914 0.373178 0.365386
C130  C     C_2   0.848826 0.149449 0.174084 0.620145
O51   O     O_2   0.827747 0.228820 0.191595 -0.487454
O52   O     O_R   0.943214 0.061442 0.180564 -0.675229
H32   H     H_    0.988667 0.073619 0.199709 0.353092
O53   O     O_3   0.773992 0.002890 0.289802 -0.643066
H33   H     H_    0.814844 0.942986 0.272827 0.358020
O54   O     O_3   0.829901 0.157172 0.331687 -0.602614
H34   H     H_    0.819994 0.166846 0.303540 0.350051
C131  C     C_2   0.824440 0.180122 0.411670 0.665521
O55   O     O_2   0.840031 0.138812 0.442917 -0.469565
O56   O     O_R   0.896816 0.202665 0.397178 -0.573975
H35   H     H_    0.958184 0.181713 0.415256 0.361889
O57   O     O_3   0.462783 0.261951 0.404116 -0.616724
H36   H     H_    0.416302 0.252047 0.385753 0.339863
C132  C     C_2   0.826866 0.510842 0.926624 0.636091
O58   O     O_2   0.913895 0.495045 0.933449 -0.426761
O59   O     O_R   0.794026 0.446670 0.941381 -0.653090
H37   H     H_    0.849424 0.389413 0.957301 0.355570
O60   O     O_3   0.550199 0.833653 0.669296 -0.661791
H38   H     H_    0.581760 0.832643 0.694861 0.367076
C133  C     C_2   0.495160 0.659426 0.717161 0.619998
O61   O     O_2   0.499342 0.623871 0.684760 -0.481255
O62   O     O_R   0.402925 0.702592 0.736951 -0.646278
H39   H     H_    0.345496 0.701043 0.721351 0.348835
C134  C     C_2   0.815912 0.478345 0.843665 0.606877
O63   O     O_2   0.781725 0.443560 0.818764 -0.450123
O64   O     O_R   0.919529 0.423129 0.854634 -0.606468
H40   H     H_    0.957810 0.355790 0.840055 0.365219
O65   O     O_3   0.837545 0.646706 0.719273 -0.624961
H41   H     H_    0.824330 0.656809 0.691241 0.350722
O66   O     O_3   0.792753 0.470595 0.676333 -0.637761
H42   H     H_    0.825540 0.409715 0.659111 0.372506
O67   O     O_3   0.527450 0.838049 0.836815 -0.661816
H43   H     H_    0.543654 0.831670 0.809205 0.359969
O68   O     O_3   0.511150 0.808809 0.591193 -0.621805
H44   H     H_    0.485152 0.872828 0.606581 0.395578
O69   O     O_3   0.046241 0.865114 0.897047 -0.644071
H45   H     H_    0.013262 0.919686 0.877619 0.354612
C135  C     C_2   0.599037 0.560097 0.207890 0.630143
O70   O     O_2   0.557335 0.516647 0.221941 -0.538999
O71   O     O_R   0.578421 0.588672 0.169282 -0.659079
H46   H     H_    0.530253 0.567451 0.156217 0.369210
C136  C     C_2   0.130012 0.505399 0.907684 0.675999
O72   O     O_2   0.107973 0.440386 0.896952 -0.368858
O73   O     O_R   0.186831 0.491768 0.941910 -0.643705
H47   H     H_    0.203463 0.426283 0.955416 0.358301
C137  C     C_2   0.039740 0.576615 0.637566 0.637166
O74   O     O_2   0.052559 0.525963 0.666252 -0.434218
O75   O     O_R   0.955029 0.601989 0.613025 -0.670532
H48   H     H_    0.910362 0.573760 0.622001 0.343948
C138  C     C_2   0.308730 0.511336 0.703657 0.629986
O76   O     O_2   0.388911 0.502162 0.717257 -0.440666
O77   O     O_R   0.309932 0.456017 0.670478 -0.635578
H49   H     H_    0.381232 0.413497 0.659814 0.370684
C139  C     C_2   0.288654 0.513686 0.786975 0.655145
O78   O     O_2   0.330563 0.421813 0.780024 -0.436437
O79   O     O_R   0.322674 0.550610 0.818189 -0.649995
H50   H     H_    0.381877 0.493914 0.832998 0.355350
O80   O     O_3   0.107242 0.822433 0.818412 -0.655737
H51   H     H_    0.132619 0.859307 0.835516 0.361850
O81   O     O_3   0.948433 0.796265 0.694691 -0.613723
H52   H     H_    0.962567 0.786973 0.666866 0.334466
C140  C     C_2   0.927145 0.805769 0.773780 0.683866
O82   O     O_2   0.887485 0.782180 0.798822 -0.560104
O83   O     O_R   0.883415 0.907390 0.762516 -0.560599
H53   H     H_    0.824206 0.954534 0.779295 0.348642
O84   O     O_3   0.312869 0.725557 0.605433 -0.627783
H54   H     H_    0.318282 0.763716 0.628310 0.353515
O85   O     O_3   0.114007 0.498791 0.826916 -0.609191
H55   H     H_    0.093736 0.509935 0.799337 0.345916
C141  C     C_2   0.627911 0.826392 0.200461 0.571073
O86   O     O_2   0.565175 0.820277 0.220196 -0.466413
O87   O     O_R   0.652627 0.903529 0.208116 -0.667073
H56   H     H_    0.613119 0.949648 0.230446 0.357292
C142  C     C_2   0.125597 0.547298 0.560504 0.641656
O88   O     O_2   0.103193 0.583950 0.528291 -0.479653
O89   O     O_R   0.125085 0.456618 0.567874 -0.618442
H57   H     H_    0.104064 0.429244 0.544379 0.354385
O90   O     O_3   0.537522 0.041501 0.907546 -0.664590
H58   H     H_    0.505277 0.014760 0.888742 0.352989
O91   O     O_3   0.789067 0.153925 0.906213 -0.598514
H59   H     H_    0.763374 0.177905 0.932565 0.355241
O92   O     O_3   0.802779 0.131316 0.673043 -0.619625
H60   H     H_    0.865966 0.102445 0.657861 0.366039
C143  C     C_2   0.611918 0.336593 0.715181 0.724177
O93   O     O_2   0.577295 0.370597 0.683228 -0.493984
O94   O     O_R   0.656891 0.382318 0.738129 -0.560994
H61   H     H_    0.657955 0.440806 0.724797 0.369193
O95   O     O_3   0.570059 0.327190 0.791967 -0.600299
H62   H     H_    0.542570 0.321319 0.816707 0.338593
O96   O     O_3   0.475408 0.121857 0.830749 -0.626571
H63   H     H_    0.422136 0.139507 0.850201 0.362058
O97   O     O_3   0.644496 0.990127 0.698424 -0.594819
H64   H     H_    0.658975 0.998071 0.671583 0.333146
O98   O     O_3   0.639660 0.973557 0.773773 -0.602747
H65   H     H_    0.659781 0.965452 0.801329 0.336164
C144  C     C_2   0.454211 0.186506 0.652274 0.647612
O99   O     O_2   0.413082 0.148214 0.632271 -0.397495
O100  O     O_R   0.414627 0.228050 0.688404 -0.667874
H66   H     H_    0.352574 0.221519 0.694656 0.381531
O101  O     O_3   0.854040 0.658088 0.305663 -0.618984
H67   H     H_    0.828530 0.672497 0.332238 0.344961
O102  O     O_3   0.471423 0.218840 0.574496 -0.604047
H68   H     H_    0.501741 0.191148 0.548995 0.345180
C145  C     C_2   0.779445 0.166694 0.826234 0.670246
O103  O     O_2   0.812277 0.126729 0.794907 -0.492272
O104  O     O_R   0.810763 0.232962 0.842708 -0.560040
H69   H     H_    0.861506 0.239882 0.826228 0.370352
C146  C     C_2   0.810626 0.193916 0.595577 0.593020
O105  O     O_2   0.847846 0.150054 0.565202 -0.457439
O106  O     O_R   0.855169 0.242840 0.616779 -0.688724
H70   H     H_    0.917415 0.237330 0.603885 0.352029
C147  C     C_2   0.878132 0.659039 0.226265 0.629399
O107  O     O_2   0.921502 0.619677 0.196190 -0.485322
O108  O     O_R   0.897415 0.731152 0.245348 -0.634463
H71   H     H_    0.947425 0.744904 0.231261 0.340795
O109  O     O_3   0.544926 0.774567 0.322830 -0.618478
H72   H     H_    0.501330 0.841306 0.335590 0.371014

loop_
_geom_bond_atom_site_label_1
_geom_bond_atom_site_label_2
_ccdc_geom_bond_type
C135  O71   S    
C147  O108  S    
C142  O88   D    
C114  C115  A    
O109  H72   S    
Cr1   O24   S    
C16   O92   S    
C106  C138  S    
C12   C144  S    
C66   C97   S    
C61   C130  S    
C21   C59   S    
C36   O50   S    
C9    O97   S    
C106  C107  A    
C139  O78   D    
C23   O16   A    
C19   O8    A    
C56   C57   A    
C127  O42   S    
Cr3   O3    S    
Cr1   O5    S    
O69   H45   S    
C61   C62   A    
O42   H25   S    
O65   H41   S    
C83   O67   S    
C102  C111  S    
C55   O26   A    
C124  O34   S    
C27   H12   S    
Cr1   O12   S    
O104  H69   S    
O68   H44   S    
C6    C11   A    
Cr5   O16   S    
C72   C73   A    
C94   C97   A    
C143  O93   D    
C99   C110  A    
C82   C91   S    
C104  C136  S    
C32   C34   A    
C75   C76   A    
O57   H36   S    
O56   H35   S    
C1    O20   A    
C87   C89   A    
C90   C91   A    
Cr4   O19   S    
C137  O75   S    
O45   H28   S    
C32   O109  S    
C8    C17   S    
C4    C5    A    
C136  O73   S    
C90   H14   S    
C53   C58   A    
C60   C128  S    
C6    C7    A    
C22   O15   A    
C35   C124  S    
C33   C38   S    
C20   O9    A    
C52   O44   S    
C77   O24   A    
C41   O40   S    
O30   H18   S    
C89   O65   S    
C69   O53   S    
C56   H2    S    
C1    O12   A    
C88   C99   A    
C3    C11   S    
O40   H24   S    
O106  H70   S    
O39   H23   S    
C21   O11   A    
C15   C18   A    
Cr4   O7    S    
C22   C98   S    
C46   C126  S    
C125  O35   D    
C7    C8    A    
C85   C86   A    
C108  C109  A    
O67   H43   S    
O53   H33   S    
C36   C37   A    
C142  O89   S    
C26   C135  S    
C109  C111  A    
C79   C84   A    
C125  O36   S    
C115  C116  A    
C92   C96   A    
O71   H46   S    
C146  O106  S    
C103  O85   S    
Cr5   O9    S    
Cr6   O10   S    
C123  O32   S    
C23   O17   A    
C107  C108  A    
O59   H37   S    
C136  O72   D    
C39   C45   A    
C140  O83   S    
C122  O29   D    
C133  O61   D    
C121  O28   S    
C94   C95   A    
C74   O57   S    
C14   O102  S    
C131  O55   D    
C122  O30   S    
C21   O6    A    
C119  O90   S    
C35   C38   A    
C52   C57   A    
C39   C40   A    
C16   C17   A    
C130  O51   D    
C46   C51   A    
O32   H19   S    
O89   H57   S    
C83   C84   A    
C140  O82   D    
C141  O87   S    
O47   H29   S    
C32   C37   A    
C43   C45   A    
C115  C137  S    
C18   C55   S    
C113  C117  A    
C7    C143  S    
C84   H11   S    
C123  O31   D    
O96   H63   S    
C4    C145  S    
C3    C4    A    
C93   C97   A    
C112  C116  A    
C75   H6    S    
O37   H22   S    
O108  H71   S    
C12   C14   A    
C138  O76   D    
C68   C76   S    
Cr2   O20   S    
O43   H26   S    
C5    C118  A    
C63   H10   S    
C133  O62   S    
C28   C37   S    
C44   O1    A    
C100  C101  A    
C19   O7    A    
C120  O96   S    
C62   C71   S    
C44   O23   A    
C127  O41   D    
C15   C146  S    
C107  C116  S    
C114  C117  A    
C10   C11   A    
C63   C64   A    
C59   C60   A    
C49   C50   A    
Cr4   O13   S    
O84   H54   S    
C128  O47   S    
C30   C147  S    
C77   O4    A    
C108  O81   S    
C101  C102  A    
C41   C42   A    
O62   H39   S    
C55   O25   A    
O28   H17   S    
C25   C118  S    
C137  O74   D    
C124  O33   D    
C52   C53   A    
Cr4   O6    S    
C26   C27   A    
C28   C29   A    
C69   C70   A    
C54   C58   A    
C30   C31   A    
Cr5   O15   S    
C66   O2    A    
O64   H40   S    
O91   H59   S    
C81   C134  S    
C5    O91   S    
C110  C141  S    
C44   C58   S    
C68   C69   A    
C65   C67   A    
C12   C17   A    
O60   H38   S    
C70   C71   A    
Cr6   O19   S    
C65   H8    S    
C105  C111  A    
O100  H66   S    
O77   H49   S    
C1    C78   S    
C109  C140  S    
C143  O94   S    
C6    O95   S    
Cr1   O25   S    
Cr2   O26   S    
C128  O46   D    
C121  O27   D    
C48   C57   S    
O54   H34   S    
O52   H32   S    
C86   C87   A    
Cr6   O17   S    
C72   O54   S    
C126  O38   D    
C60   C61   A    
O92   H60   S    
C126  O39   S    
O85   H55   S    
C10   O98   S    
C129  O48   D    
Cr3   O4    S    
O49   H30   S    
C25   O18   A    
C50   C51   A    
C114  C142  S    
C132  O59   S    
Cr2   O5    S    
C24   C88   A    
C48   C49   A    
C24   C127  S    
C98   C100  A    
C70   H9    S    
C42   C43   A    
C100  O69   S    
O90   H58   S    
C93   H15   S    
C50   O43   S    
C46   C47   A    
C2    C110  A    
C33   O21   A    
C14   C18   A    
Cr5   O19   S    
C119  C120  A    
Cr6   O18   S    
C105  C106  A    
C145  O103  D    
O36   H21   S    
C34   C122  S    
Cr3   O22   S    
C138  O77   S    
C144  O99   D    
O73   H47   S    
C13   C123  S    
C20   C88   S    
C92   C93   A    
O50   H31   S    
C146  O105  D    
C144  O100  S    
Cr5   O8    S    
C29   C30   A    
O102  H68   S    
Cr6   O11   S    
C20   O10   A    
C82   C83   A    
C74   C78   A    
C103  C104  A    
C89   C90   A    
C105  C139  S    
O98   H65   S    
C25   O13   A    
C147  O107  D    
Cr1   O1    S    
C95   C96   A    
Cr2   O2    S    
C72   C76   A    
C94   O68   S    
C81   C82   A    
C85   C91   A    
C22   O14   A    
O97   H64   S    
C54   H5    S    
C59   C64   A    
C62   C63   A    
O95   H62   S    
C67   H7    S    
C134  O63   D    
C77   C117  S    
C15   C16   A    
C86   C133  S    
C112  H16   S    
C2    C13   A    
C118  C119  A    
C66   O3    A    
C131  O56   S    
O94   H61   S    
C8    C9    A    
C145  O104  S    
C53   O45   S    
C73   C78   A    
C64   C129  S    
O75   H48   S    
C85   H13   S    
C42   C51   S    
C26   C31   A    
C102  C103  A    
C95   O60   S    
C67   C68   A    
C112  C113  A    
C92   O66   S    
C54   C56   A    
C74   C75   A    
C33   O22   A    
C40   C125  S    
O83   H53   S    
C65   C71   A    
C49   H3    S    
Cr2   O21   S    
C13   C24   A    
C2    C31   S    
C134  O64   S    
C47   O37   S    
O34   H20   S    
C47   C48   A    
C87   C96   S    
O79   H50   S    
C19   C39   S    
C113  O84   S    
C40   C41   A    
C129  O49   S    
O80   H51   S    
Cr3   O5    S    
Cr4   O14   S    
C141  O86   D    
C80   C132  S    
C135  O70   D    
C132  O58   D    
O87   H56   S    
C9    C10   A    
C139  O79   S    
C34   C38   A    
C43   H4    S    
C80   C81   A    
O66   H42   S    
C99   C121  S    
C130  O52   S    
C73   C131  S    
C45   H1    S    
C98   C104  A    
O101  H67   S    
C29   O101  S    
C3    C120  A    
C79   C80   A    
Cr3   O23   S    
C27   C28   A    
C101  O80   S    
C35   C36   A    
O44   H27   S    
C23   C79   S    
O81   H52   S    
