data_mof_unit_42150.cif
_audit_creation_date              2012-12-11T20:21:56-0500
_audit_creation_method            fapswitch 2.2
_symmetry_space_group_name_H-M    P1
_symmetry_Int_Tables_number       1
_space_group_crystal_system       triclinic
_cell_length_a                    8.239611
_cell_length_b                    17.408632
_cell_length_c                    26.951396
_cell_angle_alpha                 99.647542
_cell_angle_beta                  92.794043
_cell_angle_gamma                 81.492123
_cell_volume                      3768.1651324

loop_
_atom_site_label
_atom_site_type_symbol
_atom_type_description
_atom_site_fract_x
_atom_site_fract_y
_atom_site_fract_z
_atom_type_partial_charge
Ba1   Ba    Ba6+2 0.860160 0.462360 0.521850 1.752236
Ba2   Ba    Ba6+2 0.329680 0.537570 0.478140 1.709844
C1    C     C_3   0.712515 0.188292 0.651808 0.459201
C2    C     C_R   0.877670 0.572322 0.177202 0.575406
C3    C     C_2   0.753958 0.548504 0.274506 -0.085113
C4    C     C_3   0.185204 0.280194 0.651603 0.297931
C5    C     C_3   0.733591 0.577771 0.330091 -0.061643
C6    C     C_1   0.987482 0.490488 0.343434 0.020393
C7    C     C_2   0.030738 0.489401 0.295995 -0.104408
C8    C     C_2   0.905326 0.516526 0.257213 0.182255
C9    C     C_R   0.024627 0.506968 0.101506 -0.084693
C10   C     C_R   0.099267 0.447931 0.128829 -0.037864
C11   C     C_R   0.217421 0.387907 0.104969 -0.050832
C12   C     C_3   0.691310 0.266194 0.631996 0.307130
C13   C     C_R   0.910136 0.568415 0.125771 -0.022202
C14   C     C_2   0.848512 0.530363 0.362222 -0.288122
C15   C     C_2   0.361346 0.489635 0.640048 -0.294447
C16   C     C_3   0.134567 0.268278 0.703002 -0.324865
C17   C     C_R   0.229535 0.443879 0.975502 -0.058427
C18   C     C_R   0.020717 0.560834 0.971052 0.045298
C19   C     C_R   0.145448 0.501661 0.947888 0.049045
C20   C     C_R   0.354974 0.387622 0.950894 -0.141750
C21   C     C_R   0.393170 0.386329 0.900844 0.642288
C22   C     C_R   0.309270 0.442242 0.872769 -0.122833
C23   C     C_3   0.494972 0.667638 0.634517 0.302082
C24   C     C_R   0.186870 0.500569 0.896581 -0.148967
C25   C     C_R   0.106232 0.558208 0.869193 -0.003692
C26   C     C_R   0.151580 0.558555 0.819281 0.589500
C27   C     C_R   0.344881 0.441392 0.821520 0.623376
C28   C     C_3   0.190608 0.288949 0.404221 0.788586
C29   C     C_2   0.467801 0.491330 0.728766 -0.065485
C30   C     C_3   0.509585 0.495404 0.674894 -0.057456
C31   C     C_1   0.213867 0.517622 0.657231 0.025579
C32   C     C_2   0.176176 0.513604 0.703927 -0.098204
C33   C     C_2   0.309132 0.500296 0.743112 0.188438
C34   C     C_3   0.487803 0.698458 0.690716 -0.367436
C35   C     C_R   0.186755 0.444461 0.026562 0.046836
C36   C     C_R   0.064660 0.504850 0.049981 0.055535
C37   C     C_R   0.982228 0.563362 0.022550 0.020443
C38   C     C_R   0.261320 0.386456 0.055375 -0.091331
C39   C     C_R   0.830602 0.625892 0.098390 -0.052133
C40   C     C_3   0.120886 0.210881 0.392960 -0.231515
C41   C     C_R   0.939030 0.615998 0.941635 -0.095478
C42   C     C_R   0.981855 0.614984 0.892247 -0.049391
C43   C     C_R   0.864101 0.623139 0.048036 -0.102826
C44   C     C_2   0.443200 0.277585 0.513938 0.376585
C45   C     C_3   0.017257 0.710564 0.346149 0.337343
C46   C     C_3   0.368489 0.223209 0.541465 -0.090603
C47   C     C_2   0.405520 0.138503 0.518300 -0.162633
C48   C     C_2   0.542183 0.113937 0.490946 0.018737
C49   C     C_2   0.633126 0.174140 0.475646 -0.168971
C50   C     C_1   0.571969 0.249979 0.484970 0.105678
C51   C     C_R   0.786218 0.861801 0.469149 -0.051509
C52   C     C_3   0.974807 0.701293 0.587048 0.290665
C53   C     C_R   0.846683 0.781609 0.464068 0.002791
C54   C     C_R   0.615588 0.759008 0.508887 0.039141
C55   C     C_R   0.555077 0.839070 0.514714 -0.107743
C56   C     C_3   0.021902 0.736214 0.295147 -0.357631
C57   C     C_R   0.638111 0.890893 0.494147 0.047297
C58   C     C_2   0.605182 0.029028 0.476935 0.014322
C59   C     C_2   0.576491 0.975712 0.505198 -0.022984
C60   C     C_R   0.757066 0.730037 0.481710 -0.287878
C61   C     C_3   0.947471 0.790378 0.601928 -0.350596
C62   C     C_3   0.695530 0.364989 0.369356 0.339013
C63   C     C_3   0.708794 0.344406 0.312462 -0.326333
C64   C     C_2   0.187520 0.161743 0.345154 0.590515
C65   C     C_3   0.477628 0.745647 0.365662 0.313904
C66   C     C_3   0.428387 0.820849 0.343556 0.439916
C67   C     C_R   0.053636 0.449653 0.179304 0.603596
F1    F     F_    0.786714 0.128516 0.615571 -0.702019
F2    F     F_    0.502759 0.881104 0.371459 -0.727159
F3    F     F_    0.516187 0.330365 0.880504 -0.649021
F4    F     F_    0.399451 0.356908 0.528662 -0.715276
F5    F     F_    0.358694 0.273061 0.404427 -0.767791
H1    H     H_    0.801631 0.268353 0.610425 0.115158
H2    H     H_    0.594669 0.414527 0.378299 0.074752
H3    H     H_    0.813401 0.296869 0.302512 0.156977
H4    H     H_    0.729200 0.396753 0.296566 0.053864
H5    H     H_    0.593251 0.324357 0.295642 0.149381
H6    H     H_    0.581961 0.269100 0.606560 -0.066523
H7    H     H_    0.590168 0.173740 0.660640 0.011113
H8    H     H_    0.370705 0.654827 0.621094 0.026697
H9    H     H_    0.584706 0.612922 0.628106 0.029340
H10   H     H_    0.404806 0.755367 0.697672 0.141732
H11   H     H_    0.439809 0.655987 0.710606 0.070274
H12   H     H_    0.153850 0.177101 0.424318 0.017749
H13   H     H_    0.612484 0.707345 0.706014 0.130850
H14   H     H_    0.791827 0.192176 0.686750 0.061707
H15   H     H_    0.206609 0.301472 0.733046 0.115831
H16   H     H_    0.084224 0.649856 0.343971 0.065116
H17   H     H_    0.886866 0.711352 0.354774 -0.043611
H18   H     H_    0.150817 0.733493 0.283788 0.133143
H19   H     H_    0.959427 0.696362 0.266561 0.135554
H20   H     H_    0.957698 0.797477 0.296677 0.139137
H21   H     H_    0.613629 0.735301 0.367966 -0.054847
H22   H     H_    0.429320 0.754437 0.404290 0.077824
H23   H     H_    0.984885 0.222782 0.389716 0.087546
H24   H     H_    0.292970 0.838070 0.344364 0.071737
H25   H     H_    0.158822 0.344323 0.649812 0.045297
H26   H     H_    0.468555 0.811709 0.303851 0.040080
H27   H     H_    0.157228 0.469787 0.285462 0.150616
H28   H     H_    0.278465 0.341666 0.124857 0.130940
H29   H     H_    0.567277 0.485817 0.756407 0.109358
H30   H     H_    0.428447 0.343548 0.969450 0.110617
H31   H     H_    0.353579 0.337960 0.040640 0.079570
H32   H     H_    0.652479 0.563521 0.249053 0.130668
H33   H     H_    0.739664 0.673533 0.115778 0.127007
H34   H     H_    0.856875 0.680508 0.574980 0.004928
H35   H     H_    0.840234 0.661293 0.955391 0.069961
H36   H     H_    0.319384 0.260193 0.648080 -0.019204
H37   H     H_    0.915491 0.659251 0.871922 0.121404
H38   H     H_    0.048544 0.520803 0.714221 0.137290
H39   H     H_    0.795500 0.670013 0.030558 0.073611
H40   H     H_    0.832251 0.543992 0.402614 0.076795
H41   H     H_    0.378880 0.469340 0.600001 0.158388
H42   H     H_    0.504490 0.994476 0.538787 0.075457
H43   H     H_    0.747441 0.155019 0.455790 0.096693
H44   H     H_    0.859245 0.901205 0.456454 0.074203
H45   H     H_    0.060703 0.685685 0.555348 0.075331
H46   H     H_    0.680976 0.011126 0.444081 0.101278
H47   H     H_    0.330378 0.097674 0.528452 0.101409
H48   H     H_    0.001729 0.290265 0.708215 0.139570
H49   H     H_    0.446827 0.861372 0.536861 0.084378
H50   H     H_    0.805520 0.668232 0.478627 0.059318
H51   H     H_    0.157963 0.204627 0.706281 0.137470
H52   H     H_    0.149557 0.319358 0.442066 0.017749
H53   H     H_    0.313270 0.132180 0.344539 0.043019
H54   H     H_    0.857782 0.807980 0.632815 0.141213
H55   H     H_    0.899057 0.818599 0.569342 0.057043
H56   H     H_    0.065934 0.811463 0.614847 0.129666
H57   H     H_    0.812574 0.382933 0.385514 -0.061664
N1    N     N_R   0.945307 0.512292 0.203836 -0.421592
N2    N     N_R   0.268267 0.499960 0.795442 -0.437027
O1    O     O_2   0.906370 0.542040 0.619810 -0.476381
O2    O     O_2   0.182738 0.781340 0.477502 -0.481824
O3    O     O_3   0.092389 0.762444 0.382428 -0.596108
O4    O     O_3   0.138370 0.541980 0.559630 -0.470205
O5    O     O_3   0.572820 0.404940 0.471170 -0.407424
O6    O     O_2   0.345130 0.693150 0.532000 -0.463812
O7    O     O_3   0.545029 0.724988 0.610229 -0.639908
O8    O     O_2   0.418351 0.530292 0.324544 -0.492584
O9    O     O_3   0.412861 0.682800 0.335175 -0.631368
O10   O     O_2   0.108967 0.394514 0.200887 -0.583215
O11   O     O_2   0.442570 0.387867 0.799957 -0.513046
O12   O     O_3   0.663483 0.298672 0.388081 -0.572887
O13   O     O_2   0.790592 0.630498 0.198340 -0.619434
O14   O     O_2   0.088565 0.612055 0.797368 -0.598803
O15   O     O_3   0.686580 0.398330 0.583860 -0.459079
O16   O     O_2   0.849390 0.437010 0.669639 -0.502056
O17   O     O_3   0.038837 0.668197 0.628858 -0.628153
O18   O     O_3   0.668599 0.329040 0.672423 -0.634550
O19   O     O_2   0.844570 0.306830 0.467970 -0.518722
O20   O     O_3   0.101900 0.357890 0.557750 -0.427646
O21   O     O_2   0.030582 0.215942 0.516641 -0.485138
O22   O     O_2   0.101663 0.155326 0.306711 -0.551732
O23   O     O_3   0.096729 0.236256 0.613789 -0.578139
O24   O     O_2   0.283330 0.457940 0.380160 -0.439483
O25   O     O_3   0.051340 0.457960 0.440360 -0.499347
O26   O     O_3   0.503130 0.601610 0.416130 -0.478358
O27   O     O_3   0.140403 0.332527 0.365568 -0.629850
O28   O     O_3   0.616890 0.595000 0.528820 -0.483299
O29   O     O_3   0.087820 0.642040 0.442240 -0.496492
P1    P     P_3+3 0.071770 0.565500 0.613330 1.006140
P2    P     P_3+3 0.664870 0.318630 0.453960 1.118608
P3    P     P_3+3 0.148043 0.256632 0.555616 1.017133
P4    P     P_3+3 0.117940 0.434440 0.386660 1.042403
P5    P     P_3+3 0.053577 0.743217 0.441902 0.959176
P6    P     P_3+3 0.678787 0.417067 0.649868 0.985398
P7    P     P_3+3 0.532339 0.694440 0.545129 0.952741
P8    P     P_3+3 0.517145 0.594984 0.351078 0.944465

loop_
_geom_bond_atom_site_label_1
_geom_bond_atom_site_label_2
_ccdc_geom_bond_type
C27   N2    Am   
C19   C24   A    
C28   H52   S    
O7    P7    S    
C63   H5    S    
O26   P8    S    
C62   O12   S    
C32   H38   S    
C53   P5    S    
C10   C67   A    
C33   N2    S    
C60   H50   S    
C51   C57   A    
C2    N1    Am   
C54   C55   A    
C28   O27   S    
O17   P1    S    
O25   P4    S    
C24   C25   A    
Ba2   O6    S    
Ba1   O25   S    
C17   C19   A    
C56   H19   S    
C22   C24   A    
C32   C33   S    
C35   C38   A    
C66   F2    S    
C16   H51   S    
C64   O22   D    
C45   O3    S    
C55   C57   A    
C52   C61   S    
O18   P6    S    
C53   C60   A    
C44   C50   D    
C20   H30   S    
C64   H53   S    
Ba1   O19   S    
Ba1   Ba2   S    
C61   H56   S    
C22   C27   A    
C11   C38   A    
C17   C35   A    
C49   H43   S    
C9    C13   A    
C25   C42   A    
C46   P3    S    
Ba1   P2    S    
C6    C7    D    
C12   O18   S    
C1    H7    S    
C21   C22   A    
O21   P3    D    
C58   H46   S    
C40   H12   S    
O27   P4    S    
C7    C8    S    
Ba2   P4    S    
C61   H54   S    
C37   C43   A    
O28   P7    S    
C2    O13   D    
C6    C14   D    
C52   H45   S    
C65   H21   S    
C4    H36   S    
Ba2   O29   S    
O16   P6    D    
C15   C31   D    
Ba2   O28   S    
C48   C49   S    
C8    N1    S    
C3    H32   S    
C51   C53   A    
C34   H13   S    
C4    C16   S    
C44   C46   S    
C57   C59   S    
C63   H3    S    
C65   C66   S    
Ba2   O5    S    
C23   O7    S    
C40   C64   S    
C13   C39   A    
C52   O17   S    
C40   H23   S    
C3    C5    S    
C18   C37   A    
C51   H44   S    
Ba2   O26   S    
C27   O11   D    
C26   N2    Am   
C58   C59   D    
O1    P1    D    
C29   H29   S    
C9    C36   A    
C41   C42   A    
C66   H26   S    
C35   C36   A    
C55   H49   S    
C29   C30   S    
C62   H57   S    
Ba2   O25   S    
C47   H47   S    
C17   C20   A    
C59   H42   S    
C31   C32   D    
C62   H2    S    
C1    F1    S    
C18   C19   A    
Ba1   O20   S    
C54   P7    S    
C65   H22   S    
O19   P2    D    
C1    C12   S    
C6    P4    S    
C16   H48   S    
C5    C14   S    
O3    P5    S    
C50   P2    S    
C12   H6    S    
C30   P6    S    
C23   H8    S    
O15   P6    S    
C45   H16   S    
C54   C60   A    
C67   O10   D    
Ba1   O1    S    
C67   N1    Am   
C18   C41   A    
Ba1   O4    S    
C15   H41   S    
O4    P1    S    
C46   C47   S    
C26   O14   D    
C39   C43   A    
C63   H4    S    
C39   H33   S    
O20   P3    S    
C1    H14   S    
C16   H15   S    
C45   H17   S    
C21   F3    S    
C14   H40   S    
O24   P4    D    
C9    C10   A    
O12   P2    S    
C34   H11   S    
Ba2   O4    S    
C52   H34   S    
C48   C58   S    
C4    H25   S    
C2    C13   A    
C56   H20   S    
C49   C50   D    
C62   C63   S    
C45   C56   S    
C36   C37   A    
O23   P3    S    
C34   H10   S    
Ba2   O24   S    
C28   F5    S    
O8    P8    D    
C31   P1    S    
O6    P7    D    
C29   C33   D    
C61   H55   S    
C66   H24   S    
C23   C34   S    
Ba1   O28   S    
O29   P5    S    
C42   H37   S    
C43   H39   S    
C3    C8    D    
C10   C11   A    
Ba1   P1    S    
C7    H27   S    
C47   C48   D    
C5    P8    S    
C25   C26   A    
C23   H9    S    
C15   C30   S    
O2    P5    D    
C20   C21   A    
C28   C40   S    
Ba1   O15   S    
O5    P2    S    
C41   H35   S    
C11   H28   S    
C65   O9    S    
C56   H18   S    
C44   F4    S    
C4    O23   S    
Ba1   O5    S    
O9    P8    S    
C12   H1    S    
C38   H31   S    
