data_mof_unit_16521.cif
_audit_creation_date              2012-12-10T18:02:05-0500
_audit_creation_method            fapswitch 2.2
_symmetry_space_group_name_H-M    P1
_symmetry_Int_Tables_number       1
_space_group_crystal_system       triclinic
_cell_length_a                    10.829037
_cell_length_b                    9.505426
_cell_length_c                    23.565384
_cell_angle_alpha                 89.952054
_cell_angle_beta                  90.676398
_cell_angle_gamma                 90.344163
_cell_volume                      2425.48010996

loop_
_atom_site_label
_atom_site_type_symbol
_atom_type_description
_atom_site_fract_x
_atom_site_fract_y
_atom_site_fract_z
_atom_type_partial_charge
C1    C     C_R   0.262157 0.499445 0.499996 0.928096
C2    C     C_R   0.737737 0.500623 0.500389 0.931541
C3    C     C_R   0.566459 0.375651 0.241336 0.464785
C4    C     C_R   0.448826 0.373789 0.759612 0.461640
C5    C     C_R   0.569298 0.385201 0.300979 0.319325
C6    C     C_R   0.441387 0.383424 0.700082 0.319746
C7    C     C_R   0.509194 0.497581 0.328369 -0.306232
C8    C     C_R   0.499486 0.496558 0.671674 -0.319247
C9    C     C_R   0.454517 0.605385 0.295803 0.393373
C10   C     C_R   0.560178 0.602947 0.703189 0.392917
C11   C     C_R   0.454528 0.596486 0.236564 -0.256017
C12   C     C_R   0.564699 0.593756 0.762472 -0.256032
C13   C     C_R   0.509983 0.483348 0.209093 0.102931
C14   C     C_R   0.508555 0.481607 0.790903 0.100832
C15   C     C_R   0.064141 0.392806 0.529732 0.349136
C16   C     C_R   0.935553 0.608935 0.472468 0.346991
C17   C     C_R   0.935436 0.398379 0.532362 0.330147
C18   C     C_R   0.064049 0.602831 0.469486 0.321149
C19   C     C_R   0.871510 0.502475 0.501583 -0.351455
C20   C     C_R   0.128206 0.498250 0.499839 -0.363792
C21   C     C_R   0.417988 0.073952 0.466939 -0.066379
C22   C     C_R   0.582274 0.926020 0.532887 -0.052176
C23   C     C_R   0.582197 0.074908 0.532968 -0.047951
C24   C     C_R   0.417715 0.925055 0.467089 -0.027663
C25   C     C_R   0.502817 0.499849 0.390942 0.906879
C26   C     C_R   0.499462 0.499636 0.609069 0.907728
C27   C     C_R   0.619922 0.471478 0.880684 0.566108
C28   C     C_R   0.399417 0.471088 0.119275 0.565251
C29   C     C_R   0.399856 0.482318 0.879989 0.650875
C30   C     C_R   0.619627 0.481486 0.120129 0.649983
C31   C     C_R   0.396941 0.468230 0.939418 -0.207088
C32   C     C_R   0.622492 0.467750 0.060660 -0.207409
C33   C     C_R   0.509885 0.463666 0.969978 -0.128224
C34   C     C_R   0.509531 0.463428 0.030062 -0.128029
C35   C     C_R   0.623082 0.461984 0.940519 -0.162129
C36   C     C_R   0.396288 0.461488 0.059485 -0.161979
C37   C     C_R   0.284334 0.456028 0.968837 0.461056
C38   C     C_R   0.734976 0.455959 0.031211 0.461026
C39   C     C_R   0.283900 0.451397 0.028177 0.334154
C40   C     C_R   0.735375 0.451890 0.971840 0.333952
Cu1   Cu    Cu3+1 0.500000 0.640660 0.500000 0.992372
Cu2   Cu    Cu3+1 0.500000 0.359340 0.500000 0.982221
H1    H     H_    0.409806 0.677548 0.211545 0.196258
H2    H     H_    0.612844 0.674149 0.786769 0.198626
H3    H     H_    0.352729 0.129735 0.440254 0.115070
H4    H     H_    0.648227 0.870099 0.559111 0.145853
H5    H     H_    0.647757 0.131397 0.559523 0.155252
H6    H     H_    0.351767 0.868454 0.440790 0.177697
N1    N     N_R   0.509597 0.479350 0.852008 -0.438677
N2    N     N_R   0.509729 0.479164 0.148016 -0.439120
N3    N     N_R   0.500000 0.852070 0.500000 -0.158602
N4    N     N_R   0.500000 0.147930 0.500000 -0.151847
O1    O     O_R   0.319640 0.618740 0.500000 -0.558702
O2    O     O_R   0.680360 0.381260 0.500000 -0.553582
O3    O     O_R   0.680360 0.618740 0.500000 -0.569216
O4    O     O_R   0.319640 0.381260 0.500000 -0.569971
O5    O     O_R   0.499960 0.618810 0.417880 -0.548471
O6    O     O_R   0.500040 0.381190 0.582120 -0.566075
O7    O     O_R   0.500040 0.618810 0.582120 -0.567491
O8    O     O_R   0.499960 0.381190 0.417880 -0.581272
O9    O     O_2   0.725691 0.474163 0.851050 -0.510492
O10   O     O_2   0.293554 0.473940 0.148825 -0.511512
O11   O     O_2   0.294181 0.501194 0.850098 -0.452030
O12   O     O_2   0.725449 0.499594 0.150112 -0.451845
O13   O     O_3   0.172590 0.447028 0.939910 -0.474050
C41   C     C_3   0.145620 0.303648 0.929805 -0.111866
H7    H     H_    0.221638 0.250156 0.906980 0.137786
H8    H     H_    0.062024 0.296524 0.902335 0.200912
H9    H     H_    0.125494 0.247442 0.970097 0.124593
O14   O     O_3   0.846625 0.446949 0.060138 -0.474268
C42   C     C_3   0.872345 0.303529 0.070092 -0.112970
H10   H     H_    0.795790 0.249561 0.092792 0.135726
H11   H     H_    0.955773 0.296327 0.097622 0.200851
H12   H     H_    0.892154 0.247841 0.029748 0.125259
O15   O     O_3   0.171361 0.435496 0.053980 -0.624257
H13   H     H_    0.178316 0.351426 0.078713 0.326995
O16   O     O_3   0.847775 0.436552 0.946020 -0.623583
H14   H     H_    0.840189 0.352508 0.921311 0.327192
O17   O     O_3   0.627662 0.266273 0.215214 -0.529879
C43   C     C_3   0.540397 0.169989 0.192424 -0.344763
H15   H     H_    0.505667 0.206012 0.150445 0.171177
H16   H     H_    0.461529 0.149731 0.221377 0.135765
H17   H     H_    0.587138 0.067946 0.185670 0.190522
O18   O     O_3   0.388423 0.264362 0.786724 -0.530017
C44   C     C_3   0.476294 0.169030 0.808894 -0.345632
H18   H     H_    0.513274 0.205937 0.850393 0.171496
H19   H     H_    0.553561 0.148878 0.779162 0.134382
H20   H     H_    0.429400 0.066771 0.816459 0.191743
O19   O     O_3   0.642830 0.294824 0.332655 -0.529047
C45   C     C_3   0.585931 0.161302 0.336395 -0.209758
H21   H     H_    0.483096 0.166106 0.337554 0.107563
H22   H     H_    0.617250 0.110497 0.376406 0.179363
H23   H     H_    0.616293 0.093362 0.301066 0.181562
O20   O     O_3   0.365918 0.291529 0.669677 -0.505499
C46   C     C_3   0.423308 0.159162 0.665049 -0.180731
H24   H     H_    0.525935 0.166012 0.662196 0.093938
H25   H     H_    0.389188 0.107754 0.625585 0.177880
H26   H     H_    0.396240 0.090480 0.700895 0.174358
O21   O     O_3   0.390525 0.712075 0.322014 -0.573639
C47   C     C_3   0.455288 0.839807 0.315110 -0.309732
H27   H     H_    0.550573 0.833149 0.333175 0.179939
H28   H     H_    0.405824 0.922739 0.338600 0.160205
H29   H     H_    0.457841 0.872991 0.269889 0.149181
O22   O     O_3   0.625346 0.708088 0.675752 -0.555070
C48   C     C_3   0.565830 0.837795 0.684308 -0.297649
H30   H     H_    0.567420 0.869490 0.729709 0.147533
H31   H     H_    0.469217 0.834824 0.667629 0.165872
H32   H     H_    0.616448 0.920332 0.660646 0.160681
O23   O     O_3   0.128234 0.292904 0.560974 -0.520428
C49   C     C_3   0.120020 0.162142 0.532722 -0.168655
H33   H     H_    0.188086 0.089496 0.552310 0.170302
H34   H     H_    0.142660 0.171181 0.486857 0.118041
H35   H     H_    0.027115 0.113905 0.537659 0.173074
O24   O     O_3   0.871630 0.710603 0.442074 -0.548766
C50   C     C_3   0.881368 0.840230 0.471091 -0.199927
H36   H     H_    0.859293 0.829662 0.516965 0.133283
H37   H     H_    0.813696 0.914362 0.452139 0.173119
H38   H     H_    0.974605 0.887646 0.466180 0.177856
O25   O     O_3   0.872294 0.299851 0.564348 -0.575948
C51   C     C_3   0.854880 0.355256 0.619154 -0.238242
H39   H     H_    0.803035 0.276883 0.644563 0.165535
H40   H     H_    0.799128 0.453254 0.617841 0.144164
H41   H     H_    0.944847 0.375016 0.641139 0.205080
O26   O     O_3   0.126800 0.701014 0.437248 -0.580843
C52   C     C_3   0.129433 0.653090 0.380674 -0.185395
H42   H     H_    0.192114 0.561382 0.376769 0.147565
H43   H     H_    0.165334 0.739309 0.353713 0.218659
H44   H     H_    0.035763 0.625753 0.363883 0.179194

loop_
_geom_bond_atom_site_label_1
_geom_bond_atom_site_label_2
_ccdc_geom_bond_type
C41   H8    S    
C38   O14   S    
C30   O12   S    
C8    C26   S    
Cu1   Cu2   S    
C15   O23   S    
C46   H24   S    
C3    O17   S    
Cu2   O6    S    
C29   O11   S    
O24   C50   S    
C23   N4    A    
C46   H26   S    
C29   N1    A    
C44   H18   S    
C48   H31   S    
C38   C40   A    
C1    O4    A    
C2    O3    A    
C33   C35   A    
C22   N3    A    
C41   H9    S    
C50   H36   S    
C13   N2    S    
C15   C17   A    
C1    O1    A    
C49   H33   S    
Cu1   O3    S    
C27   O9    S    
Cu2   O4    S    
C28   N2    A    
C50   H37   S    
C37   O13   S    
C52   H44   S    
C31   C33   A    
C11   H1    S    
O14   C42   S    
C25   O8    A    
C39   O15   S    
C26   O7    A    
C18   C20   A    
C3    C13   A    
C51   H41   S    
C24   N3    A    
C41   H7    S    
C30   N2    A    
C9    O21   S    
C25   O5    A    
C43   H17   S    
O22   C48   S    
C51   H40   S    
C21   H3    S    
C44   H19   S    
C15   C20   A    
C48   H32   S    
C23   H5    S    
C24   H6    S    
O18   C44   S    
Cu1   O7    S    
C4    C6    A    
C2    O2    A    
Cu2   O8    S    
C42   H11   S    
C6    C8    A    
C27   C35   A    
O16   H14   S    
C47   H29   S    
C31   C37   A    
C32   C34   A    
O15   H13   S    
C26   O6    A    
C45   H22   S    
O21   C47   S    
C4    O18   S    
C29   C31   A    
C50   H38   S    
C47   H28   S    
C33   C34   A    
C16   C18   A    
C9    C11   A    
C49   H35   S    
Cu1   O1    S    
C10   C12   A    
C43   H16   S    
C22   H4    S    
C12   C14   A    
C32   C38   A    
C52   H42   S    
C51   H39   S    
C45   H23   S    
C5    C7    A    
C44   H20   S    
C7    C9    A    
C1    C20   S    
C2    C19   S    
C40   O16   S    
C36   C39   A    
C43   H15   S    
C3    C5    A    
C16   O24   S    
C42   H12   S    
O25   C51   S    
C46   H25   S    
C48   H30   S    
C7    C25   S    
C10   O22   S    
C35   C40   A    
Cu1   O5    S    
C42   H10   S    
C37   C39   A    
O23   C49   S    
Cu2   O2    S    
C30   C32   A    
C11   C13   A    
C6    O20   S    
C45   H21   S    
C16   C19   A    
C47   H27   S    
C17   C19   A    
C34   C36   A    
C4    C14   A    
O20   C46   S    
C49   H34   S    
C17   O25   S    
O17   C43   S    
C14   N1    S    
C28   C36   A    
C8    C10   A    
O13   C41   S    
C21   C24   A    
Cu2   N4    S    
C52   H43   S    
C22   C23   A    
C12   H2    S    
O19   C45   S    
Cu1   N3    S    
C21   N4    A    
C5    O19   S    
C27   N1    A    
C18   O26   S    
O26   C52   S    
C28   O10   S    
