data_mof_unit_46637.cif
_audit_creation_date              2012-12-11T14:08:31-0500
_audit_creation_method            fapswitch 2.2
_symmetry_space_group_name_H-M    P1
_symmetry_Int_Tables_number       1
_space_group_crystal_system       triclinic
_cell_length_a                    11.073087
_cell_length_b                    11.110815
_cell_length_c                    18.801042
_cell_angle_alpha                 89.319731
_cell_angle_beta                  89.387252
_cell_angle_gamma                 59.457922
_cell_volume                      1992.01192365

loop_
_atom_site_label
_atom_site_type_symbol
_atom_type_description
_atom_site_fract_x
_atom_site_fract_y
_atom_site_fract_z
_atom_type_partial_charge
C1    C     C_R   0.235771 0.645554 0.607406 0.535450
C2    C     C_2   0.793496 0.108522 0.697595 -0.184586
C3    C     C_2   0.175266 0.663833 0.677421 -0.126958
C4    C     C_R   0.654182 0.621366 0.601752 0.537149
C5    C     C_2   0.186081 0.677203 0.838038 -0.000708
C6    C     C_2   0.195777 0.571000 0.799472 -0.161480
C7    C     C_2   0.225617 0.554751 0.722821 -0.183449
C8    C     C_2   0.651485 0.655459 0.318829 -0.108865
C9    C     C_2   0.639616 0.668299 0.161795 -0.104441
C10   C     C_2   0.717870 0.550521 0.199591 -0.004729
C11   C     C_2   0.750815 0.559499 0.274856 -0.000096
C12   C     C_3   0.702403 0.526063 0.807534 0.034375
C13   C     C_2   0.682374 0.131030 0.335540 0.008662
C14   C     C_2   0.649860 0.143127 0.178379 -0.101851
C15   C     C_2   0.637446 0.054309 0.222831 -0.126950
C16   C     C_R   0.633444 0.216230 0.596767 0.526220
C17   C     C_2   0.609482 0.084417 0.298596 -0.016976
C18   C     C_2   0.176192 0.669948 0.329839 0.019634
C19   C     C_2   0.186822 0.639796 0.171128 -0.110316
C20   C     C_2   0.231719 0.709666 0.208448 -0.171341
C21   C     C_2   0.266222 0.674329 0.282232 -0.124676
C22   C     C_R   0.703665 0.097425 0.895795 0.545734
C23   C     C_3   0.700995 0.668523 0.815368 0.072278
C24   C     C_R   0.722549 0.687309 0.889937 0.542893
C25   C     C_R   0.117544 0.708484 0.907553 0.546220
C26   C     C_R   0.674912 0.104961 0.104523 0.541043
C27   C     C_R   0.692065 0.687899 0.094125 0.547017
C28   C     C_R   0.222196 0.650455 0.402100 0.558020
C29   C     C_R   0.098748 0.705124 0.110370 0.554596
C30   C     C_R   0.642921 0.623285 0.393488 0.545952
C31   C     C_R   0.621429 0.223563 0.397173 0.566663
C32   C     C_3   0.559052 0.793558 0.787991 -0.237037
C33   C     C_3   0.533996 0.770288 0.710169 -0.142149
C34   C     C_3   0.672977 0.642242 0.678503 0.085461
C35   C     C_3   0.822465 0.669612 0.769826 -0.109045
C36   C     C_3   0.855491 0.373364 0.702004 -0.342061
C37   C     C_3   0.923737 0.607631 0.641501 -0.413485
C38   C     C_3   0.530068 0.222724 0.797426 -0.392674
C39   C     C_3   0.215809 0.787252 0.808466 -0.391584
C40   C     C_3   0.793010 0.409390 0.163482 -0.352745
C41   C     C_3   0.897783 0.455179 0.300135 -0.354587
C42   C     C_3   0.489617 0.071958 0.329462 -0.362282
C43   C     C_3   0.828131 0.097603 0.312488 -0.402213
C44   C     C_3   0.033628 0.691832 0.312946 -0.405527
C45   C     C_3   0.790240 0.679036 0.688993 -0.122622
C46   C     C_3   0.464958 0.910712 0.667386 -0.406405
C47   C     C_3   0.844883 0.791334 0.788946 -0.393450
C48   C     C_3   0.825552 0.397177 0.848350 -0.353646
C49   C     C_3   0.572463 0.537909 0.848092 -0.400918
C50   C     C_3   0.595909 0.461978 0.704055 -0.360874
C51   C     C_3   0.706670 0.501663 0.723099 0.054543
C52   C     C_2   0.688288 0.120296 0.658378 -0.132073
C53   C     C_2   0.683062 0.149747 0.821584 -0.016633
C54   C     C_2   0.795840 0.098382 0.776915 -0.175212
Cr1   Cr    Cr6+3 0.393010 0.398050 0.501480 0.994688
Cr2   Cr    Cr6+3 0.398820 0.707980 0.501630 0.989598
Cr3   Cr    Cr6+3 0.708140 0.393940 0.496850 0.982365
Cr4   Cr    Cr6+3 0.937950 0.938450 0.008940 0.999689
Cr5   Cr    Cr6+3 0.626180 0.937030 0.994750 1.001339
Cr6   Cr    Cr6+3 0.937790 0.625760 0.001410 0.991903
H1    H     H_    0.559507 0.892479 0.792837 0.143334
H2    H     H_    0.227928 0.803497 0.188157 0.153318
H3    H     H_    0.454058 0.740568 0.710145 0.148805
H4    H     H_    0.199699 0.541575 0.190889 0.112519
H5    H     H_    0.882483 0.279063 0.732707 0.096912
H6    H     H_    0.868800 0.330718 0.648302 0.182207
H7    H     H_    0.941608 0.392283 0.712662 0.106033
H8    H     H_    0.952505 0.686583 0.626672 0.124351
H9    H     H_    0.015393 0.520688 0.668364 0.138206
H10   H     H_    0.909734 0.570744 0.589876 0.168165
H11   H     H_    0.898632 0.047887 0.800646 0.127652
H12   H     H_    0.922606 0.572076 0.781474 0.151517
H13   H     H_    0.505258 0.277511 0.746140 0.117256
H14   H     H_    0.495532 0.145009 0.794211 0.132832
H15   H     H_    0.462549 0.302192 0.837276 0.133465
H16   H     H_    0.291499 0.449201 0.703407 0.148821
H17   H     H_    0.284096 0.751105 0.761906 0.116981
H18   H     H_    0.117192 0.882335 0.793442 0.121071
H19   H     H_    0.267172 0.817171 0.849234 0.136246
H20   H     H_    0.469288 0.812175 0.822011 0.105405
H21   H     H_    0.789417 0.330489 0.198273 0.108108
H22   H     H_    0.741773 0.411776 0.112541 0.134917
H23   H     H_    0.874827 0.119419 0.671318 0.132976
H24   H     H_    0.904542 0.375827 0.153040 0.150942
H25   H     H_    0.975533 0.436824 0.257675 0.111358
H26   H     H_    0.927661 0.494839 0.346657 0.145107
H27   H     H_    0.905983 0.354048 0.313946 0.145813
H28   H     H_    0.466201 0.005162 0.295570 0.104118
H29   H     H_    0.517500 0.022288 0.383018 0.144849
H30   H     H_    0.392833 0.176261 0.332127 0.162640
H31   H     H_    0.646261 0.236910 0.196822 0.089026
H32   H     H_    0.870531 0.026373 0.266446 0.136985
H33   H     H_    0.826457 0.195420 0.298599 0.128456
H34   H     H_    0.621330 0.083832 0.680114 0.112564
H35   H     H_    0.902185 0.045818 0.357182 0.139643
H36   H     H_    0.363885 0.665382 0.299656 0.136859
H37   H     H_    0.972542 0.787918 0.280645 0.143678
H38   H     H_    0.045145 0.601336 0.283284 0.126758
H39   H     H_    0.973666 0.702253 0.362524 0.116964
H40   H     H_    0.539093 0.922866 0.632416 0.130053
H41   H     H_    0.380276 0.918839 0.632879 0.167931
H42   H     H_    0.412567 0.002863 0.702855 0.108713
H43   H     H_    0.750118 0.892162 0.777223 0.135542
H44   H     H_    0.871073 0.790139 0.845443 0.180322
H45   H     H_    0.178015 0.492874 0.824747 0.131003
H46   H     H_    0.930148 0.787086 0.756669 0.135313
H47   H     H_    0.743483 0.789850 0.672423 0.141502
H48   H     H_    0.930769 0.380726 0.835251 0.126676
H49   H     H_    0.812623 0.403797 0.907111 0.158657
H50   H     H_    0.824019 0.300096 0.838906 0.121623
H51   H     H_    0.573141 0.437945 0.847982 0.139186
H52   H     H_    0.570251 0.566307 0.904760 0.126128
H53   H     H_    0.473510 0.616544 0.825649 0.126001
H54   H     H_    0.488925 0.533305 0.723227 0.097445
H55   H     H_    0.579929 0.459248 0.647139 0.192778
H56   H     H_    0.104173 0.770047 0.693836 0.105305
H57   H     H_    0.631092 0.360589 0.727516 0.155391
H58   H     H_    0.569277 0.766124 0.187885 0.072880
H59   H     H_    0.552656 0.737633 0.297841 0.069797
H60   H     H_    0.638007 0.962787 0.202387 0.140346
O1    O     O_R   0.507110 0.256280 0.580300 -0.527622
O2    O     O_R   0.837080 0.593860 0.915300 -0.544957
O3    O     O_R   0.064770 0.636080 0.932550 -0.517846
O4    O     O_R   0.280830 0.527190 0.577940 -0.501979
O5    O     O_R   0.068250 0.829200 0.092940 -0.514598
O6    O     O_R   0.799650 0.057040 0.080330 -0.496725
O7    O     O_R   0.586130 0.079760 0.077080 -0.510628
O8    O     O_R   0.627700 0.809630 0.066580 -0.505104
O9    O     O_R   0.816140 0.597180 0.075920 -0.511576
O10   O     O_R   0.045360 0.639170 0.081440 -0.500258
O11   O     O_3   0.833980 0.833750 0.001700 -0.256909
O12   O     O_R   0.524640 0.695370 0.425100 -0.505294
O13   O     O_R   0.261360 0.738990 0.584270 -0.528827
O14   O     O_R   0.532590 0.694780 0.574370 -0.512515
O15   O     O_R   0.744470 0.503750 0.577000 -0.549620
O16   O     O_R   0.698520 0.277230 0.571620 -0.519001
O17   O     O_R   0.498530 0.256920 0.419280 -0.523832
O18   O     O_R   0.272880 0.527780 0.428680 -0.496447
O19   O     O_R   0.252780 0.739630 0.423250 -0.523039
O20   O     O_R   0.735890 0.504390 0.415980 -0.513662
O21   O     O_R   0.690560 0.277820 0.422350 -0.501564
O22   O     O_3   0.499990 0.499990 0.499980 -0.253899
O23   O     O_R   0.089190 0.825870 0.932320 -0.522283
O24   O     O_R   0.819070 0.053960 0.931440 -0.509557
O25   O     O_R   0.607070 0.076440 0.916460 -0.520215
O26   O     O_R   0.647110 0.806550 0.917690 -0.518338

loop_
_geom_bond_atom_site_label_1
_geom_bond_atom_site_label_2
_ccdc_geom_bond_type
C49   H53   S    
Cr1   O1    S    
C33   C46   S    
C29   O5    A    
C50   H57   S    
C40   H24   S    
C48   H50   S    
C19   C20   D    
C12   C48   S    
C6    C7    S    
C35   C47   S    
C12   C49   S    
C36   H7    S    
C16   O16   A    
C53   C54   D    
C41   H26   S    
C46   H42   S    
C12   C23   S    
Cr5   O11   S    
C34   C51   S    
Cr1   O18   S    
C50   H54   S    
Cr3   O22   S    
C39   H17   S    
C32   H1    S    
C3    C7    D    
C3    H56   S    
C26   O6    A    
C5    C6    D    
C44   H39   S    
C36   H6    S    
Cr5   O7    S    
C18   C21   D    
C37   H8    S    
C15   H60   S    
C10   C40   S    
C50   H55   S    
C44   H37   S    
C17   C42   S    
C44   H38   S    
Cr4   O23   S    
C54   H11   S    
C43   H35   S    
C23   C24   S    
Cr3   O16   S    
C52   H34   S    
C31   O17   A    
C9    C10   D    
C19   H4    S    
C49   H51   S    
Cr2   O22   S    
C48   H49   S    
Cr1   O22   S    
C37   H10   S    
C9    H58   S    
C2    H23   S    
C25   O23   A    
C28   O19   A    
C1    O13   A    
Cr6   O11   S    
Cr2   O13   S    
C22   C53   S    
C38   H15   S    
C41   H27   S    
C46   H41   S    
C4    C34   S    
C47   H43   S    
C39   H18   S    
C40   H22   S    
C28   O18   A    
C2    C54   S    
Cr6   O10   S    
Cr2   O19   S    
C36   H5    S    
C50   C51   S    
Cr5   O8    S    
Cr3   O20   S    
C1    C3    S    
C39   H19   S    
C31   O21   A    
Cr6   O3    S    
C16   O1    A    
C18   C44   S    
C32   H20   S    
C27   O8    A    
C29   O10   A    
C22   O25   A    
Cr4   O11   S    
C33   H3    S    
C47   H46   S    
C24   O2    A    
C33   C34   S    
C18   C28   S    
C34   C45   S    
C14   C26   S    
Cr6   O2    S    
C25   O3    A    
Cr2   O12   S    
C36   C51   S    
C2    C52   D    
C49   H52   S    
C5    C25   S    
Cr5   O25   S    
C35   H12   S    
Cr4   O6    S    
C23   C35   S    
C4    O15   A    
C27   O9    A    
C37   H9    S    
C42   H28   S    
C37   C45   S    
C35   C45   S    
C13   C43   S    
C12   C51   S    
C9    C27   S    
C4    O14   A    
C38   H14   S    
C15   C17   S    
C46   H40   S    
Cr1   O4    S    
C47   H44   S    
C40   H21   S    
C13   C31   S    
C16   C52   S    
C30   O20   A    
Cr6   O9    S    
Cr2   O14   S    
C7    H16   S    
C21   H36   S    
Cr3   O21   S    
C41   H25   S    
C43   H32   S    
Cr1   O17   S    
C13   C17   D    
C42   H29   S    
C8    C30   S    
C23   C32   S    
C5    C39   S    
C1    O4    A    
C24   O26   A    
C32   C33   S    
C48   H48   S    
C38   C53   S    
C8    C11   D    
C30   O12   A    
C43   H33   S    
C6    H45   S    
C11   C41   S    
C26   O7    A    
C20   H2    S    
C14   H31   S    
C10   C11   S    
Cr5   O26   S    
Cr4   O24   S    
C20   C21   S    
Cr4   O5    S    
C22   O24   A    
C14   C15   D    
Cr3   O15   S    
C42   H30   S    
C45   H47   S    
C8    H59   S    
C38   H13   S    
C19   C29   S    
