data_mof_unit_58263.cif
_audit_creation_date              2013-03-05T16:03:18-0500
_audit_creation_method            fapswitch 2.2
_symmetry_space_group_name_H-M    P1
_symmetry_Int_Tables_number       1
_space_group_crystal_system       triclinic
_cell_length_a                    27.751949
_cell_length_b                    11.712631
_cell_length_c                    10.466897
_cell_angle_alpha                 89.90101
_cell_angle_beta                  89.657112
_cell_angle_gamma                 90.158186
_cell_volume                      3402.168409

loop_
_atom_site_label
_atom_site_type_symbol
_atom_site_description
_atom_site_fract_x
_atom_site_fract_y
_atom_site_fract_z
_atom_type_partial_charge
O1    O     O_R   0.500000 0.337200 0.605810 -0.569144
O2    O     O_R   0.500000 0.662800 0.394190 -0.569213
O3    O     O_R   0.500000 0.662800 0.605810 -0.563520
O4    O     O_R   0.500000 0.337200 0.394190 -0.563413
C1    C     C_R   0.499759 0.283336 0.500104 0.815823
C2    C     C_R   0.500227 0.716664 0.499897 0.816670
O5    O     O_R   0.430260 0.500000 0.605800 -0.581150
O6    O     O_R   0.569740 0.500000 0.394200 -0.581844
O7    O     O_R   0.569740 0.500000 0.605800 -0.573461
O8    O     O_R   0.430260 0.500000 0.394200 -0.573591
C3    C     C_R   0.407210 0.499647 0.500429 0.799820
C4    C     C_R   0.592810 0.500269 0.499598 0.799834
Cu1   Cu    Cu3+1 0.500000 0.500000 0.625300 0.970750
Cu2   Cu    Cu3+1 0.500000 0.500000 0.374700 0.970660
C5    C     C_R   0.175613 0.393203 0.497637 0.546045
C6    C     C_R   0.823952 0.608907 0.512524 0.558309
C7    C     C_R   0.178427 0.585041 0.571510 0.558691
C8    C     C_R   0.822272 0.416719 0.438824 0.559814
O9    O     O_2   0.198174 0.305413 0.439550 -0.562326
O10   O     O_2   0.799584 0.697766 0.562251 -0.561369
O11   O     O_2   0.205362 0.669806 0.620862 -0.556136
O12   O     O_2   0.795823 0.331050 0.389501 -0.556668
N1    N     N_R   0.201143 0.489145 0.527752 -0.448033
N2    N     N_R   0.799089 0.512338 0.480909 -0.450723
C9    C     C_R   0.276321 0.572903 0.443793 -0.133185
C10   C     C_R   0.723517 0.428931 0.562448 -0.135571
C11   C     C_R   0.279984 0.405912 0.579346 -0.098202
C12   C     C_R   0.720420 0.592212 0.421295 -0.093555
C13   C     C_R   0.326665 0.578441 0.437924 0.094158
C14   C     C_R   0.673165 0.422701 0.565920 0.095060
C15   C     C_R   0.330575 0.405364 0.571557 0.065133
C16   C     C_R   0.669786 0.592416 0.426780 0.063939
C17   C     C_R   0.252922 0.488727 0.515952 0.268236
C18   C     C_R   0.747207 0.511769 0.489114 0.268674
C19   C     C_R   0.101173 0.492936 0.537639 -0.120612
C20   C     C_R   0.899202 0.510156 0.473840 -0.127061
C21   C     C_R   0.125612 0.388726 0.519754 -0.074232
C22   C     C_R   0.874516 0.614037 0.496796 -0.082575
C23   C     C_R   0.127497 0.593558 0.566884 -0.054457
C24   C     C_R   0.873085 0.409356 0.443927 -0.058870
C25   C     C_R   0.099248 0.285005 0.526619 0.061687
C26   C     C_R   0.901265 0.718268 0.497910 0.108985
C27   C     C_R   0.101736 0.695873 0.595147 0.040720
C28   C     C_R   0.898940 0.307545 0.414484 0.032253
C29   C     C_R   0.354157 0.494401 0.502589 -0.108345
C30   C     C_R   0.645904 0.505034 0.497769 -0.109370
H1    H     H_    0.260758 0.342907 0.635498 0.158876
H2    H     H_    0.739924 0.653932 0.364037 0.157368
H3    H     H_    0.254887 0.636571 0.395091 0.142653
H4    H     H_    0.744786 0.366857 0.614141 0.142406
C31   C     C_R   0.974903 0.403120 0.463615 0.041885
C32   C     C_R   0.025854 0.600342 0.541601 0.002594
C33   C     C_R   0.976011 0.607401 0.511261 -0.039912
C34   C     C_R   0.024855 0.395426 0.493569 0.026634
C35   C     C_R   0.950047 0.506553 0.484561 -0.082564
C36   C     C_R   0.050574 0.496403 0.523573 -0.081071
C37   C     C_R   0.949594 0.313369 0.404012 0.435845
C38   C     C_R   0.050836 0.691486 0.600119 0.363081
C39   C     C_R   0.951993 0.713371 0.494182 0.440115
C40   C     C_R   0.048508 0.288764 0.509907 0.445509
C41   C     C_1   0.499790 0.161977 0.500260 -0.185997
C42   C     C_1   0.500178 0.838023 0.499745 -0.185844
C43   C     C_1   0.499898 0.059728 0.500142 0.004740
C44   C     C_1   0.500059 0.940272 0.499870 0.004508
N3    N     N_1   0.500000 0.500000 0.186410 -0.143638
N4    N     N_1   0.500000 0.500000 0.813590 -0.143718
C45   C     C_1   0.500001 0.500003 0.072059 0.083266
C46   C     C_1   0.500000 0.499997 0.927941 0.083242
C47   C     C_3   0.360016 0.311344 0.635315 -0.361635
C48   C     C_3   0.331673 0.206291 0.680301 -0.839286
H5    H     H_    0.307732 0.228325 0.761942 0.249052
H6    H     H_    0.310175 0.170279 0.600669 0.265743
H7    H     H_    0.357225 0.139818 0.713322 0.248689
H8    H     H_    0.387530 0.280456 0.565992 0.193782
H9    H     H_    0.379141 0.347676 0.718887 0.225733
C49   C     C_3   0.640660 0.684620 0.358814 -0.361005
C50   C     C_3   0.669202 0.788522 0.311353 -0.839458
H10   H     H_    0.690227 0.826814 0.390552 0.267464
H11   H     H_    0.693615 0.764358 0.231475 0.248280
H12   H     H_    0.643809 0.853946 0.275029 0.248655
H13   H     H_    0.622014 0.646005 0.275755 0.225792
H14   H     H_    0.612774 0.717284 0.426026 0.194819
C51   C     C_3   0.349543 0.678382 0.367718 -0.403306
C52   C     C_3   0.367624 0.768688 0.461066 -0.785771
H15   H     H_    0.337059 0.802706 0.518340 0.262498
H16   H     H_    0.394830 0.732479 0.526754 0.240324
H17   H     H_    0.384486 0.840237 0.407132 0.239378
H18   H     H_    0.379308 0.649552 0.304636 0.225761
H19   H     H_    0.322934 0.719683 0.303582 0.199924
C53   C     C_3   0.650111 0.323851 0.637736 -0.401931
C54   C     C_3   0.632076 0.232243 0.545908 -0.784276
H20   H     H_    0.605024 0.267570 0.479202 0.239373
H21   H     H_    0.662695 0.197181 0.489651 0.262017
H22   H     H_    0.615046 0.161622 0.600996 0.239342
H23   H     H_    0.676597 0.283273 0.702800 0.199239
H24   H     H_    0.620333 0.353652 0.700169 0.226208
C55   C     C_3   0.123281 0.174904 0.572624 -0.377407
C56   C     C_3   0.105762 0.139877 0.706108 -0.831263
H25   H     H_    0.109734 0.212409 0.773538 0.261059
H26   H     H_    0.067672 0.111407 0.705877 0.286456
H27   H     H_    0.127893 0.067683 0.741479 0.234362
H28   H     H_    0.117336 0.104879 0.503223 0.199884
H29   H     H_    0.162692 0.183406 0.582532 0.249105
C57   C     C_3   0.877524 0.835363 0.486338 -0.298975
C58   C     C_3   0.854226 0.851317 0.355470 -0.808736
H30   H     H_    0.881877 0.842782 0.278909 0.255722
H31   H     H_    0.825313 0.787504 0.339273 0.259783
H32   H     H_    0.838133 0.937731 0.348904 0.236917
H33   H     H_    0.851463 0.850846 0.564732 0.232204
H34   H     H_    0.903977 0.905709 0.498366 0.243835
C59   C     C_3   0.126033 0.812577 0.607199 -0.350020
C60   C     C_3   0.148257 0.851530 0.480112 -0.759133
H35   H     H_    0.173348 0.787479 0.439669 0.264617
H36   H     H_    0.119286 0.867245 0.409469 0.235102
H37   H     H_    0.168561 0.932201 0.494689 0.237951
H38   H     H_    0.099992 0.880408 0.633068 0.206936
H39   H     H_    0.152707 0.813437 0.685500 0.240808
C61   C     C_3   0.875435 0.189594 0.408787 -0.346876
C62   C     C_3   0.854525 0.154744 0.538943 -0.752017
H40   H     H_    0.884052 0.145923 0.609469 0.251242
H41   H     H_    0.828303 0.217933 0.575894 0.262369
H42   H     H_    0.835754 0.071398 0.530678 0.231597
H43   H     H_    0.848136 0.184580 0.332226 0.238313
H44   H     H_    0.902008 0.122246 0.384599 0.212431
O13   O     O_3   0.974745 0.238522 0.326479 -0.712486
H45   H     H_    0.952970 0.210589 0.258536 0.313104
O14   O     O_3   0.024746 0.772068 0.667337 -0.697715
H46   H     H_    0.043917 0.795948 0.742358 0.315189
O15   O     O_3   0.976912 0.811359 0.460020 -0.699596
H47   H     H_    0.006437 0.789069 0.412583 0.325025
O16   O     O_3   0.020726 0.191635 0.525971 -0.692834
H48   H     H_    0.038614 0.125167 0.492230 0.349030

loop_
_geom_bond_atom_site_label_1
_geom_bond_atom_site_label_2
_geom_bond_distance
_ccdc_geom_bond_type
O5    Cu1   1.947368 S    
N4    C46   1.196901 T    
C33   C35   1.411160 A    
C59   C60   1.531184 S    
C52   H17   1.110401 S    
C14   C53   1.517251 S    
O3    C2    1.274556 A    
C60   H36   1.111069 S    
C55   C56   1.531509 S    
C33   C39   1.421974 A    
C53   H23   1.112102 S    
C34   C40   1.423373 A    
C50   H10   1.111047 S    
C11   C17   1.397467 A    
O5    C3    1.278309 A    
C58   H31   1.109031 S    
C7    N1    1.367835 A    
O1    C1    1.274637 A    
C19   C21   1.410191 A    
C52   H16   1.108884 S    
C13   C51   1.516812 S    
C10   H4    1.083790 S    
C37   O13   1.383224 S    
C57   H33   1.106073 S    
C62   H42   1.108986 S    
C7    C23   1.418318 A    
C41   C43   1.197622 T    
O7    Cu1   1.944935 S    
C61   C62   1.531860 S    
C60   H35   1.107852 S    
C42   C44   1.197627 T    
C27   C38   1.414013 A    
C5    O9    1.349123 S    
C10   C18   1.396663 A    
C12   C16   1.406030 A    
C5    C21   1.406263 A    
N3    C45   1.196902 T    
N2    C18   1.441866 S    
C59   H38   1.108325 S    
C31   C37   1.411038 A    
C24   C28   1.426587 A    
C31   C35   1.412546 A    
C55   H28   1.109210 S    
O3    Cu1   1.917347 S    
C6    O10   1.346471 S    
C62   H41   1.107938 S    
C51   H18   1.108201 S    
C12   C18   1.397200 A    
C38   O14   1.382040 S    
C6    N2    1.365532 A    
Cu1   Cu2   2.623004 S    
C21   C25   1.417919 A    
C12   H2    1.080373 S    
O2    C2    1.274637 A    
C27   C59   1.528240 S    
C40   O16   1.381990 S    
C57   C58   1.529591 S    
Cu1   N4    1.970813 S    
C50   H11   1.110519 S    
C9    C13   1.399455 A    
C51   H19   1.112099 S    
C58   H32   1.109597 S    
C34   C36   1.416397 A    
C11   C15   1.405901 A    
C45   C46   1.508464 S    
C20   C24   1.420031 A    
C49   C50   1.530709 S    
C4    C30   1.474384 S    
O8    Cu2   1.944938 S    
C49   H14   1.111871 S    
C54   H20   1.108739 S    
C23   C27   1.427640 A    
N1    C17   1.441575 S    
C7    O11   1.346697 S    
C13   C29   1.420260 A    
C26   C39   1.409420 A    
C19   C23   1.419687 A    
C54   H21   1.110951 S    
C51   C52   1.526994 S    
C28   C61   1.527555 S    
C28   C37   1.410835 A    
O6    C4    1.278822 A    
C48   H7    1.110654 S    
C1    C41   1.421433 S    
C47   H8    1.111854 S    
C61   H44   1.109872 S    
C52   H15   1.110962 S    
C55   H29   1.103500 S    
C32   C38   1.413767 A    
C10   C14   1.399303 A    
C56   H26   1.107551 S    
O13   H45   0.991356 S    
C8    N2    1.365478 A    
C3    C29   1.473467 S    
O1    Cu1   1.918048 S    
O14   H46   0.991366 S    
C48   H5    1.110486 S    
C32   C33   1.423652 A    
O15   H47   0.991378 S    
C50   H12   1.110642 S    
C11   H1    1.080399 S    
C39   O15   1.383674 S    
O6    Cu2   1.947365 S    
C19   C36   1.413495 A    
C8    O12   1.346980 S    
C16   C30   1.423582 A    
C14   C30   1.420997 A    
C25   C40   1.420779 A    
O4    C1    1.274558 A    
C26   C57   1.528125 S    
C49   H13   1.110664 S    
C16   C49   1.527986 S    
C62   H40   1.111094 S    
C53   H24   1.108007 S    
C56   H27   1.110758 S    
C58   H30   1.111017 S    
C59   H39   1.107717 S    
C31   C34   1.426155 A    
C2    C42   1.421437 S    
C20   C22   1.418148 A    
C20   C35   1.416917 A    
C54   H22   1.110374 S    
C57   H34   1.109862 S    
C53   C54   1.527075 S    
C5    N1    1.365136 A    
Cu2   N3    1.970812 S    
C47   H9    1.110657 S    
C25   C55   1.531729 S    
C61   H43   1.107600 S    
O4    Cu2   1.917347 S    
C47   C48   1.530564 S    
O2    Cu2   1.918048 S    
O7    C4    1.279473 A    
C9    H3    1.083762 S    
O8    C3    1.279447 A    
C43   C44   1.399167 S    
C22   C26   1.427142 A    
C32   C36   1.411440 A    
C15   C47   1.527935 S    
C8    C24   1.414374 A    
C56   H25   1.111072 S    
C15   C29   1.423000 A    
C9    C17   1.397195 A    
C48   H6    1.111015 S    
C60   H37   1.110024 S    
O16   H48   0.989065 S    
C6    C22   1.412993 A    
