data_mof_unit_49016.cif
_audit_creation_date              2012-12-11T15:19:41-0500
_audit_creation_method            fapswitch 2.2
_symmetry_space_group_name_H-M    P1
_symmetry_Int_Tables_number       1
_space_group_crystal_system       triclinic
_cell_length_a                    19.925212
_cell_length_b                    6.882916
_cell_length_c                    18.156267
_cell_angle_alpha                 90.070155
_cell_angle_beta                  103.997216
_cell_angle_gamma                 90.096091
_cell_volume                      2416.07347117

loop_
_atom_site_label
_atom_site_type_symbol
_atom_type_description
_atom_site_fract_x
_atom_site_fract_y
_atom_site_fract_z
_atom_type_partial_charge
O1    O     O_R   0.312200 0.620210 0.189560 -0.549924
O2    O     O_R   0.687800 0.379790 0.810440 -0.525511
O3    O     O_R   0.187800 0.120210 0.310440 -0.551226
O4    O     O_R   0.812200 0.879790 0.689560 -0.522224
O5    O     O_R   0.171590 0.286140 0.165000 -0.545642
O6    O     O_R   0.828410 0.713860 0.835000 -0.531530
O7    O     O_R   0.328410 0.786140 0.335000 -0.543069
O8    O     O_R   0.671590 0.213860 0.665000 -0.532274
C1    C     C_R   0.145950 0.459626 0.143462 0.703752
C2    C     C_R   0.854518 0.540780 0.855959 0.724786
C3    C     C_R   0.354317 0.959799 0.356161 0.714993
C4    C     C_R   0.645722 0.040425 0.643772 0.708985
O9    O     O_R   0.310670 0.290220 0.180540 -0.529572
O10   O     O_R   0.689330 0.709780 0.819460 -0.553239
O11   O     O_R   0.189330 0.790220 0.319460 -0.534019
O12   O     O_R   0.810670 0.209780 0.680540 -0.549925
O13   O     O_R   0.327870 0.124170 0.326080 -0.525366
O14   O     O_R   0.672130 0.875830 0.673920 -0.541938
O15   O     O_R   0.172130 0.624170 0.173920 -0.528727
O16   O     O_R   0.827870 0.375830 0.826080 -0.537638
C5    C     C_R   0.334359 0.458800 0.168160 0.731814
C6    C     C_R   0.666987 0.540932 0.833471 0.723824
C7    C     C_R   0.166151 0.958576 0.332667 0.704408
C8    C     C_R   0.832291 0.040993 0.665611 0.737057
O17   O     O_3   0.255480 0.455050 0.297740 -0.365414
O18   O     O_3   0.744520 0.544950 0.702260 -0.366787
O19   O     O_3   0.244520 0.955050 0.202260 -0.365903
O20   O     O_3   0.755480 0.044950 0.797740 -0.365694
V1    V     V_3+5 0.248980 0.178550 0.241140 1.422123
V2    V     V_3+5 0.751020 0.821450 0.758860 1.444099
V3    V     V_3+5 0.251020 0.678550 0.258860 1.415416
V4    V     V_3+5 0.748980 0.321450 0.741140 1.444841
C9    C     C_R   0.951983 0.970256 0.649894 0.416784
C10   C     C_R   0.045764 0.025596 0.349554 0.378882
C11   C     C_R   0.544417 0.528483 0.848535 0.387942
C12   C     C_R   0.457634 0.473070 0.154282 0.395885
C13   C     C_R   0.883628 0.033734 0.618957 -0.176546
C14   C     C_R   0.115213 0.968304 0.379904 -0.158429
C15   C     C_R   0.616428 0.533641 0.880920 -0.163548
C16   C     C_R   0.385542 0.470030 0.121411 -0.164960
C17   C     C_R   0.864174 0.096789 0.543904 -0.245433
C18   C     C_R   0.136125 0.912822 0.456127 -0.244471
C19   C     C_R   0.641498 0.530350 0.959486 -0.226663
C20   C     C_R   0.361007 0.479118 0.042920 -0.245695
C21   C     C_R   0.911202 0.095747 0.497279 -0.006618
C22   C     C_R   0.089524 0.914478 0.503471 -0.000782
C23   C     C_R   0.596542 0.522106 0.008422 0.007447
C24   C     C_R   0.406441 0.486801 0.994660 -0.000278
C25   C     C_R   0.978210 0.016895 0.525607 -0.091207
C26   C     C_R   0.023869 0.000261 0.476768 -0.087251
C27   C     C_R   0.524255 0.518530 0.977310 -0.094275
C28   C     C_R   0.478559 0.501714 0.026321 -0.089099
C29   C     C_R   0.998837 0.950628 0.602071 -0.103382
C30   C     C_R   0.002623 0.060857 0.399964 -0.102691
C31   C     C_R   0.497720 0.525826 0.897011 -0.103651
C32   C     C_R   0.504910 0.493059 0.106650 -0.101585
C33   C     C_R   0.891938 0.167213 0.421999 0.247846
C34   C     C_R   0.107340 0.832428 0.577033 0.233667
C35   C     C_R   0.622824 0.511365 0.087906 0.243404
C36   C     C_R   0.380668 0.486047 0.914969 0.224389
C37   C     C_R   0.937848 0.153142 0.374491 0.420597
C38   C     C_R   0.064710 0.861895 0.627896 0.407811
C39   C     C_R   0.577674 0.504147 0.136984 0.419353
C40   C     C_R   0.425025 0.525401 0.867269 0.423125
H1    H     H_    0.811208 0.143313 0.522335 0.135377
H2    H     H_    0.189165 0.866502 0.477776 0.134111
H3    H     H_    0.697046 0.528496 0.981391 0.130325
H4    H     H_    0.305510 0.481853 0.020171 0.130368
C41   C     C_1   0.583344 0.027959 0.581386 -0.193265
C42   C     C_1   0.416838 0.973715 0.418307 -0.193677
C43   C     C_1   0.917413 0.528726 0.917718 -0.190428
C44   C     C_1   0.083997 0.473660 0.080595 -0.202481
C45   C     C_1   0.531046 0.012530 0.529850 -0.006162
C46   C     C_1   0.469226 0.991019 0.469613 -0.007628
C47   C     C_1   0.970049 0.513058 0.968774 -0.003507
C48   C     C_1   0.031925 0.491475 0.028913 -0.012748
O21   O     O_3   0.971652 0.919836 0.725977 -0.534555
C49   C     C_3   0.985642 0.091265 0.770343 0.108075
H5    H     H_    0.939659 0.187020 0.762113 0.110353
H6    H     H_    0.028151 0.176549 0.755878 0.111794
C50   C     C_3   0.006340 0.037178 0.853997 -0.677416
H7    H     H_    0.052702 0.942720 0.865694 0.219486
H8    H     H_    0.018418 0.170705 0.889109 0.178050
H9    H     H_    0.963212 0.958846 0.870036 0.222980
O22   O     O_3   0.013276 0.980083 0.274875 -0.555060
C51   C     C_3   0.031399 0.107812 0.222297 0.145927
H10   H     H_    0.079013 0.056445 0.207259 0.125649
H11   H     H_    0.038571 0.260220 0.243431 0.104759
C52   C     C_3   0.974050 0.101020 0.149643 -0.680735
H12   H     H_    0.923860 0.143098 0.161227 0.260981
H13   H     H_    0.985906 0.201475 0.107014 0.173631
H14   H     H_    0.969235 0.951492 0.125777 0.213433
O23   O     O_3   0.520762 0.479143 0.772543 -0.537600
C53   C     C_3   0.520439 0.642740 0.725609 0.138062
H15   H     H_    0.573197 0.696667 0.728139 0.105781
H16   H     H_    0.490164 0.764112 0.741522 0.122462
C54   C     C_3   0.488657 0.583261 0.643831 -0.668962
H17   H     H_    0.437851 0.511599 0.639335 0.244977
H18   H     H_    0.480957 0.713047 0.606705 0.171248
H19   H     H_    0.523417 0.479971 0.624117 0.212560
O24   O     O_3   0.481822 0.426393 0.230435 -0.536868
C55   C     C_3   0.478627 0.590152 0.276501 0.127623
H20   H     H_    0.425075 0.617357 0.280556 0.121046
H21   H     H_    0.498472 0.723987 0.254615 0.096876
C56   C     C_3   0.520889 0.549599 0.356770 -0.667898
H22   H     H_    0.574402 0.506842 0.356274 0.242418
H23   H     H_    0.523016 0.681533 0.392386 0.171836
H24   H     H_    0.496684 0.429679 0.382204 0.215828
O25   O     O_3   0.828622 0.253044 0.392318 -0.631799
H25   H     H_    0.817614 0.337934 0.431843 0.277455
O26   O     O_3   0.163806 0.711534 0.600027 -0.650796
H26   H     H_    0.171678 0.641076 0.555303 0.289021
O27   O     O_3   0.692925 0.499420 0.119799 -0.635223
H27   H     H_    0.715562 0.607400 0.098958 0.276505
O28   O     O_3   0.312188 0.446816 0.880920 -0.649726
H28   H     H_    0.295510 0.345334 0.910818 0.284387
O29   O     O_3   0.919767 0.238424 0.303389 -0.521608
C57   C     C_3   0.934243 0.440000 0.311510 0.121046
H29   H     H_    0.990943 0.465680 0.331670 0.097343
H30   H     H_    0.907756 0.509340 0.352216 0.136007
C58   C     C_3   0.908485 0.540404 0.235266 -0.668848
H31   H     H_    0.853070 0.505408 0.211256 0.237991
H32   H     H_    0.913999 0.700170 0.242809 0.224976
H33   H     H_    0.939076 0.493176 0.194904 0.205338
O30   O     O_3   0.081534 0.769730 0.697859 -0.513867
C59   C     C_3   0.139916 0.858945 0.746330 0.167195
H34   H     H_    0.124944 0.997659 0.768802 0.101915
H35   H     H_    0.182319 0.891296 0.718137 0.136626
C60   C     C_3   0.168669 0.723963 0.812679 -0.665548
H36   H     H_    0.188284 0.589034 0.791675 0.253920
H37   H     H_    0.211736 0.796616 0.853872 0.169110
H38   H     H_    0.127667 0.684848 0.841963 0.218202
O31   O     O_3   0.605226 0.493577 0.214914 -0.517248
C61   C     C_3   0.643961 0.663124 0.243148 0.144375
H39   H     H_    0.614295 0.752454 0.274945 0.115583
H40   H     H_    0.655963 0.760550 0.199004 0.110452
C62   C     C_3   0.711433 0.604509 0.298165 -0.615006
H41   H     H_    0.743129 0.514516 0.268755 0.267149
H42   H     H_    0.741414 0.736319 0.321432 0.175503
H43   H     H_    0.700432 0.519552 0.345878 0.209323
O32   O     O_3   0.396661 0.553901 0.790445 -0.516917
C63   C     C_3   0.363836 0.738006 0.780177 0.120449
H44   H     H_    0.401856 0.856823 0.800498 0.091958
H45   H     H_    0.322144 0.749177 0.811000 0.154209
C64   C     C_3   0.330470 0.769960 0.696426 -0.662529
H46   H     H_    0.296447 0.645072 0.673542 0.256822
H47   H     H_    0.299086 0.904839 0.689206 0.185373
H48   H     H_    0.370456 0.786170 0.663803 0.202814

loop_
_geom_bond_atom_site_label_1
_geom_bond_atom_site_label_2
_ccdc_geom_bond_type
C34   C38   A    
C4    C41   S    
O17   V3    S    
O24   C55   S    
O19   V1    S    
O13   V1    S    
C45   C46   S    
C56   H22   S    
O3    C7    A    
O26   H26   S    
C1    C44   S    
C44   C48   T    
O15   V3    S    
C50   H9    S    
C61   C62   S    
C50   H7    S    
C3    C42   S    
O22   C51   S    
O1    C5    A    
C62   H42   S    
C21   C33   A    
O5    C1    A    
O23   C53   S    
C39   O31   S    
O9    V1    S    
C14   C18   A    
C64   H46   S    
C11   C15   A    
O4    C8    A    
C49   H6    S    
C40   O32   S    
O28   H28   S    
C54   H17   S    
O1    V3    S    
C55   C56   S    
O2    V4    S    
C18   C22   A    
C33   C37   A    
O3    V1    S    
C57   H29   S    
C58   H33   S    
C54   H18   S    
O32   C63   S    
C1    O15   A    
C33   O25   S    
C2    O16   A    
O2    C6    A    
C41   C45   T    
O14   V2    S    
C21   C25   A    
C52   H13   S    
C16   C20   A    
C27   C31   A    
C35   O27   S    
C60   H38   S    
C2    C43   S    
O11   C7    A    
O12   C8    A    
C22   C34   A    
O17   V1    S    
C63   C64   S    
C53   H15   S    
O10   V2    S    
C64   H47   S    
C24   C36   A    
O5    V1    S    
C11   O23   S    
C9    C29   A    
C62   H43   S    
O7    V3    S    
C11   C31   A    
C34   O26   S    
O8    V4    S    
O20   V4    S    
C51   H10   S    
C17   H1    S    
C53   C54   S    
O21   C49   S    
C37   O29   S    
C9    C13   A    
C27   C28   A    
C12   O24   S    
C57   C58   S    
O7    C3    A    
C47   C48   S    
C42   C46   T    
C12   C32   A    
C56   H23   S    
C29   C38   A    
C12   C16   A    
O8    C4    A    
C31   C40   A    
C8    C13   S    
C32   C39   A    
O9    C5    A    
C26   C30   A    
C56   H24   S    
C52   H14   S    
C53   H16   S    
C58   H31   S    
O6    V2    S    
C10   C30   A    
O19   V3    S    
O30   C59   S    
C63   H45   S    
C20   H4    S    
C54   H19   S    
C64   H48   S    
O27   H27   S    
O16   V4    S    
C3    O13   A    
C59   H35   S    
C10   C14   A    
C51   C52   S    
C50   H8    S    
C38   O30   S    
C23   C27   A    
O11   V3    S    
C61   H39   S    
O18   V4    S    
C30   C37   A    
O12   V4    S    
C7    C14   S    
C62   H41   S    
C22   C26   A    
C35   C39   A    
C59   C60   S    
C55   H21   S    
C36   C40   A    
O10   C6    A    
O20   V2    S    
C60   H36   S    
O29   C57   S    
C43   C47   T    
C49   H5    S    
C49   C50   S    
C9    O21   S    
O31   C61   S    
C5    C16   S    
C59   H34   S    
C25   C29   A    
C6    C15   S    
C61   H40   S    
C51   H11   S    
C13   C17   A    
C55   H20   S    
C57   H30   S    
C58   H32   S    
O6    C2    A    
C23   C35   A    
C28   C32   A    
C24   C28   A    
C15   C19   A    
C19   H3    S    
C25   C26   A    
C4    O14   A    
C18   H2    S    
C17   C21   A    
C63   H44   S    
C36   O28   S    
C52   H12   S    
O25   H25   S    
C19   C23   A    
C10   O22   S    
O4    V2    S    
C20   C24   A    
C60   H37   S    
O18   V2    S    
