data_mof_unit_28066.cif
_audit_creation_date              2012-12-10T17:23:37-0500
_audit_creation_method            fapswitch 2.2
_symmetry_space_group_name_H-M    P1
_symmetry_Int_Tables_number       1
_space_group_crystal_system       triclinic
_cell_length_a                    10.191546
_cell_length_b                    10.750354
_cell_length_c                    15.745255
_cell_angle_alpha                 90.533466
_cell_angle_beta                  81.001842
_cell_angle_gamma                 97.264963
_cell_volume                      1690.08784593

loop_
_atom_site_label
_atom_site_type_symbol
_atom_type_description
_atom_site_fract_x
_atom_site_fract_y
_atom_site_fract_z
_atom_type_partial_charge
C1    C     C_R   0.558751 0.732998 0.491918 0.941090
C2    C     C_3   0.532949 0.390840 0.968229 0.101002
C3    C     C_3   0.588995 0.593306 0.963600 0.104977
C4    C     C_3   0.411005 0.406693 0.036400 0.104976
C5    C     C_1   0.499454 0.499929 0.750463 -0.104745
C6    C     C_1   0.500546 0.500071 0.249537 -0.104744
C7    C     C_3   0.375510 0.515938 0.985082 0.347407
C8    C     C_3   0.624489 0.484061 0.014918 0.347407
C9    C     C_3   0.498649 0.499935 0.916378 -0.130817
C10   C     C_3   0.501351 0.500065 0.083622 -0.130817
C11   C     C_1   0.498983 0.499859 0.825630 0.067874
C12   C     C_R   0.441249 0.267002 0.508082 0.941091
C13   C     C_1   0.501017 0.500141 0.174370 0.067874
C14   C     C_2   0.597472 0.867139 0.477984 0.000179
C15   C     C_2   0.402528 0.132862 0.522018 0.000178
C16   C     C_3   0.759580 0.773517 0.973328 -0.655574
C17   C     C_3   0.240420 0.226482 0.026672 -0.655575
C18   C     C_3   0.404807 0.819429 0.013159 -0.664991
C19   C     C_3   0.595193 0.180571 0.986841 -0.664991
C20   C     C_3   0.223147 0.165903 0.645386 -0.614471
C21   C     C_3   0.776863 0.834102 0.354622 -0.614471
C22   C     C_2   0.514140 0.942022 0.520212 0.245954
C23   C     C_2   0.485857 0.057977 0.479790 0.245951
C24   C     C_2   0.928937 0.512730 0.505830 0.308997
C25   C     C_2   0.071062 0.487270 0.494169 0.308998
C26   C     C_R   0.499901 0.500081 0.661728 0.901175
C27   C     C_R   0.500099 0.499919 0.338272 0.901177
C28   C     C_3   0.467050 0.609160 0.031771 0.101003
Cl1   Cl    Cl    0.786628 0.463374 0.037305 -0.564793
Cl2   Cl    Cl    0.213372 0.536625 0.962694 -0.564792
Cl3   Cl    Cl    0.555508 0.100230 0.371164 -0.592029
Cl4   Cl    Cl    0.444487 0.899767 0.628837 -0.592028
Cl5   Cl    Cl    0.123462 0.367620 0.424299 -0.596141
Cl6   Cl    Cl    0.876537 0.632380 0.575701 -0.596143
H1    H     H_    0.127259 0.621005 0.575273 0.209962
H2    H     H_    0.164626 0.277149 0.003142 0.283255
H3    H     H_    0.361830 0.712238 0.125539 0.249737
H4    H     H_    0.399007 0.909604 0.047630 0.225912
H5    H     H_    0.307623 0.790665 0.990803 0.278395
H6    H     H_    0.485370 0.834897 0.956775 0.264291
H7    H     H_    0.638170 0.287762 0.874461 0.249737
H8    H     H_    0.600993 0.090396 0.952370 0.225912
H9    H     H_    0.514629 0.165102 0.043225 0.264291
H10   H     H_    0.692377 0.209334 0.009197 0.278395
H11   H     H_    0.231962 0.006854 0.566277 0.270674
H12   H     H_    0.872741 0.378995 0.424726 0.209962
H13   H     H_    0.159703 0.108802 0.698414 0.241893
H14   H     H_    0.157130 0.217834 0.612953 0.253907
H15   H     H_    0.296596 0.232100 0.674003 0.220865
H16   H     H_    0.768035 0.993152 0.433728 0.270673
H17   H     H_    0.840310 0.891204 0.301595 0.241892
H18   H     H_    0.703420 0.767903 0.326001 0.220869
H19   H     H_    0.842877 0.782174 0.387058 0.253910
H20   H     H_    0.741837 0.662837 0.865804 0.264680
H21   H     H_    0.812380 0.856379 0.935141 0.232082
H22   H     H_    0.835374 0.722851 0.996858 0.283255
H23   H     H_    0.693121 0.807387 0.028999 0.256423
H24   H     H_    0.258163 0.337162 0.134196 0.264680
H25   H     H_    0.187620 0.143620 0.064858 0.232082
H26   H     H_    0.306879 0.192612 0.971001 0.256423
N1    N     N_2   0.842700 0.448880 0.465440 -0.201583
N2    N     N_2   0.157300 0.551120 0.534560 -0.201583
N3    N     N_2   0.683354 0.693026 0.919546 -0.286255
N4    N     N_2   0.316646 0.306974 0.080454 -0.286255
N5    N     N_2   0.432543 0.725646 0.070892 -0.294390
N6    N     N_2   0.567457 0.274353 0.929108 -0.294390
N7    N     N_2   0.291393 0.083761 0.585210 -0.284708
N8    N     N_2   0.708609 0.916242 0.414794 -0.284709
O1    O     O_R   0.431060 0.692470 0.506960 -0.590151
O2    O     O_R   0.568940 0.307530 0.493040 -0.590153
O3    O     O_R   0.651120 0.659650 0.484770 -0.572523
O4    O     O_R   0.348880 0.340350 0.515230 -0.572522
O5    O     O_R   0.389990 0.516420 0.634310 -0.594953
O6    O     O_R   0.610010 0.483580 0.365690 -0.594954
O7    O     O_R   0.610050 0.483600 0.612130 -0.566090
O8    O     O_R   0.389950 0.516400 0.387870 -0.566090
Zn1   Zn    Zn3+2 0.353060 0.521920 0.514810 1.043481
Zn2   Zn    Zn3+2 0.646940 0.478080 0.485190 1.043479

loop_
_geom_bond_atom_site_label_1
_geom_bond_atom_site_label_2
_ccdc_geom_bond_type
C24   N1    D    
O2    Zn2   S    
N2    Zn1   S    
O1    Zn1   S    
C18   N5    S    
C1    O3    A    
C22   Cl4   S    
C8    Cl1   S    
C3    C28   S    
C5    C11   T    
C17   N4    S    
H20   N3    S    
C26   O5    A    
C19   N6    S    
C18   H6    S    
C20   N7    S    
O4    Zn1   S    
H3    N5    S    
H11   N7    S    
C17   H2    S    
C27   O6    A    
C19   H8    S    
C25   N2    D    
C15   C23   D    
C12   O4    A    
C7    Cl2   S    
C4    C7    S    
C19   H9    S    
H24   N4    S    
H12   N1    S    
O8    Zn1   S    
C3    C8    S    
C1    O1    A    
C7    C28   S    
C23   Cl3   S    
C2    C4    S    
C18   H5    S    
C16   H22   S    
C20   H15   S    
C3    C9    S    
C6    C27   S    
C12   C15   S    
N1    Zn2   S    
C15   N7    S    
C26   O7    A    
C24   C25   S    
C9    C11   S    
C20   H14   S    
C17   H25   S    
C16   N3    S    
C21   N8    S    
C4    C10   S    
C27   O8    A    
C21   H17   S    
C19   H10   S    
C10   C28   S    
C7    C9    S    
C12   O2    A    
O5    Zn1   S    
C2    C8    S    
C2    N6    S    
C10   C13   S    
H7    N6    S    
C3    N3    S    
C4    N4    S    
C14   C22   D    
C28   N5    S    
C18   H4    S    
C16   H21   S    
C6    C13   T    
C21   H19   S    
H1    N2    S    
C16   H23   S    
O3    Zn2   S    
O7    Zn2   S    
C24   Cl6   S    
C20   H13   S    
C17   H26   S    
C5    C26   S    
C8    C10   S    
O6    Zn2   S    
C14   N8    S    
C22   C23   S    
C1    C14   S    
C2    C9    S    
H16   N8    S    
C21   H18   S    
C25   Cl5   S    
