data_mof_unit_24116.cif
_audit_creation_date              2012-12-11T17:15:01-0500
_audit_creation_method            fapswitch 2.2
_symmetry_space_group_name_H-M    P1
_symmetry_Int_Tables_number       1
_space_group_crystal_system       triclinic
_cell_length_a                    7.220411
_cell_length_b                    12.161859
_cell_length_c                    21.297271
_cell_angle_alpha                 90.00034
_cell_angle_beta                  90.806697
_cell_angle_gamma                 89.999529
_cell_volume                      1870.00510974

loop_
_atom_site_label
_atom_site_type_symbol
_atom_type_description
_atom_site_fract_x
_atom_site_fract_y
_atom_site_fract_z
_atom_type_partial_charge
O1    O     O_R   0.354460 0.152320 0.595720 -0.533507
O2    O     O_R   0.645540 0.847680 0.404280 -0.533515
O3    O     O_R   0.145540 0.652320 0.404280 -0.533508
O4    O     O_R   0.854460 0.347680 0.595720 -0.533517
O5    O     O_R   0.683670 0.140090 0.727290 -0.536370
O6    O     O_R   0.316330 0.859910 0.272710 -0.536368
O7    O     O_R   0.816330 0.640090 0.272710 -0.536366
O8    O     O_R   0.183670 0.359910 0.727290 -0.536360
O9    O     O_R   0.854010 0.349340 0.727750 -0.536979
O10   O     O_R   0.145990 0.650660 0.272250 -0.536971
O11   O     O_R   0.645990 0.849340 0.272250 -0.536976
O12   O     O_R   0.354010 0.150660 0.727750 -0.536961
C1    C     C_R   0.516752 0.111836 0.746702 0.721916
C2    C     C_R   0.483239 0.888158 0.253297 0.721934
C3    C     C_R   0.983248 0.611840 0.253297 0.721931
C4    C     C_R   0.016761 0.388163 0.746703 0.721923
O13   O     O_R   0.684170 0.139420 0.596190 -0.531689
O14   O     O_R   0.315830 0.860580 0.403810 -0.531677
O15   O     O_R   0.815830 0.639420 0.403810 -0.531684
O16   O     O_R   0.184170 0.360580 0.596190 -0.531672
C5    C     C_R   0.514925 0.113178 0.574424 0.739547
C6    C     C_R   0.485075 0.886822 0.425576 0.739553
C7    C     C_R   0.985075 0.613178 0.425576 0.739546
C8    C     C_R   0.014924 0.386822 0.574424 0.739545
O17   O     O_3   0.520730 0.319480 0.661730 -0.374616
O18   O     O_3   0.479270 0.680520 0.338270 -0.374621
O19   O     O_3   0.979270 0.819480 0.338270 -0.374619
O20   O     O_3   0.020730 0.180520 0.661730 -0.374622
V1    V     V_3+5 0.795560 0.238090 0.661730 1.504342
V2    V     V_3+5 0.204440 0.761910 0.338270 1.504354
V3    V     V_3+5 0.704440 0.738090 0.338270 1.504352
V4    V     V_3+5 0.295560 0.261910 0.661730 1.504371
C9    C     C_R   0.013961 0.467602 0.797979 -0.080588
C10   C     C_R   0.986182 0.532399 0.202024 -0.080599
C11   C     C_R   0.486052 0.967590 0.202020 -0.080574
C12   C     C_R   0.513811 0.032392 0.797977 -0.080600
C13   C     C_R   0.046464 0.652450 0.837829 -0.179227
C14   C     C_R   0.954978 0.347462 0.162199 -0.179227
C15   C     C_R   0.453864 0.152458 0.162178 -0.179225
C16   C     C_R   0.544713 0.847432 0.837792 -0.179236
C17   C     C_R   0.039542 0.580174 0.787122 0.151348
C18   C     C_R   0.961197 0.419785 0.212893 0.151351
C19   C     C_R   0.460652 0.080175 0.212882 0.151344
C20   C     C_R   0.538623 0.919765 0.787102 0.151362
C21   C     C_R   0.995830 0.427980 0.859096 -0.256064
C22   C     C_R   0.004432 0.572021 0.140912 -0.255976
C23   C     C_R   0.504091 0.927954 0.140902 -0.256073
C24   C     C_R   0.495660 0.072015 0.859092 -0.255967
C25   C     C_R   0.006076 0.499321 0.911385 0.086364
C26   C     C_R   0.995150 0.500611 0.088639 0.086392
C27   C     C_R   0.493939 0.999299 0.088615 0.086379
C28   C     C_R   0.504850 0.000594 0.911361 0.086407
C29   C     C_R   0.031204 0.613180 0.899503 0.087000
C30   C     C_R   0.970453 0.386720 0.100528 0.086916
C31   C     C_R   0.469056 0.113179 0.100502 0.086995
C32   C     C_R   0.529308 0.886687 0.899467 0.086897
C33   C     C_R   0.994357 0.461303 0.974770 0.061486
C34   C     C_R   0.007298 0.538597 0.025259 0.061484
C35   C     C_R   0.505557 0.961273 0.025227 0.061497
C36   C     C_R   0.492813 0.038583 0.974743 0.061494
C37   C     C_R   0.031347 0.651199 0.010670 -0.193338
C38   C     C_R   0.970943 0.348656 0.989369 -0.193421
C39   C     C_R   0.469063 0.151207 0.989339 -0.193363
C40   C     C_R   0.528657 0.848603 0.010623 -0.193437
C41   C     C_R   0.042803 0.687269 0.949132 -0.184908
C42   C     C_R   0.959530 0.312583 0.050908 -0.185020
C43   C     C_R   0.457653 0.187280 0.050877 -0.184944
C44   C     C_R   0.540026 0.812532 0.949082 -0.185042
H1    H     H_    0.062029 0.774353 0.940352 0.139891
H2    H     H_    0.940821 0.225461 0.059694 0.139847
H3    H     H_    0.438634 0.274381 0.059659 0.139876
H4    H     H_    0.558487 0.725393 0.940289 0.139835
H5    H     H_    0.021826 0.659531 0.136186 0.106515
H6    H     H_    0.977667 0.340525 0.863810 0.106566
H7    H     H_    0.478399 0.159530 0.863824 0.106504
H8    H     H_    0.522175 0.840491 0.136188 0.106558
H9    H     H_    0.066020 0.739450 0.829018 0.153123
H10   H     H_    0.935825 0.260431 0.171016 0.153145
H11   H     H_    0.434467 0.239473 0.170990 0.153127
H12   H     H_    0.563683 0.760391 0.828969 0.153156
H13   H     H_    0.042673 0.714675 0.045664 0.128617
H14   H     H_    0.960372 0.285126 0.954384 0.128630
H15   H     H_    0.457947 0.214700 0.954350 0.128621
H16   H     H_    0.538973 0.785051 0.045604 0.128633
C45   C     C_1   0.995609 0.533160 0.478089 -0.117880
C46   C     C_1   0.004391 0.466840 0.521911 -0.117881
C47   C     C_1   0.504392 0.033160 0.521911 -0.117881
C48   C     C_1   0.495608 0.966840 0.478089 -0.117881
I1    I     I_    0.932136 0.354789 0.304636 -0.354926
I2    I     I_    0.068396 0.645180 0.695372 -0.354929
I3    I     I_    0.567597 0.854761 0.695357 -0.354934
I4    I     I_    0.431860 0.145189 0.304631 -0.354934

loop_
_geom_bond_atom_site_label_1
_geom_bond_atom_site_label_2
_ccdc_geom_bond_type
C47   C48   T    
C5    C47   S    
O1    C5    A    
C9    C21   A    
O3    C7    A    
C10   C18   A    
O15   V3    S    
C25   C33   A    
C33   C38   A    
C45   C46   T    
C35   C40   A    
C26   C30   A    
C36   C39   A    
C40   C44   A    
O20   V1    S    
O9    C4    A    
C23   H8    S    
C14   C18   A    
C24   C28   A    
O10   C3    A    
O4    C8    A    
O11   C2    A    
C25   C29   A    
C43   H3    S    
O13   V1    S    
C40   H16   S    
C28   C36   A    
C15   C31   A    
O16   C8    A    
C16   C32   A    
O2    C6    A    
C16   H12   S    
C10   C22   A    
C6    C48   S    
C11   C19   A    
C3    C10   S    
O5    C1    A    
O4    V1    S    
O9    V1    S    
C13   C29   A    
C34   C37   A    
O7    C3    A    
C17   I2    S    
C38   H14   S    
C11   C23   A    
C35   C36   A    
O8    C4    A    
O12   V4    S    
O19   V2    S    
C24   H7    S    
O5    V1    S    
C15   C19   A    
C39   C43   A    
O7    V3    S    
C38   C42   A    
O8    V4    S    
C1    C12   S    
C2    C11   S    
C23   C27   A    
C14   H10   S    
C32   C44   A    
C13   H9    S    
O1    V4    S    
O13   C5    A    
C39   H15   S    
O2    V3    S    
C26   C34   A    
O3    V2    S    
O15   C7    A    
C4    C9    S    
O6    C2    A    
O10   V2    S    
C14   C30   A    
C21   C25   A    
C44   H4    S    
C20   I3    S    
O14   V2    S    
O6    V2    S    
C16   C20   A    
C12   C20   A    
C27   C35   A    
C29   C41   A    
O16   V4    S    
O14   C6    A    
C31   C43   A    
C30   C42   A    
C22   C26   A    
C19   I4    S    
C18   I1    S    
C9    C17   A    
C37   H13   S    
C33   C34   A    
C42   H2    S    
O17   V4    S    
C41   H1    S    
C12   C24   A    
C27   C31   A    
C13   C17   A    
O11   V3    S    
C37   C41   A    
O18   V3    S    
O12   C1    A    
C7    C45   S    
C21   H6    S    
C8    C46   S    
C22   H5    S    
C28   C32   A    
C15   H11   S    
