data_mof_unit_11332.cif
_audit_creation_date              2012-12-10T19:10:39-0500
_audit_creation_method            fapswitch 2.2
_symmetry_space_group_name_H-M    P1
_symmetry_Int_Tables_number       1
_space_group_crystal_system       triclinic
_cell_length_a                    12.988129
_cell_length_b                    9.084731
_cell_length_c                    7.792222
_cell_angle_alpha                 90.058025
_cell_angle_beta                  95.954743
_cell_angle_gamma                 89.868832
_cell_volume                      914.468983871

loop_
_atom_site_label
_atom_site_type_symbol
_atom_type_description
_atom_site_fract_x
_atom_site_fract_y
_atom_site_fract_z
_atom_type_partial_charge
C1    C     C_R   0.499796 0.220067 0.499896 0.865997
C2    C     C_R   0.500204 0.779933 0.500104 0.865997
C3    C     C_R   0.300439 0.502496 0.468450 0.853379
C4    C     C_R   0.699561 0.497504 0.531550 0.853379
C5    C     C_R   0.811350 0.484975 0.548440 -0.124652
C6    C     C_R   0.188650 0.515025 0.451560 -0.124652
C7    C     C_R   0.036065 0.662294 0.374515 -0.149316
C8    C     C_R   0.963935 0.337706 0.625485 -0.149316
C9    C     C_R   0.141275 0.639354 0.370498 0.104306
C10   C     C_R   0.858725 0.360646 0.629502 0.104306
C11   C     C_R   0.130145 0.410703 0.532312 0.077758
C12   C     C_R   0.869855 0.589296 0.467688 0.077759
C13   C     C_R   0.023739 0.436196 0.539538 0.054516
C14   C     C_R   0.976261 0.563804 0.460462 0.054516
C15   C     C_1   0.499915 0.065393 0.499891 -0.098329
C16   C     C_1   0.500085 0.934607 0.500109 -0.098329
Cu1   Cu    Cu3+1 0.500010 0.500000 0.669080 1.074611
Cu2   Cu    Cu3+1 0.499990 0.500000 0.330920 1.074611
H1    H     H_    0.002850 0.759475 0.311215 0.201346
H2    H     H_    0.997150 0.240525 0.688785 0.201346
N1    N     N_1   0.499980 0.500000 0.076820 -0.020548
N2    N     N_1   0.500020 0.500000 0.923180 -0.020548
O1    O     O_R   0.500000 0.288400 0.642760 -0.563273
O2    O     O_R   0.500000 0.711600 0.357240 -0.563273
O3    O     O_R   0.500000 0.288400 0.357240 -0.577068
O4    O     O_R   0.500000 0.711600 0.642760 -0.577067
O5    O     O_R   0.349000 0.500000 0.619590 -0.566888
O6    O     O_R   0.651000 0.500000 0.380410 -0.566888
O7    O     O_R   0.348990 0.500000 0.334020 -0.566122
O8    O     O_R   0.651010 0.500000 0.665980 -0.566121
I1    I     I_    0.795676 0.787404 0.365175 -0.293775
I2    I     I_    0.204324 0.212596 0.634825 -0.293774
I3    I     I_    0.775764 0.195367 0.750597 -0.271944
I4    I     I_    0.224236 0.804633 0.249403 -0.271944

loop_
_geom_bond_atom_site_label_1
_geom_bond_atom_site_label_2
_ccdc_geom_bond_type
C8    C13   A    
C1    C15   S    
Cu2   N1    S    
C2    C16   S    
Cu1   N2    S    
C3    C6    S    
C6    C9    A    
C3    O5    A    
Cu1   Cu2   S    
C5    C10   A    
C2    O4    A    
Cu2   O7    S    
C8    H2    S    
C13   C14   A    
C1    O3    A    
Cu1   O8    S    
C11   C13   A    
C3    O7    A    
Cu1   O1    S    
Cu2   O3    S    
Cu2   O2    S    
Cu1   O4    S    
C4    O6    A    
C12   C14   A    
C11   I2    S    
C1    O1    A    
C10   I3    S    
C7    H1    S    
C12   I1    S    
C2    O2    A    
C9    I4    S    
C15   C16   T    
Cu1   O5    S    
Cu2   O6    S    
C5    C12   A    
C8    C10   A    
C6    C11   A    
C7    C9    A    
N1    N2    T    
C7    C14   A    
C4    O8    A    
C4    C5    S    
