data_mof_unit_55874.cif
_audit_creation_date              2012-12-10T18:23:02-0500
_audit_creation_method            fapswitch 2.2
_symmetry_space_group_name_H-M    P1
_symmetry_Int_Tables_number       1
_space_group_crystal_system       triclinic
_cell_length_a                    14.865787
_cell_length_b                    14.236924
_cell_length_c                    10.475202
_cell_angle_alpha                 90.034651
_cell_angle_beta                  88.330939
_cell_angle_gamma                 89.386023
_cell_volume                      2215.93524461

loop_
_atom_site_label
_atom_site_type_symbol
_atom_type_description
_atom_site_fract_x
_atom_site_fract_y
_atom_site_fract_z
_atom_type_partial_charge
C1    C     C_R   0.327330 0.500491 0.499563 0.959755
C2    C     C_R   0.672508 0.499609 0.500817 0.873689
C3    C     C_R   0.952677 0.516476 0.495145 -0.074513
C4    C     C_R   0.046473 0.515997 0.491892 -0.040145
C5    C     C_R   0.907305 0.484317 0.386807 0.074444
C6    C     C_R   0.092286 0.548460 0.599581 0.085970
C7    C     C_R   0.950921 0.587009 0.710579 -0.141945
C8    C     C_R   0.048877 0.463413 0.267672 -0.153003
C9    C     C_R   0.045818 0.587676 0.705691 0.378680
C10   C     C_R   0.953846 0.462319 0.271632 0.417144
C11   C     C_R   0.560614 0.797580 0.423595 0.032327
C12   C     C_R   0.440053 0.202402 0.577376 0.032689
C13   C     C_R   0.438984 0.798913 0.575942 0.040691
C14   C     C_R   0.560801 0.201237 0.423497 0.035278
C15   C     C_R   0.439503 0.899777 0.581701 -0.071088
C16   C     C_R   0.561194 0.100304 0.419077 -0.071258
C17   C     C_R   0.559895 0.898253 0.418090 -0.068369
C18   C     C_R   0.441032 0.101760 0.583102 -0.070758
C19   C     C_R   0.500483 0.949548 0.500841 -0.057823
C20   C     C_R   0.500382 0.050504 0.500201 -0.058446
C21   C     C_R   0.380570 0.952154 0.664987 0.342562
C22   C     C_R   0.620925 0.047859 0.337020 0.342547
C23   C     C_R   0.615402 0.948728 0.330125 0.339463
C24   C     C_R   0.386053 0.051284 0.671723 0.339500
C25   C     C_R   0.499201 0.499843 0.257899 0.983057
C26   C     C_R   0.500893 0.500161 0.742062 0.935608
C27   C     C_3   0.439361 0.564958 0.043884 -0.253020
C28   C     C_3   0.561119 0.435058 0.955931 -0.293838
C29   C     C_3   0.523737 0.587003 0.958704 -0.186875
C30   C     C_3   0.476768 0.413029 0.041137 -0.181293
C31   C     C_3   0.419882 0.479462 0.960383 0.491942
C32   C     C_3   0.580645 0.520569 0.039467 0.473049
C33   C     C_3   0.502128 0.500834 0.876748 -0.102681
C34   C     C_3   0.498349 0.499197 0.123131 -0.106083
C35   C     C_R   0.814535 0.477699 0.393446 -0.173076
C36   C     C_R   0.185376 0.543817 0.598215 -0.193628
C37   C     C_R   0.767793 0.499618 0.505396 -0.175717
C38   C     C_R   0.231841 0.502780 0.496294 -0.123415
C39   C     C_R   0.810482 0.531212 0.614921 0.459333
C40   C     C_R   0.188734 0.467337 0.390823 0.421641
C41   C     C_R   0.904065 0.546210 0.607842 -0.020881
C42   C     C_R   0.094983 0.481398 0.381980 -0.084954
H1    H     H_    0.388731 0.615866 0.083372 0.205762
H2    H     H_    0.611704 0.384151 0.916323 0.194883
H3    H     H_    0.544927 0.656712 0.921929 0.223953
H4    H     H_    0.455421 0.343321 0.077713 0.221138
H5    H     H_    0.777198 0.455642 0.311287 0.234479
H6    H     H_    0.222896 0.569072 0.678395 0.231729
N1    N     N_R   0.500000 0.750030 0.500000 -0.219887
N2    N     N_R   0.500000 0.249970 0.500000 -0.220708
O1    O     O_R   0.367850 0.580280 0.500030 -0.631798
O2    O     O_R   0.632150 0.419720 0.499970 -0.620838
O3    O     O_R   0.632150 0.580280 0.499970 -0.608217
O4    O     O_R   0.367850 0.419720 0.500030 -0.598023
O5    O     O_R   0.499970 0.580260 0.313950 -0.602249
O6    O     O_R   0.500030 0.419740 0.686050 -0.604663
O7    O     O_R   0.500030 0.580260 0.686050 -0.621327
O8    O     O_R   0.499970 0.419740 0.313950 -0.619883
Zn1   Zn    Zn3+2 0.500000 0.607200 0.500000 1.005163
Zn2   Zn    Zn3+2 0.500000 0.392800 0.500000 1.005057
O9    O     O_3   0.335794 0.458610 0.911870 -0.723922
H7    H     H_    0.297926 0.440653 0.987144 0.368027
O10   O     O_3   0.664782 0.541495 0.087850 -0.721061
H8    H     H_    0.704649 0.552114 0.011857 0.370461
O11   O     O_3   0.762972 0.544034 0.729534 -0.757157
H9    H     H_    0.704174 0.512221 0.727964 0.312069
O12   O     O_3   0.239708 0.417548 0.301188 -0.757304
H10   H     H_    0.205132 0.360943 0.279138 0.353808
C43   C     C_2   0.902804 0.631079 0.821754 1.016546
O13   O     O_2   0.853010 0.698740 0.805792 -0.554349
O14   O     O_R   0.915865 0.596043 0.944522 -0.783498
H11   H     H_    0.879681 0.631927 0.012442 0.361925
C44   C     C_2   0.098721 0.455500 0.143111 0.944171
O15   O     O_2   0.144624 0.521003 0.104696 -0.558490
O16   O     O_R   0.094390 0.372899 0.071328 -0.790820
H12   H     H_    0.131229 0.376305 0.988505 0.362098
O17   O     O_3   0.095780 0.625621 0.802565 -0.716950
H13   H     H_    0.059273 0.671584 0.852907 0.361419
O18   O     O_3   0.903431 0.442204 0.165732 -0.733600
H14   H     H_    0.941838 0.435414 0.087933 0.389965
C45   C     C_2   0.630786 0.743067 0.353378 1.113987
O19   O     O_2   0.615379 0.709836 0.248848 -0.558927
O20   O     O_R   0.717182 0.736845 0.402158 -0.762256
H15   H     H_    0.760390 0.699655 0.344431 0.349038
C46   C     C_2   0.370085 0.256880 0.648046 1.110887
O21   O     O_2   0.385664 0.289658 0.752785 -0.562490
O22   O     O_R   0.283674 0.263562 0.599430 -0.773053
H16   H     H_    0.240654 0.300801 0.657376 0.347077
C47   C     C_2   0.371141 0.745229 0.649301 1.100463
O23   O     O_2   0.296264 0.735467 0.606230 -0.598040
O24   O     O_R   0.389238 0.714604 0.772656 -0.773032
H17   H     H_    0.336472 0.680743 0.814493 0.357995
C48   C     C_2   0.625986 0.255333 0.345656 1.105815
O25   O     O_2   0.701058 0.269325 0.385897 -0.592350
O26   O     O_R   0.605273 0.281374 0.221312 -0.779920
H18   H     H_    0.656295 0.315975 0.176255 0.353982
O27   O     O_3   0.318012 0.906374 0.741854 -0.743355
H19   H     H_    0.263588 0.946809 0.752576 0.367993
O28   O     O_3   0.684839 0.093512 0.262314 -0.743447
H20   H     H_    0.739033 0.052650 0.252438 0.369227
O29   O     O_3   0.661637 0.901025 0.233318 -0.748257
H21   H     H_    0.665823 0.941644 0.156591 0.367746
O30   O     O_3   0.340397 0.099000 0.769042 -0.749771
H22   H     H_    0.337157 0.058596 0.846040 0.366222

loop_
_geom_bond_atom_site_label_1
_geom_bond_atom_site_label_2
_ccdc_geom_bond_type
O22   H16   S    
O29   H21   S    
O5    Zn1   S    
C27   C29   S    
C44   O16   S    
C44   O15   D    
C31   O9    S    
O26   H18   S    
C1    O4    A    
C35   H5    S    
C6    C9    A    
O27   H19   S    
O3    Zn1   S    
C39   C41   A    
O4    Zn2   S    
C46   O21   D    
C11   C45   S    
C15   C19   A    
C48   O25   D    
C12   C46   S    
O20   H15   S    
C18   C24   A    
C35   C37   A    
C8    C42   A    
C29   C32   S    
C30   C31   S    
O7    Zn1   S    
C23   O29   S    
O8    Zn2   S    
C29   C33   S    
C43   O14   S    
O2    Zn2   S    
C11   C17   A    
C19   C20   A    
C40   O12   S    
C31   C33   S    
C47   O24   S    
C14   C48   S    
C25   C34   S    
C40   C42   A    
C48   O26   S    
C39   O11   S    
C43   O13   D    
C45   O20   S    
C45   O19   D    
C46   O22   S    
C27   C34   S    
C30   C34   S    
C27   C31   S    
O12   H10   S    
C28   C32   S    
C4    C6    A    
O24   H17   S    
C9    O17   S    
O17   H13   S    
C28   H2    S    
O6    Zn2   S    
C29   H3    S    
C32   C34   S    
O16   H12   S    
C11   N1    A    
C21   O27   S    
C26   C33   S    
O28   H20   S    
C16   C20   A    
C17   C23   A    
C1    O1    A    
C2    O2    A    
C1    C38   S    
C13   N1    A    
C28   C33   S    
C13   C15   A    
C14   C16   A    
O1    Zn1   S    
C25   O8    A    
C3    C4    A    
C7    C9    A    
C3    C41   A    
C16   C22   A    
C22   O28   S    
C13   C47   S    
C30   H4    S    
C25   O5    A    
C32   O10   S    
O10   H8    S    
C3    C5    A    
C2    O3    A    
C26   O6    A    
C7    C43   S    
C12   N2    A    
C10   O18   S    
N1    Zn1   S    
C24   O30   S    
N2    Zn2   S    
C36   C38   A    
C5    C10   A    
C37   C39   A    
C38   C40   A    
C2    C37   S    
C14   N2    A    
C4    C42   A    
C5    C35   A    
C28   C30   S    
C8    C44   S    
C17   C19   A    
C6    C36   A    
C36   H6    S    
C18   C20   A    
C7    C41   A    
O9    H7    S    
C26   O7    A    
O18   H14   S    
C27   H1    S    
C15   C21   A    
O14   H11   S    
C8    C10   A    
O11   H9    S    
C21   C24   A    
C12   C18   A    
O30   H22   S    
C22   C23   A    
C47   O23   D    
