data_mof_unit_9614.cif
_audit_creation_date              2013-03-05T15:53:42-0500
_audit_creation_method            fapswitch 2.2
_symmetry_space_group_name_H-M    P1
_symmetry_Int_Tables_number       1
_space_group_crystal_system       triclinic
_cell_length_a                    15.121034
_cell_length_b                    14.775226
_cell_length_c                    16.93572
_cell_angle_alpha                 108.640206
_cell_angle_beta                  106.408147
_cell_angle_gamma                 108.851277
_cell_volume                      3062.94404059

loop_
_atom_site_label
_atom_site_type_symbol
_atom_site_description
_atom_site_fract_x
_atom_site_fract_y
_atom_site_fract_z
_atom_type_partial_charge
C1    C     C_R   0.090652 0.274963 0.026946 -0.079761
H1    H     H_    0.170747 0.291570 0.052097 0.154137
N1    N     N_R   0.055640 0.348550 0.045600 -0.037630
C2    C     C_R   0.935617 0.450332 0.734806 -0.109938
H2    H     H_    0.857258 0.400917 0.682078 0.096879
N2    N     N_R   0.960830 0.507850 0.823710 -0.040210
C3    C     C_R   0.719881 0.215140 0.824557 -0.139478
H3    H     H_    0.690274 0.163099 0.853261 0.100814
N3    N     N_R   0.811290 0.303400 0.871650 -0.043590
C4    C     C_R   0.298280 0.593767 0.000626 -0.201587
H4    H     H_    0.324515 0.649559 0.973895 0.135467
N4    N     N_R   0.205180 0.552990 0.997660 -0.064312
C5    C     C_R   0.726260 0.311158 0.747549 -0.116945
H5    H     H_    0.703933 0.348568 0.705441 0.121906
N5    N     N_R   0.814810 0.361830 0.823710 -0.042350
C6    C     C_R   0.294405 0.497101 0.077172 0.306957
N6    N     N_R   0.201660 0.494570 0.045600 -0.090478
C7    C     C_R   0.108561 0.534782 0.811850 -0.119137
H6    H     H_    0.190025 0.562978 0.829832 0.098854
N7    N     N_R   0.068420 0.560530 0.871650 -0.041121
C8    C     C_R   0.917931 0.190619 0.950580 -0.127832
H7    H     H_    0.838882 0.130792 0.905053 0.103764
N8    N     N_R   0.948050 0.295860 0.997660 -0.047652
C9    C     C_R   0.006107 0.174836 0.966210 0.032439
C10   C     C_R   0.026949 0.463675 0.725258 0.047025
C11   C     C_R   0.663480 0.218497 0.746424 0.065108
C12   C     C_R   0.355856 0.559292 0.049366 -0.061513
C13   C     C_R   0.219989 0.702395 0.265586 -0.077601
H8    H     H_    0.224620 0.675471 0.318009 0.099104
N9    N     N_R   0.185190 0.638170 0.176290 -0.035898
C14   C     C_R   0.710276 0.512938 0.931474 0.304607
N10   N     N_R   0.798340 0.505430 0.954400 -0.067726
C15   C     C_R   0.891808 0.397949 0.176962 -0.128163
H9    H     H_    0.811682 0.340894 0.149501 0.097453
N11   N     N_R   0.931580 0.439470 0.128350 -0.044902
C16   C     C_R   0.083809 0.805956 0.015103 -0.127747
H10   H     H_    0.163272 0.862674 0.039225 0.121330
N12   N     N_R   0.051950 0.704140 0.002340 -0.048426
C17   C     C_R   0.913396 0.723489 0.941920 -0.104552
H11   H     H_    0.836002 0.705934 0.900704 0.166437
N13   N     N_R   0.944360 0.651450 0.954400 -0.043166
C18   C     C_R   0.063705 0.480367 0.253370 -0.115943
H12   H     H_    0.141435 0.499105 0.296279 0.125532
N14   N     N_R   0.039170 0.492150 0.176290 -0.040944
C19   C     C_R   0.227711 0.799828 0.188703 -0.125748
H13   H     H_    0.241779 0.865570 0.171558 0.100797
N15   N     N_R   0.188710 0.696600 0.128350 -0.045415
C20   C     C_R   0.710695 0.424782 0.016827 -0.182613
H14   H     H_    0.688733 0.379184 0.052860 0.138426
N16   N     N_R   0.794820 0.447010 0.002340 -0.058988
Ni1   Ni    Ni4+2 0.119330 0.493420 0.109950 0.285624
Ni2   Ni    Ni4+2 0.880670 0.506580 0.890050 0.245822
Ni3   Ni    Ni4+2 0.872590 0.372590 0.000000 0.212390
Ni4   Ni    Ni4+2 0.127410 0.627410 0.000000 0.219279
C21   C     C_R   0.244757 0.805572 0.275649 0.032229
C22   C     C_R   0.656874 0.466299 0.973137 -0.001747
C23   C     C_R   0.972921 0.421086 0.255764 0.048469
C24   C     C_R   0.998899 0.822298 0.979848 0.070516
C25   C     C_R   0.425552 0.503987 0.942987 0.126156
C26   C     C_R   0.440501 0.551170 0.034399 0.051255
C27   C     C_R   0.533153 0.582137 0.107127 -0.093858
H15   H     H_    0.547250 0.623886 0.178311 0.156816
C28   C     C_R   0.604285 0.550963 0.086575 -0.194579
H16   H     H_    0.675779 0.571957 0.142268 0.145260
C29   C     C_R   0.580935 0.490044 0.993885 0.040194
C30   C     C_R   0.495620 0.473854 0.922848 0.230169
C31   C     C_3   0.413616 0.371787 0.840182 -0.427915
C32   C     C_3   0.335464 0.405789 0.861981 -0.514083
H17   H     H_    0.415842 0.370585 0.774819 0.221866
H18   H     H_    0.410307 0.299249 0.848588 0.215512
H19   H     H_    0.293030 0.425072 0.809675 0.197291
H20   H     H_    0.286120 0.352852 0.882596 0.203875
C33   C     C_R   0.964734 0.379597 0.322860 0.125487
C34   C     C_R   0.035398 0.418180 0.638502 0.125793
C35   C     C_R   0.139212 0.435589 0.553380 -0.203837
C36   C     C_R   0.132627 0.450161 0.636384 -0.166327
C37   C     C_R   0.945298 0.355694 0.555285 -0.266312
C38   C     C_R   0.951112 0.346845 0.472963 0.181725
C39   C     C_R   0.048847 0.391991 0.473001 0.177809
C40   C     C_R   0.054830 0.404610 0.396515 -0.264205
C41   C     C_R   0.867438 0.324227 0.319325 -0.159514
C42   C     C_R   0.860733 0.306234 0.393554 -0.211271
H21   H     H_    0.130488 0.443806 0.399459 0.126695
H22   H     H_    0.796221 0.300703 0.262410 0.127000
H23   H     H_    0.214820 0.468058 0.553873 0.139663
H24   H     H_    0.785145 0.269796 0.392115 0.135580
H25   H     H_    0.203857 0.493739 0.698889 0.118556
H26   H     H_    0.869740 0.324956 0.554798 0.119540
C43   C     C_R   0.554618 0.145957 0.681187 0.109402
C44   C     C_R   0.286242 0.902115 0.362645 0.128588
C45   C     C_R   0.387384 0.094875 0.450321 -0.206648
C46   C     C_R   0.321914 0.004297 0.366063 -0.160001
C47   C     C_R   0.302984 0.893186 0.445067 -0.260807
C48   C     C_R   0.374055 0.982137 0.528785 0.163969
C49   C     C_R   0.420275 0.082823 0.530585 0.173476
C50   C     C_R   0.507569 0.165770 0.608712 -0.256791
C51   C     C_R   0.501411 0.050010 0.683490 -0.121805
C52   C     C_R   0.409913 0.968994 0.608042 -0.175348
H27   H     H_    0.544461 0.240849 0.607279 0.133814
H28   H     H_    0.533647 0.033758 0.739939 0.129981
H29   H     H_    0.420557 0.172320 0.451215 0.140279
H30   H     H_    0.373812 0.892610 0.608116 0.139084
H31   H     H_    0.306041 0.014405 0.303934 0.126732
H32   H     H_    0.271279 0.815872 0.444327 0.119286
C53   C     C_R   0.102900 0.075002 0.917300 0.134199
C54   C     C_R   0.010456 0.073889 0.919409 0.057530
C55   C     C_R   0.920766 0.973866 0.869825 -0.198277
H33   H     H_    0.848273 0.967187 0.872189 0.136264
C56   C     C_R   0.922122 0.882514 0.810821 -0.169314
H34   H     H_    0.851417 0.807979 0.768958 0.150085
C57   C     C_R   0.012646 0.889507 0.800605 0.003252
C58   C     C_R   0.103893 0.984266 0.859603 0.074877
C59   C     C_3   0.182526 0.048661 0.836875 0.221410
C60   C     C_3   0.181818 0.148191 0.900111 -0.662003
H35   H     H_    0.153082 0.031623 0.762973 0.078302
H36   H     H_    0.255392 0.203749 0.963542 0.250610
H37   H     H_    0.149431 0.187781 0.862441 0.180940
Br1   Br    Br    0.651068 0.538188 0.829643 -0.658227
N17   N     N_R   0.280998 0.045158 0.871825 0.258199
O1    O     O_R   0.327887 0.030128 0.818825 -0.408157
O2    O     O_R   0.322381 0.056439 0.955198 -0.386270
N18   N     N_R   0.330811 0.471074 0.150558 0.216696
O3    O     O_R   0.402772 0.440071 0.158189 -0.409891
O4    O     O_R   0.287002 0.471244 0.206547 -0.436031

loop_
_geom_bond_atom_site_label_1
_geom_bond_atom_site_label_2
_geom_bond_distance
_ccdc_geom_bond_type
C4    C12   1.359467 A    
N9    Ni1   1.812072 S    
C28   C29   1.406162 A    
C47   C48   1.388423 A    
N11   Ni3   1.859834 S    
N1    N8    1.393997 A    
C49   C50   1.387925 A    
N6    Ni1   1.871483 S    
C41   C42   1.389067 A    
C3    H3    1.080455 S    
C17   N13   1.344169 A    
C37   C38   1.388789 A    
C11   C43   1.467824 S    
C3    C11   1.382933 A    
C34   C36   1.406327 A    
C16   H10   1.079832 S    
C10   C34   1.468728 S    
C21   C44   1.468033 S    
C16   C24   1.386606 A    
C12   C26   1.407109 S    
C56   C57   1.402888 A    
C25   C30   1.359789 A    
C54   C55   1.413014 A    
C48   C52   1.398881 A    
C22   C29   1.405195 S    
C50   H27   1.080412 S    
C51   C52   1.390325 A    
C18   C23   1.389400 A    
C3    N3    1.339665 A    
C1    H1    1.076182 S    
C19   N15   1.341802 A    
C23   C33   1.469032 S    
C27   C28   1.385422 A    
C6    N18   1.432265 S    
N10   Ni2   1.871485 S    
C46   H31   1.080732 S    
C59   N17   1.463429 S    
C35   H23   1.083917 S    
C57   C58   1.393136 A    
C37   H26   1.081043 S    
C6    N6    1.335564 A    
C34   C37   1.401914 A    
N4    N6    1.360069 A    
C55   H33   1.081826 S    
C14   C22   1.377653 A    
N13   Ni2   1.811234 S    
C6    C12   1.378978 A    
C20   N16   1.320622 A    
C30   C31   1.494327 S    
C25   C26   1.394398 A    
C8    H7    1.079568 S    
C55   C56   1.409980 A    
C48   C49   1.410537 A    
C7    C10   1.390003 A    
C18   N14   1.336204 A    
C45   H29   1.083926 S    
C40   H21   1.080657 S    
C47   H32   1.080957 S    
C33   C41   1.406578 A    
C58   C59   1.492909 S    
C13   C21   1.386427 A    
N8    Ni3   1.849754 S    
N17   O2    1.302329 A    
N16   Ni3   1.851376 S    
C31   C32   1.515519 S    
C53   C60   1.497249 S    
N12   N13   1.393998 A    
C2    N2    1.335271 A    
C17   H11   1.072689 S    
N1    Ni1   1.811235 S    
C38   C39   1.411083 A    
C7    H6    1.076579 S    
C19   H13   1.074596 S    
C17   C24   1.388211 A    
C28   H16   1.083860 S    
C43   C51   1.405173 A    
C26   C27   1.392773 A    
C1    N1    1.345034 A    
C35   C36   1.389888 A    
C14   Br1   1.915663 S    
C52   H30   1.083926 S    
C25   C32   1.495796 S    
C38   C42   1.397223 A    
C44   C46   1.404968 A    
C14   N10   1.329341 A    
N12   Ni4   1.849754 S    
C32   H20   1.111294 S    
C15   H9    1.079766 S    
N5    Ni2   1.812074 S    
N11   N14   1.393997 A    
C36   H25   1.080386 S    
N10   N16   1.360068 A    
C4    N4    1.319068 A    
N15   Ni4   1.859588 S    
N9    N15   1.360187 A    
N7    Ni4   1.859837 S    
C20   H14   1.081340 S    
C53   C58   1.391498 A    
C8    N8    1.343772 A    
C5    C11   1.381719 A    
C9    C54   1.481309 S    
C18   H12   1.079242 S    
N18   O4    1.300909 A    
C16   N12   1.344202 A    
C2    C10   1.393864 A    
C45   C46   1.390075 A    
C41   H22   1.080327 S    
N14   Ni1   1.870823 S    
C44   C47   1.403428 A    
C59   C60   1.522989 S    
C31   H17   1.111614 S    
C20   C22   1.363330 A    
C13   H8    1.077059 S    
C15   C23   1.383802 A    
C51   H28   1.080900 S    
C2    H2    1.077417 S    
C60   H36   1.111977 S    
N17   O1    1.300589 A    
N2    N7    1.393997 A    
C53   C54   1.403287 A    
C31   H18   1.112807 S    
C43   C50   1.403341 A    
C5    N5    1.332749 A    
N3    N5    1.360188 A    
C42   H24   1.083994 S    
C56   H34   1.081794 S    
C32   H19   1.111725 S    
C13   N9    1.332207 A    
C15   N11   1.334163 A    
C33   C40   1.403013 A    
C7    N7    1.337543 A    
C27   H15   1.083395 S    
C60   H37   1.111836 S    
C4    H4    1.081910 S    
C45   C49   1.398871 A    
C39   C40   1.389439 A    
N3    Ni3   1.859590 S    
C19   C21   1.390477 A    
C1    C9    1.393961 A    
C29   C30   1.381515 A    
C8    C9    1.393977 A    
N2    Ni2   1.870821 S    
N18   O3    1.300397 A    
C5    H5    1.079170 S    
C35   C39   1.398184 A    
N4    Ni4   1.851377 S    
C59   H35   1.113299 S    
