data_mof_unit_26492.cif
_audit_creation_date              2012-12-11T20:22:17-0500
_audit_creation_method            fapswitch 2.2
_symmetry_space_group_name_H-M    P1
_symmetry_Int_Tables_number       1
_space_group_crystal_system       triclinic
_cell_length_a                    8.230974
_cell_length_b                    17.447938
_cell_length_c                    26.911199
_cell_angle_alpha                 99.331312
_cell_angle_beta                  92.729286
_cell_angle_gamma                 81.460088
_cell_volume                      3770.2891835

loop_
_atom_site_label
_atom_site_type_symbol
_atom_type_description
_atom_site_fract_x
_atom_site_fract_y
_atom_site_fract_z
_atom_type_partial_charge
Ba1   Ba    Ba6+2 0.860160 0.462360 0.521850 1.668587
Ba2   Ba    Ba6+2 0.329680 0.537570 0.478140 1.652916
C1    C     C_3   0.727023 0.191982 0.657807 -0.349599
C2    C     C_R   0.907386 0.583152 0.181623 0.570148
C3    C     C_2   0.754107 0.553850 0.274515 -0.067948
C4    C     C_3   0.196493 0.278221 0.651977 0.293734
C5    C     C_3   0.733563 0.576281 0.330598 -0.051819
C6    C     C_1   0.982199 0.484401 0.341607 0.034527
C7    C     C_2   0.024348 0.483547 0.294058 -0.082346
C8    C     C_2   0.902086 0.517527 0.256700 0.186774
C9    C     C_R   0.041218 0.516518 0.104212 -0.079269
C10   C     C_R   0.071994 0.447260 0.125871 -0.039878
C11   C     C_R   0.147401 0.378471 0.096520 -0.074198
C12   C     C_3   0.695415 0.267144 0.634880 0.338312
C13   C     C_R   0.957123 0.584545 0.132318 -0.031200
C14   C     C_2   0.838846 0.520112 0.359652 -0.282549
C15   C     C_2   0.351071 0.486613 0.642760 -0.265945
C16   C     C_3   0.142143 0.271156 0.704069 -0.342704
C17   C     C_R   0.242277 0.451899 0.977844 0.009802
C18   C     C_R   0.093414 0.586335 0.981010 0.027571
C19   C     C_R   0.187782 0.518759 0.954054 0.018330
C20   C     C_R   0.359229 0.391517 0.952030 0.171237
C21   C     C_R   0.389261 0.390276 0.900952 -0.085652
C22   C     C_R   0.323237 0.452498 0.875717 -0.058011
C23   C     C_3   0.494932 0.667223 0.634952 0.307316
C24   C     C_R   0.229691 0.518611 0.902996 -0.079226
C25   C     C_R   0.179236 0.584932 0.879309 -0.014277
C26   C     C_R   0.221902 0.584032 0.828922 0.615157
C27   C     C_R   0.354066 0.451164 0.824149 0.624937
C28   C     C_3   0.223759 0.299351 0.412640 0.294470
C29   C     C_2   0.479284 0.498370 0.728816 -0.073659
C30   C     C_3   0.507639 0.497103 0.673395 -0.059096
C31   C     C_1   0.209214 0.522544 0.661304 -0.010292
C32   C     C_2   0.181250 0.527846 0.710710 -0.101866
C33   C     C_2   0.325172 0.512997 0.747070 0.174904
C34   C     C_3   0.464494 0.702501 0.689828 -0.365633
C35   C     C_R   0.180949 0.449078 0.026515 0.019896
C36   C     C_R   0.092376 0.517590 0.054156 0.043279
C37   C     C_R   0.052656 0.586988 0.032090 0.019621
C38   C     C_R   0.197356 0.378998 0.047711 -0.092960
C39   C     C_R   0.924784 0.653420 0.110806 -0.054259
C40   C     C_3   0.283304 0.212733 0.395169 -0.369628
C41   C     C_R   0.042373 0.651271 0.955636 -0.096642
C42   C     C_R   0.085893 0.650756 0.906266 -0.054265
C43   C     C_R   0.971496 0.654812 0.062033 -0.100149
C44   C     C_2   0.448315 0.279599 0.515759 -0.262521
C45   C     C_3   0.040712 0.706645 0.345951 0.279200
C46   C     C_3   0.370224 0.225524 0.542843 -0.037703
C47   C     C_2   0.406267 0.141532 0.519274 -0.107129
C48   C     C_2   0.551437 0.115969 0.496856 -0.002303
C49   C     C_2   0.645740 0.175808 0.482190 -0.117583
C50   C     C_1   0.578957 0.251197 0.487885 0.074663
C51   C     C_R   0.791609 0.863844 0.473809 -0.154181
C52   C     C_3   0.974231 0.700820 0.585894 0.314287
C53   C     C_R   0.847339 0.782985 0.465304 0.021899
C54   C     C_R   0.615759 0.759082 0.509339 0.036492
C55   C     C_R   0.558331 0.839032 0.517513 -0.096852
C56   C     C_3   0.061909 0.728410 0.294155 -0.181765
C57   C     C_R   0.645416 0.892759 0.500255 0.006018
C58   C     C_2   0.609225 0.030310 0.484340 -0.102564
C59   C     C_2   0.595244 0.978512 0.516251 0.198305
C60   C     C_R   0.755551 0.730841 0.481333 -0.295491
C61   C     C_3   0.941638 0.789471 0.601170 -0.369825
C62   C     C_3   0.750553 0.322484 0.360702 0.329142
C63   C     C_3   0.650371 0.362583 0.320615 -0.375295
C64   C     C_2   0.867920 0.254557 0.334989 0.858784
C65   C     C_2   0.938024 0.796751 0.284233 0.923163
C66   C     C_3   0.588667 0.370269 0.009881 -0.229869
C67   C     C_3   0.498409 0.748988 0.372082 0.346069
C68   C     C_2   0.012873 0.547876 0.730937 0.961447
C69   C     C_3   0.391249 0.999878 0.584181 -0.244713
C70   C     C_3   0.439162 0.829674 0.357974 -0.314665
C71   C     C_R   0.022983 0.447741 0.175895 0.602108
H1    H     H_    0.804332 0.270543 0.613184 0.112072
H2    H     H_    0.819166 0.365818 0.383982 -0.058540
H3    H     H_    0.830523 0.194512 0.685737 0.135153
H4    H     H_    0.590423 0.318525 0.293785 0.127996
H5    H     H_    0.730371 0.391055 0.298874 0.094427
H6    H     H_    0.552838 0.408625 0.339292 0.157385
H7    H     H_    0.587503 0.264766 0.609169 -0.040630
H8    H     H_    0.760724 0.141288 0.627831 0.067599
H9    H     H_    0.378964 0.647345 0.618391 0.016981
H10   H     H_    0.594550 0.616436 0.633082 0.041317
H11   H     H_    0.366156 0.753921 0.692083 0.138021
H12   H     H_    0.387715 0.206056 0.369353 0.149832
H13   H     H_    0.424705 0.658709 0.710444 0.078142
H14   H     H_    0.578705 0.721751 0.708060 0.136977
H15   H     H_    0.615213 0.183655 0.676651 0.116897
H16   H     H_    0.220745 0.301302 0.733274 0.133686
H17   H     H_    0.118641 0.649488 0.348164 0.081083
H18   H     H_    0.910342 0.700207 0.350373 -0.036905
H19   H     H_    0.049831 0.677040 0.265022 0.058393
H20   H     H_    0.187149 0.743039 0.291173 0.121982
H21   H     H_    0.634486 0.738298 0.369719 -0.022695
H22   H     H_    0.462344 0.749716 0.411425 0.058453
H23   H     H_    0.323510 0.182775 0.427797 0.063308
H24   H     H_    0.509303 0.873592 0.380373 0.062766
H25   H     H_    0.306760 0.847482 0.365859 0.158581
H26   H     H_    0.183265 0.341756 0.649305 0.041751
H27   H     H_    0.457366 0.828934 0.317323 0.149588
H28   H     H_    0.147875 0.458891 0.282158 0.129513
H29   H     H_    0.166307 0.323220 0.110973 0.128745
H30   H     H_    0.584696 0.491088 0.754348 0.124339
H31   H     H_    0.473334 0.342032 0.881711 0.119647
H32   H     H_    0.242781 0.322626 0.026481 0.116808
H33   H     H_    0.658292 0.576582 0.249497 0.128826
H34   H     H_    0.182677 0.183738 0.375061 0.163355
H35   H     H_    0.862544 0.707273 0.131768 0.132627
H36   H     H_    0.965581 0.703544 0.972506 0.071157
H37   H     H_    0.327655 0.252090 0.648213 -0.007638
H38   H     H_    0.043173 0.702232 0.888886 0.124164
H39   H     H_    0.943913 0.710898 0.049294 0.074484
H40   H     H_    0.802767 0.516229 0.397386 0.083646
H41   H     H_    0.354559 0.447211 0.607020 0.057757
H42   H     H_    0.764138 0.156680 0.464597 0.118355
H43   H     H_    0.867329 0.903841 0.463027 0.082103
H44   H     H_    0.660754 0.009198 0.447302 0.071999
H45   H     H_    0.859234 0.678591 0.572162 0.002077
H46   H     H_    0.321503 0.101542 0.524084 0.093844
H47   H     H_    0.012866 0.298970 0.709548 0.157613
H48   H     H_    0.449505 0.858211 0.539290 0.087768
H49   H     H_    0.418052 0.342297 0.527923 0.072774
H50   H     H_    0.801182 0.668722 0.476352 0.065680
H51   H     H_    0.152987 0.208524 0.708489 0.107477
H52   H     H_    0.328369 0.328446 0.429244 0.022152
H53   H     H_    0.129263 0.304910 0.441466 0.070041
H54   H     H_    0.039697 0.215958 0.282017 0.326989
H55   H     H_    0.700607 0.839345 0.273270 0.310282
H56   H     H_    0.064321 0.686722 0.555344 0.073427
H57   H     H_    0.507834 0.285135 0.955450 0.197271
H58   H     H_    0.658629 0.324569 0.030140 0.120336
H59   H     H_    0.533385 0.419548 0.038407 0.124783
H60   H     H_    0.675270 0.392001 0.986658 0.110502
H61   H     H_    0.797351 0.620296 0.735052 0.286534
H62   H     H_    0.599714 0.055914 0.584546 0.197727
H63   H     H_    0.331710 0.058160 0.603162 0.107524
H64   H     H_    0.401339 0.958152 0.611773 0.126864
H65   H     H_    0.310290 0.980188 0.551593 0.107571
H66   H     H_    0.843802 0.805282 0.629570 0.144061
H67   H     H_    0.902110 0.818408 0.568124 0.064874
H68   H     H_    0.055535 0.811500 0.617505 0.119917
N1    N     N_R   0.944066 0.515814 0.203937 -0.425689
N2    N     N_R   0.300552 0.516157 0.800916 -0.417963
N3    N     N_2   0.462137 0.336812 0.977932 -0.440137
N4    N     N_2   0.555095 0.005406 0.568238 -0.424723
O1    O     O_2   0.906370 0.542040 0.619810 -0.451663
O2    O     O_2   0.183263 0.780843 0.477709 -0.486296
O3    O     O_3   0.090839 0.765089 0.383116 -0.602470
O4    O     O_3   0.138370 0.541980 0.559630 -0.497643
O5    O     O_3   0.572820 0.404940 0.471170 -0.478167
O6    O     O_2   0.345130 0.693150 0.532000 -0.464448
O7    O     O_3   0.543746 0.724491 0.610247 -0.638264
O8    O     O_2   0.403366 0.541707 0.324121 -0.502964
O9    O     O_3   0.426103 0.691683 0.339118 -0.589348
O10   O     O_2   0.048616 0.387134 0.194067 -0.570804
O11   O     O_2   0.427337 0.391874 0.799879 -0.589231
O12   O     O_3   0.639727 0.293676 0.388432 -0.642257
O13   O     O_2   0.831754 0.642672 0.204747 -0.587524
O14   O     O_2   0.188485 0.643707 0.809890 -0.592459
O15   O     O_3   0.686580 0.398330 0.583860 -0.498773
O16   O     O_2   0.848451 0.436209 0.668610 -0.467512
O17   O     O_3   0.034534 0.667891 0.628228 -0.596639
O18   O     O_3   0.663047 0.331664 0.673269 -0.589831
O19   O     O_2   0.844570 0.306830 0.467970 -0.477500
O20   O     O_3   0.101900 0.357890 0.557750 -0.482067
O21   O     O_2   0.033387 0.216286 0.517473 -0.485665
O22   O     O_2   0.876572 0.189507 0.347406 -0.604671
O23   O     O_3   0.099380 0.238131 0.615038 -0.605832
O24   O     O_R   0.964536 0.265632 0.296052 -0.738500
O25   O     O_2   0.983773 0.858379 0.278934 -0.595144
O26   O     O_R   0.771109 0.789515 0.280666 -0.736024
O27   O     O_2   0.968402 0.509058 0.760414 -0.621917
O28   O     O_R   0.907860 0.612912 0.718431 -0.724254
O29   O     O_2   0.283330 0.457940 0.380160 -0.458046
O30   O     O_3   0.051340 0.457960 0.440360 -0.499253
O31   O     O_3   0.503130 0.601610 0.416130 -0.473866
O32   O     O_3   0.157361 0.332461 0.370934 -0.605209
O33   O     O_3   0.616890 0.595000 0.528820 -0.481192
O34   O     O_3   0.087820 0.642040 0.442240 -0.494666
P1    P     P_3+3 0.071770 0.565500 0.613330 1.031982
P2    P     P_3+3 0.664870 0.318630 0.453960 1.003527
P3    P     P_3+3 0.149717 0.257597 0.556368 0.934584
P4    P     P_3+3 0.117940 0.434440 0.386660 1.011658
P5    P     P_3+3 0.053230 0.743487 0.442255 0.951013
P6    P     P_3+3 0.676442 0.418137 0.649435 0.988988
P7    P     P_3+3 0.532449 0.693973 0.545161 0.952915
P8    P     P_3+3 0.516386 0.599399 0.351497 0.954783

loop_
_geom_bond_atom_site_label_1
_geom_bond_atom_site_label_2
_ccdc_geom_bond_type
O2    P5    D    
Ba2   O5    S    
O6    P7    D    
C19   C24   A    
C28   H53   S    
C63   H6    S    
H61   O28   S    
C67   C70   S    
C61   H67   S    
C64   O24   S    
O21   P3    D    
C14   H40   S    
C70   H27   S    
C51   C57   A    
C43   H39   S    
C69   H64   S    
C70   H25   S    
C24   C25   A    
C15   C31   D    
C30   P6    S    
C23   O7    S    
C40   H23   S    
O20   P3    S    
C12   H1    S    
C5    P8    S    
C66   H60   S    
C17   C19   A    
C56   H20   S    
C22   C24   A    
C32   C33   S    
C35   C38   A    
C2    N1    Am   
C36   C37   A    
Ba1   P1    S    
C55   C57   A    
C52   C61   S    
C27   N2    Am   
C53   C60   A    
C44   C50   D    
C54   C55   A    
Ba1   Ba2   S    
C8    N1    S    
C39   H35   S    
C12   O18   S    
C66   H59   S    
C68   O27   D    
C22   C27   A    
C11   C38   A    
O16   P6    D    
O19   P2    D    
C17   C35   A    
Ba2   O31   S    
C9    C13   A    
C25   C42   A    
C28   O32   S    
C2    O13   D    
C29   C30   S    
Ba1   O19   S    
C6    C7    D    
H62   N4    S    
C62   O12   S    
C1    H8    S    
C21   C22   A    
Ba1   O4    S    
C12   H7    S    
C69   H65   S    
H57   N3    S    
C7    C8    S    
C32   C68   S    
O17   P1    S    
C51   H43   S    
O3    P5    S    
C37   C43   A    
Ba2   O4    S    
C28   H52   S    
C3    H33   S    
C6    C14   D    
C10   C71   A    
C31   P1    S    
C4    H37   S    
Ba1   O1    S    
O12   P2    S    
O15   P6    S    
C60   H50   S    
C15   H41   S    
C48   C49   S    
O5    P2    S    
C4    O23   S    
C70   H24   S    
C51   C53   A    
C65   O25   D    
C4    C16   S    
C44   C46   S    
C57   C59   S    
C63   H4    S    
C49   C50   D    
C58   H44   S    
C17   C20   A    
C50   P2    S    
C13   C39   A    
O7    P7    S    
C67   H21   S    
C69   H63   S    
C3    C5    S    
C18   C37   A    
Ba1   P2    S    
O8    P8    D    
C34   H13   S    
O32   P4    S    
C71   N1    Am   
O4    P1    S    
C49   H42   S    
C58   C59   D    
C29   H30   S    
C9    C36   A    
C41   C42   A    
C35   C36   A    
Ba2   O30   S    
Ba1   O33   S    
C56   C65   S    
C21   H31   S    
Ba1   O20   S    
C53   P5    S    
C71   O10   D    
C31   C32   D    
C61   H68   S    
O1    P1    D    
Ba1   O5    S    
C40   H12   S    
C52   O17   S    
C1    H3    S    
C62   C64   S    
C1    C12   S    
C27   O11   D    
C64   O22   D    
C6    P4    S    
C7    H28   S    
C46   C47   S    
C69   N4    S    
C54   P7    S    
O23   P3    S    
C52   H45   S    
C23   H9    S    
C45   H17   S    
C54   C60   A    
Ba2   O34   S    
C16   H47   S    
C18   C41   A    
O31   P8    S    
O30   P4    S    
O34   P5    S    
C40   H34   S    
Ba2   O6    S    
C52   H56   S    
C45   O3    S    
Ba1   O30   S    
C63   H5    S    
C1    H15   S    
C16   H16   S    
C45   H18   S    
Ba1   O15   S    
C5    C14   S    
C34   H11   S    
C67   H22   S    
O29   P4    D    
C9    C10   A    
C66   H58   S    
C61   H66   S    
H54   O24   S    
Ba2   O33   S    
O9    P8    S    
C67   O9    S    
O18   P6    S    
C65   O26   S    
C4    H26   S    
C2    C13   A    
C48   C58   S    
C3    C8    D    
C62   C63   S    
C45   C56   S    
C46   P3    S    
C47   H46   S    
C26   N2    Am   
C59   N4    S    
C62   H2    S    
C66   N3    S    
C29   C33   D    
Ba2   P4    S    
C26   O14   D    
C68   O28   S    
C44   H49   S    
C23   C34   S    
C55   H48   S    
O33   P7    S    
C42   H38   S    
C34   H14   S    
C10   C11   A    
H55   O26   S    
C18   C19   A    
C47   C48   D    
C20   N3    S    
C25   C26   A    
C23   H10   S    
C15   C30   S    
C39   C43   A    
C20   C21   A    
C28   C40   S    
C41   H36   S    
C16   H51   S    
C11   H29   S    
C56   H19   S    
Ba2   O29   S    
C33   N2    S    
C38   H32   S    
