data_mof_unit_9038.cif
_audit_creation_date              2012-12-10T19:47:27-0500
_audit_creation_method            fapswitch 2.2
_symmetry_space_group_name_H-M    P1
_symmetry_Int_Tables_number       1
_space_group_crystal_system       triclinic
_cell_length_a                    10.956078
_cell_length_b                    10.877231
_cell_length_c                    12.844787
_cell_angle_alpha                 90.50213
_cell_angle_beta                  91.530703
_cell_angle_gamma                 90.169045
_cell_volume                      1530.12351101

loop_
_atom_site_label
_atom_site_type_symbol
_atom_type_description
_atom_site_fract_x
_atom_site_fract_y
_atom_site_fract_z
_atom_type_partial_charge
C1    C     C_R   0.262340 0.495662 0.501939 0.817843
C2    C     C_R   0.738017 0.498012 0.498461 0.781479
C3    C     C_R   0.509238 0.871657 0.493618 -0.126527
C4    C     C_R   0.491041 0.127994 0.505822 -0.118958
C5    C     C_R   0.452025 0.936561 0.411397 -0.088072
C6    C     C_R   0.543726 0.062536 0.589743 -0.086366
C7    C     C_R   0.225829 0.509127 0.855017 -0.220180
C8    C     C_R   0.785820 0.506066 0.150277 -0.304857
C9    C     C_R   0.174320 0.470440 0.760063 0.453088
C10   C     C_R   0.844107 0.527770 0.247062 0.461582
C11   C     C_R   0.123429 0.559401 0.692155 -0.035104
C12   C     C_R   0.877178 0.427136 0.309319 -0.010242
C13   C     C_R   0.130996 0.685431 0.717464 0.146741
C14   C     C_R   0.849394 0.306126 0.277526 0.129026
C15   C     C_R   0.189901 0.722868 0.810582 0.166763
C16   C     C_R   0.789477 0.285566 0.181033 0.179051
C17   C     C_R   0.235372 0.633870 0.879662 -0.284592
C18   C     C_R   0.758931 0.385973 0.117822 -0.214946
C19   C     C_R   0.936955 0.526938 0.587935 -0.270919
C20   C     C_R   0.064356 0.447850 0.415505 -0.203396
C21   C     C_R   0.872216 0.492708 0.497264 -0.068798
C22   C     C_R   0.128848 0.486972 0.505181 -0.060081
C23   C     C_R   0.495563 0.262245 0.502621 0.844596
C24   C     C_R   0.504501 0.737641 0.497353 0.839594
C25   C     C_R   0.937398 0.451872 0.410428 0.118563
C26   C     C_R   0.063638 0.521869 0.593487 0.072868
C27   C     C_2   0.474267 0.461222 0.033176 -0.296954
C28   C     C_2   0.523893 0.543215 0.966980 -0.279596
C29   C     C_1   0.521151 0.528241 0.851909 0.216467
C30   C     C_1   0.477859 0.474214 0.148118 0.203112
C31   C     C_R   0.675151 0.219896 0.833522 0.491201
C32   C     C_R   0.233462 0.816882 0.202805 0.549664
C33   C     C_R   0.663937 0.177662 0.729450 -0.229757
C34   C     C_R   0.284928 0.841067 0.301979 -0.186754
C35   C     C_R   0.556915 0.116923 0.695134 0.106071
C36   C     C_R   0.407729 0.876902 0.313821 0.090867
C37   C     C_R   0.462804 0.096396 0.764709 -0.118855
C38   C     C_R   0.481606 0.881855 0.226571 -0.163971
C39   C     C_R   0.474982 0.135039 0.867912 -0.230526
C40   C     C_R   0.431428 0.860037 0.127709 -0.233077
C41   C     C_R   0.581235 0.194891 0.902286 -0.186607
C42   C     C_R   0.307537 0.833229 0.115512 -0.243365
C43   C     C_R   0.560883 0.935801 0.579996 0.107410
C44   C     C_R   0.440592 0.064355 0.418828 0.108651
Cu1   Cu    Cu3+1 0.492140 0.492110 0.395880 0.977460
Cu2   Cu    Cu3+1 0.507860 0.507890 0.604120 0.998713
H1    H     H_    0.589547 0.222367 0.982820 0.126971
H2    H     H_    0.270391 0.831614 0.037885 0.119449
H3    H     H_    0.888795 0.560554 0.654811 0.165128
H4    H     H_    0.112892 0.416967 0.347744 0.151570
H5    H     H_    0.567279 0.625460 0.999166 0.151567
H6    H     H_    0.431610 0.378670 0.001280 0.162171
H7    H     H_    0.738001 0.190013 0.676333 0.113603
H8    H     H_    0.227314 0.839333 0.369241 0.141511
H9    H     H_    0.382000 0.045964 0.739326 0.143710
H10   H     H_    0.575169 0.913136 0.233950 0.134327
H11   H     H_    0.402890 0.116835 0.921756 0.147598
H12   H     H_    0.486918 0.871299 0.059917 0.149600
H13   H     H_    0.283722 0.660206 0.950350 0.174741
H14   H     H_    0.714030 0.371586 0.043321 0.213460
H15   H     H_    0.264376 0.441794 0.907356 0.163465
H16   H     H_    0.762061 0.581975 0.100028 0.128161
N1    N     N_1   0.480320 0.480250 0.239400 -0.165327
N2    N     N_1   0.519680 0.519750 0.760600 -0.168854
O1    O     O_R   0.313000 0.493330 0.412070 -0.584401
O2    O     O_R   0.687000 0.506670 0.587930 -0.606409
O3    O     O_R   0.326280 0.506660 0.587930 -0.549544
O4    O     O_R   0.673720 0.493340 0.412070 -0.591719
O5    O     O_R   0.493370 0.312980 0.412070 -0.551762
O6    O     O_R   0.506630 0.687020 0.587930 -0.547516
O7    O     O_R   0.506650 0.326310 0.587930 -0.572328
O8    O     O_R   0.493350 0.673690 0.412070 -0.593684
N3    N     N_3   0.082695 0.774858 0.646074 -0.583166
H17   H     H_    0.153985 0.832638 0.624484 0.234836
H18   H     H_    0.018423 0.827939 0.684838 0.225395
N4    N     N_3   0.880551 0.205390 0.344348 -0.602107
H19   H     H_    0.800255 0.158202 0.361217 0.232607
H20   H     H_    0.937010 0.145473 0.303733 0.239916
N5    N     N_3   0.205707 0.851283 0.832383 -0.630220
H21   H     H_    0.297596 0.867772 0.851916 0.214674
H22   H     H_    0.152532 0.874783 0.895705 0.206992
N6    N     N_3   0.759390 0.162788 0.148351 -0.614909
H23   H     H_    0.664336 0.155316 0.142813 0.207567
H24   H     H_    0.794507 0.147992 0.074415 0.247021
O9    O     O_3   0.779847 0.277327 0.872643 -0.618741
C45   C     C_3   0.807890 0.381649 0.812922 0.056040
H25   H     H_    0.726001 0.429080 0.781659 0.178645
H26   H     H_    0.861746 0.353814 0.745532 0.129624
C46   C     C_3   0.879972 0.473808 0.880285 -0.844124
H27   H     H_    0.951240 0.426633 0.928008 0.258230
H28   H     H_    0.924181 0.543384 0.831372 0.199893
H29   H     H_    0.817264 0.523002 0.932197 0.237605
O10   O     O_3   0.108551 0.792154 0.195866 -0.587009
C47   C     C_3   0.074597 0.711249 0.112797 0.119397
H30   H     H_    0.095299 0.748255 0.035504 0.105820
H31   H     H_    0.973796 0.703743 0.110548 0.189056
C48   C     C_3   0.126275 0.582005 0.128188 -0.808079
H32   H     H_    0.103768 0.548452 0.206414 0.267293
H33   H     H_    0.085835 0.518447 0.068600 0.206852
H34   H     H_    0.226874 0.581908 0.120905 0.231381
N7    N     N_3   0.632449 0.871502 0.657696 -0.565982
H35   H     H_    0.718222 0.913565 0.665182 0.211398
H36   H     H_    0.589302 0.877103 0.729167 0.229227
N8    N     N_3   0.371336 0.130161 0.340427 -0.560648
H37   H     H_    0.412403 0.119364 0.268428 0.231491
H38   H     H_    0.282413 0.095101 0.335723 0.216846
O11   O     O_3   0.199157 0.351969 0.726120 -0.564971
C49   C     C_3   0.096006 0.276244 0.736780 0.026143
H39   H     H_    0.030293 0.292606 0.671211 0.157312
H40   H     H_    0.052722 0.290347 0.813309 0.166402
C50   C     C_3   0.134071 0.142270 0.730920 -0.762137
H41   H     H_    0.193073 0.119863 0.799652 0.244319
H42   H     H_    0.051892 0.082250 0.731296 0.207093
H43   H     H_    0.184191 0.124430 0.658288 0.248840
O12   O     O_3   0.879655 0.644654 0.280361 -0.571613
C51   C     C_3   0.781903 0.728918 0.275794 0.068154
H44   H     H_    0.691983 0.685325 0.290707 0.172500
H45   H     H_    0.777712 0.773091 0.198099 0.132484
C52   C     C_3   0.805491 0.827789 0.358683 -0.735358
H46   H     H_    0.893809 0.874602 0.345039 0.267351
H47   H     H_    0.731814 0.897361 0.356638 0.184729
H48   H     H_    0.809049 0.785451 0.437110 0.242130

loop_
_geom_bond_atom_site_label_1
_geom_bond_atom_site_label_2
_ccdc_geom_bond_type
O10   C47   S    
C31   O9    S    
N3    H17   S    
C23   O5    A    
C50   H41   S    
N8    H38   S    
C48   H32   S    
C44   N8    S    
C24   O6    A    
C39   C41   A    
Cu1   Cu2   S    
C6    C35   S    
C3    C43   A    
N7    H35   S    
C28   C29   S    
C35   C37   A    
N4    H20   S    
Cu2   O2    S    
C2    O4    A    
C28   H5    S    
C45   H26   S    
C20   C25   A    
O12   C51   S    
C39   H11   S    
C5    C36   S    
C49   H39   S    
C7    C9    A    
C19   C26   A    
C7    H15   S    
C20   H4    S    
C1    O3    A    
C15   N5    S    
C49   H40   S    
C7    C17   A    
C1    O1    A    
O11   C49   S    
C31   C33   A    
C46   H28   S    
C40   C42   A    
C32   O10   S    
C29   N2    T    
C1    C22   S    
N7    H36   S    
C30   N1    T    
C27   C30   S    
N3    H18   S    
C3    C24   S    
Cu1   O4    S    
N8    H37   S    
C48   H33   S    
C52   H47   S    
C33   H7    S    
C40   H12   S    
Cu1   O5    S    
C23   O7    A    
N4    H19   S    
C4    C6    A    
N5    H22   S    
C4    C23   S    
C45   H25   S    
C4    C44   A    
C11   C26   S    
C3    C5    A    
O9    C45   S    
Cu1   N1    S    
C8    C18   A    
Cu2   N2    S    
C14   N4    S    
C43   N7    S    
C19   H3    S    
C2    C21   S    
C16   N6    S    
C41   H1    S    
C50   H42   S    
C16   C18   A    
C42   H2    S    
C46   H29   S    
C47   H31   S    
C9    C11   A    
Cu2   O7    S    
C10   C12   A    
C17   H13   S    
C18   H14   S    
C5    C44   A    
C13   N3    S    
C34   H8    S    
N6    H24   S    
C6    C43   A    
C13   C15   A    
Cu1   O1    S    
C14   C16   A    
C48   H34   S    
C27   H6    S    
C24   O8    A    
C52   H48   S    
C15   C17   A    
C21   C25   A    
C31   C41   A    
C19   C21   A    
C20   C22   A    
C2    O2    A    
C45   C46   S    
C52   H46   S    
C49   C50   S    
C9    O11   S    
C47   C48   S    
C51   C52   S    
C12   C25   S    
C36   C38   A    
C12   C14   A    
Cu2   O3    S    
C37   C39   A    
C38   C40   A    
C11   C13   A    
C33   C35   A    
C51   H45   S    
C51   H44   S    
C50   H43   S    
C34   C36   A    
C47   H30   S    
Cu2   O6    S    
N5    H21   S    
C37   H9    S    
C38   H10   S    
C8    C10   A    
N6    H23   S    
C22   C26   A    
C8    H16   S    
C27   C28   D    
C32   C42   A    
C46   H27   S    
C10   O12   S    
C32   C34   A    
Cu1   O8    S    
