data_mof_unit_9422.cif
_audit_creation_date              2012-12-11T14:08:17-0500
_audit_creation_method            fapswitch 2.2
_symmetry_space_group_name_H-M    P1
_symmetry_Int_Tables_number       1
_space_group_crystal_system       triclinic
_cell_length_a                    11.02314
_cell_length_b                    10.97158
_cell_length_c                    18.674012
_cell_angle_alpha                 90.504917
_cell_angle_beta                  89.977655
_cell_angle_gamma                 59.858095
_cell_volume                      1952.97362583

loop_
_atom_site_label
_atom_site_type_symbol
_atom_type_description
_atom_site_fract_x
_atom_site_fract_y
_atom_site_fract_z
_atom_type_partial_charge
C1    C     C_R   0.230588 0.648657 0.606809 0.566331
C2    C     C_3   0.734452 0.548690 0.799461 -0.220774
C3    C     C_3   0.727148 0.692278 0.807286 -0.017524
C4    C     C_3   0.675255 0.657111 0.674651 0.088246
C5    C     C_3   0.809428 0.669489 0.678233 -0.337015
C6    C     C_3   0.699884 0.529003 0.721952 0.173320
C7    C     C_2   0.690674 0.129013 0.661236 -0.105906
C8    C     C_2   0.724822 0.066627 0.814202 -0.141448
C9    C     C_2   0.826752 0.065795 0.774603 -0.194539
C10   C     C_2   0.796898 0.121671 0.700476 -0.150728
C11   C     C_2   0.158374 0.674514 0.675668 -0.117059
C12   C     C_R   0.653907 0.623928 0.600907 0.587845
C13   C     C_2   0.171640 0.675338 0.833247 -0.134475
C14   C     C_2   0.168108 0.573234 0.794781 -0.199752
C15   C     C_2   0.178760 0.564701 0.715985 -0.194840
C16   C     C_2   0.649132 0.646479 0.317141 -0.092570
C17   C     C_2   0.633818 0.665312 0.159281 -0.111441
C18   C     C_2   0.707387 0.545513 0.195125 -0.166327
C19   C     C_2   0.687963 0.536901 0.271625 -0.151217
C20   C     C_2   0.637542 0.188691 0.320177 -0.100506
C21   C     C_2   0.636204 0.197678 0.165370 -0.112797
C22   C     C_2   0.528047 0.212502 0.203617 -0.175100
C23   C     C_R   0.630409 0.223947 0.600252 0.582232
C24   C     C_2   0.521968 0.236036 0.279455 -0.156576
C25   C     C_2   0.114219 0.685704 0.348892 -0.112888
C26   C     C_2   0.127490 0.683854 0.188167 0.017054
C27   C     C_2   0.043970 0.790052 0.233862 -0.127329
C28   C     C_2   0.080866 0.795204 0.307538 -0.171004
C29   C     C_R   0.730901 0.037310 0.890686 0.544228
C30   C     C_R   0.755832 0.710844 0.882911 0.539190
C31   C     C_R   0.114388 0.708726 0.905764 0.533510
C32   C     C_R   0.672892 0.113777 0.101275 0.558246
C33   C     C_R   0.692423 0.688531 0.094606 0.564062
C34   C     C_R   0.213472 0.652730 0.405927 0.547754
C35   C     C_R   0.090740 0.710966 0.113948 0.565343
C36   C     C_R   0.641087 0.621208 0.392609 0.543256
C37   C     C_R   0.615203 0.231796 0.394118 0.544841
C38   C     C_3   0.580694 0.813547 0.783720 -0.188287
C39   C     C_3   0.551938 0.800056 0.704413 0.166944
C40   C     C_3   0.839084 0.689742 0.756920 -0.289489
Cr1   Cr    Cr6+3 0.393010 0.398050 0.501480 1.013207
Cr2   Cr    Cr6+3 0.398820 0.707980 0.501630 1.030651
Cr3   Cr    Cr6+3 0.708140 0.393940 0.496850 1.021900
Cr4   Cr    Cr6+3 0.937950 0.938450 0.008940 1.008199
Cr5   Cr    Cr6+3 0.626180 0.937030 0.994750 1.001790
Cr6   Cr    Cr6+3 0.937790 0.625760 0.001410 1.006858
H1    H     H_    0.575592 0.916042 0.792489 0.086632
H2    H     H_    0.798662 0.436120 0.701861 0.132827
H3    H     H_    0.939135 0.597220 0.771449 0.150050
H4    H     H_    0.901457 0.573113 0.655580 0.135651
H5    H     H_    0.925468 0.041841 0.799185 0.146231
H6    H     H_    0.853946 0.171684 0.681294 0.142766
H7    H     H_    0.624794 0.096158 0.790035 0.101434
H8    H     H_    0.636744 0.073857 0.677415 0.077650
H9    H     H_    0.153732 0.493769 0.821502 0.147185
H10   H     H_    0.221171 0.460204 0.692370 0.155390
H11   H     H_    0.196978 0.748850 0.808315 0.111256
H12   H     H_    0.497397 0.814696 0.817837 0.153812
H13   H     H_    0.112041 0.779928 0.698462 0.106201
H14   H     H_    0.794264 0.453447 0.169788 0.152919
H15   H     H_    0.719589 0.432510 0.291862 0.153121
H16   H     H_    0.541744 0.754511 0.183153 0.109305
H17   H     H_    0.616196 0.752251 0.298927 0.094009
H18   H     H_    0.448046 0.193617 0.180979 0.158951
H19   H     H_    0.417073 0.289768 0.302458 0.160667
H20   H     H_    0.711815 0.223613 0.187454 0.097424
H21   H     H_    0.743258 0.133868 0.298255 0.085544
H22   H     H_    0.954427 0.886034 0.213960 0.139778
H23   H     H_    0.100779 0.879100 0.323324 0.155290
H24   H     H_    0.088032 0.606170 0.332829 0.115737
H25   H     H_    0.555775 0.885755 0.674300 0.075989
H26   H     H_    0.846894 0.786299 0.763276 0.135311
H27   H     H_    0.796383 0.759973 0.645862 0.112827
H28   H     H_    0.842694 0.461116 0.810950 0.108888
H29   H     H_    0.670624 0.540082 0.842276 0.140683
O1    O     O_R   0.507110 0.256280 0.580300 -0.523929
O2    O     O_R   0.524640 0.695370 0.425100 -0.503547
O3    O     O_R   0.735890 0.504390 0.415980 -0.519613
O4    O     O_R   0.690560 0.277820 0.422350 -0.510074
O5    O     O_3   0.499990 0.499990 0.499980 -0.240351
O6    O     O_R   0.089190 0.825870 0.932320 -0.521810
O7    O     O_R   0.819070 0.053960 0.931440 -0.494087
O8    O     O_R   0.607070 0.076440 0.916460 -0.530770
O9    O     O_R   0.647110 0.806550 0.917690 -0.521810
O10   O     O_R   0.837080 0.593860 0.915300 -0.523800
O11   O     O_R   0.064770 0.636080 0.932550 -0.513913
O12   O     O_R   0.280830 0.527190 0.577940 -0.497454
O13   O     O_R   0.068250 0.829200 0.092940 -0.517042
O14   O     O_R   0.799650 0.057040 0.080330 -0.502959
O15   O     O_R   0.586130 0.079760 0.077080 -0.511028
O16   O     O_R   0.627700 0.809630 0.066580 -0.491631
O17   O     O_R   0.816140 0.597180 0.075920 -0.506687
O18   O     O_R   0.045360 0.639170 0.081440 -0.492955
O19   O     O_3   0.833980 0.833750 0.001700 -0.281463
O20   O     O_R   0.261360 0.738990 0.584270 -0.507566
O21   O     O_R   0.532590 0.694780 0.574370 -0.459769
O22   O     O_R   0.744470 0.503750 0.577000 -0.535641
O23   O     O_R   0.698520 0.277230 0.571620 -0.480030
O24   O     O_R   0.498530 0.256920 0.419280 -0.521013
O25   O     O_R   0.272880 0.527780 0.428680 -0.510481
O26   O     O_R   0.252780 0.739630 0.423250 -0.519198
O27   O     O_3   0.418697 0.809562 0.698358 -0.550079
C41   C     C_3   0.311825 0.946736 0.678084 0.024692
H30   H     H_    0.215888 0.941208 0.666886 0.168068
H31   H     H_    0.339562 0.979888 0.627363 0.127106
C42   C     C_3   0.274875 0.058285 0.737527 -0.298667
H32   H     H_    0.255794 0.019338 0.788646 0.167394
H33   H     H_    0.362541 0.079327 0.744951 0.143094
C43   C     C_3   0.144566 0.197860 0.718855 -0.485573
H34   H     H_    0.160457 0.238362 0.667469 0.147016
H35   H     H_    0.123525 0.277026 0.761705 0.141009
H36   H     H_    0.052070 0.183816 0.714418 0.133343
C44   C     C_3   0.259753 0.551084 0.208305 -0.396818
H37   H     H_    0.318955 0.492937 0.159531 0.130173
H38   H     H_    0.328972 0.576257 0.240707 0.151335
H39   H     H_    0.233056 0.481066 0.238393 0.121434
O28   O     O_3   0.596365 0.489596 0.710641 -0.544835
C45   C     C_3   0.497231 0.526241 0.766185 0.034607
H40   H     H_    0.401966 0.546459 0.739758 0.191032
H41   H     H_    0.468309 0.627119 0.793614 0.150197
C46   C     C_3   0.541721 0.401888 0.817124 -0.281556
H42   H     H_    0.503009 0.333374 0.795380 0.160390
H43   H     H_    0.657878 0.340050 0.819079 0.192825
C47   C     C_3   0.487702 0.445180 0.893965 -0.454418
H44   H     H_    0.485313 0.543673 0.910766 0.141671
H45   H     H_    0.557675 0.360307 0.931084 0.181678
H46   H     H_    0.381879 0.458431 0.899751 0.164564

loop_
_geom_bond_atom_site_label_1
_geom_bond_atom_site_label_2
_ccdc_geom_bond_type
C1    O12   A    
C7    C10   D    
Cr2   O5    S    
C21   H20   S    
C20   H21   S    
C28   H23   S    
C1    C11   S    
Cr3   O23   S    
C23   O1    A    
C10   H6    S    
Cr1   O5    S    
Cr6   O11   S    
Cr5   O8    S    
Cr3   O3    S    
C37   O4    A    
C26   C27   D    
C6    H2    S    
Cr2   O21   S    
C8    C29   S    
C29   O8    A    
Cr4   O7    S    
C36   O2    A    
C43   H35   S    
C38   C39   S    
C13   H11   S    
C42   H32   S    
Cr3   O4    S    
C40   H3    S    
C18   C19   S    
C45   H40   S    
C46   C47   S    
C27   H22   S    
C12   O22   A    
C38   H12   S    
C11   C15   D    
C32   O15   A    
C20   C24   D    
C3    C38   S    
C8    C9    D    
C9    H5    S    
C34   O25   A    
Cr1   O24   S    
C16   H17   S    
C4    C12   S    
C9    C10   S    
C6    O28   S    
C2    H28   S    
C25   C34   S    
Cr6   O10   S    
C14   H9    S    
C31   O11   A    
C13   C14   D    
C30   O9    A    
C2    C6    S    
C17   C33   S    
C11   H13   S    
Cr5   O19   S    
C35   O18   A    
Cr1   O12   S    
C21   C32   S    
C34   O26   A    
Cr2   O20   S    
C4    C6    S    
Cr4   O6    S    
C33   O17   A    
Cr3   O5    S    
C25   C28   D    
C45   C46   S    
C3    C30   S    
C17   H16   S    
C35   O13   A    
C32   O14   A    
Cr6   O19   S    
C4    C39   S    
C1    O20   A    
C17   C18   D    
C46   H42   S    
Cr1   O25   S    
C41   H31   S    
C30   O10   A    
Cr5   O15   S    
C38   H1    S    
C24   H19   S    
C47   H46   S    
C18   H14   S    
C3    C40   S    
C22   C24   S    
C5    H4    S    
C43   H36   S    
Cr5   O9    S    
Cr2   O26   S    
C37   O24   A    
C39   O27   S    
C47   H45   S    
C44   H37   S    
C40   H26   S    
C13   C31   S    
Cr3   O22   S    
C4    C5    S    
C8    H7    S    
C31   O6    A    
C15   H10   S    
C44   H39   S    
C33   O16   A    
C2    C3    S    
C26   C44   S    
C29   O7    A    
C36   O3    A    
O28   C45   S    
C16   C36   S    
Cr1   O1    S    
C20   C37   S    
Cr6   O18   S    
C42   H33   S    
C19   H15   S    
C16   C19   D    
C7    C23   S    
C41   C42   S    
Cr4   O13   S    
C5    H27   S    
O27   C41   S    
Cr5   O16   S    
C45   H41   S    
C46   H43   S    
Cr4   O19   S    
Cr4   O14   S    
C22   H18   S    
C26   C35   S    
C23   O23   A    
Cr6   O17   S    
Cr2   O2    S    
C5    C40   S    
C43   H34   S    
C41   H30   S    
C39   H25   S    
C14   C15   S    
C12   O21   A    
C25   H24   S    
C7    H8    S    
C44   H38   S    
C21   C22   D    
C2    H29   S    
C47   H44   S    
C27   C28   S    
C42   C43   S    
