data_mof_unit_46305.cif
_audit_creation_date              2013-03-05T16:46:08-0500
_audit_creation_method            fapswitch 2.2
_symmetry_space_group_name_H-M    P1
_symmetry_Int_Tables_number       1
_space_group_crystal_system       triclinic
_cell_length_a                    10.800384
_cell_length_b                    10.582564
_cell_length_c                    9.880323
_cell_angle_alpha                 89.584662
_cell_angle_beta                  90.961557
_cell_angle_gamma                 89.046416
_cell_volume                      1128.93156391

loop_
_atom_site_label
_atom_site_type_symbol
_atom_site_description
_atom_site_fract_x
_atom_site_fract_y
_atom_site_fract_z
_atom_type_partial_charge
O1    O     O_R   0.500020 0.316790 0.614690 -0.605505
O2    O     O_R   0.500000 0.316760 0.385350 -0.632499
C1    C     C_R   0.500101 0.260462 0.499908 0.897500
O3    O     O_R   0.316770 0.500030 0.614670 -0.615358
O4    O     O_R   0.316750 0.499990 0.385330 -0.608399
C2    C     C_R   0.260041 0.498264 0.498865 0.877788
Zn1   Zn    Zn3+2 0.500010 0.500020 0.653130 0.973155
Zn2   Zn    Zn3+2 0.499990 0.499980 0.346870 0.951631
O5    O     O_R   0.500000 0.683240 0.614650 -0.621925
O6    O     O_R   0.499980 0.683210 0.385310 -0.622367
O7    O     O_R   0.683250 0.500010 0.614670 -0.617491
O8    O     O_R   0.683230 0.499970 0.385330 -0.627459
C3    C     C_R   0.499537 0.739483 0.499305 0.889449
C4    C     C_R   0.739847 0.498478 0.501907 0.867728
C5    C     C_R   0.177423 0.842058 0.216050 -0.151443
H1    H     H_    0.188134 0.941354 0.238530 0.160537
C6    C     C_R   0.128044 0.763121 0.314407 -0.204867
H2    H     H_    0.100706 0.802382 0.410565 0.131314
C7    C     C_R   0.113175 0.634334 0.288783 0.140894
C8    C     C_R   0.146190 0.585147 0.162930 -0.074596
H3    H     H_    0.134909 0.485627 0.141946 0.152690
C9    C     C_R   0.196182 0.664085 0.064541 -0.253799
H4    H     H_    0.226159 0.622780 0.970774 0.150304
C10   C     C_R   0.211498 0.793615 0.089655 -0.056396
C11   C     C_R   0.931093 0.550070 0.396250 -0.250787
H5    H     H_    0.877862 0.596517 0.315417 0.160238
C12   C     C_R   0.872171 0.496700 0.506478 -0.075796
C13   C     C_R   0.939995 0.442428 0.616519 -0.092154
C14   C     C_R   0.068137 0.430947 0.605698 -0.166864
C15   C     C_R   0.127204 0.491729 0.497154 -0.144794
C16   C     C_R   0.057995 0.553223 0.393147 -0.002760
C17   C     C_R   0.850078 0.498431 0.840363 -0.109599
H6    H     H_    0.853331 0.597440 0.812261 0.126022
C18   C     C_R   0.818587 0.465161 0.972406 -0.169442
H7    H     H_    0.794514 0.537837 0.044340 0.140940
C19   C     C_R   0.820820 0.338284 0.012467 -0.099125
H8    H     H_    0.797978 0.312721 0.115243 0.141128
C20   C     C_R   0.852974 0.244475 0.920012 -0.025509
H9    H     H_    0.856636 0.146368 0.951743 0.159306
C21   C     C_R   0.882321 0.277118 0.787183 -0.143434
C22   C     C_R   0.882556 0.404562 0.746573 0.130917
C23   C     C_R   0.609012 0.062671 0.479037 0.096355
C24   C     C_R   0.498352 0.128634 0.496314 -0.067861
C25   C     C_R   0.384809 0.067459 0.489069 -0.120667
H10   H     H_    0.297969 0.120017 0.489062 0.180504
C26   C     C_R   0.384746 0.936669 0.490855 -0.169309
H11   H     H_    0.298054 0.887149 0.494742 0.149145
C27   C     C_R   0.498106 0.871286 0.495466 -0.091071
C28   C     C_R   0.608896 0.933376 0.478285 0.109748
C29   C     C_3   0.725800 0.923142 0.560773 -0.493772
C30   C     C_3   0.725612 0.066475 0.561897 -0.502018
H12   H     H_    0.711798 0.880142 0.662342 0.210058
H13   H     H_    0.803306 0.881179 0.502559 0.202494
H14   H     H_    0.710481 0.106805 0.663871 0.232556
H15   H     H_    0.803216 0.107742 0.504814 0.201298
C31   C     C_R   0.514052 0.390166 0.072846 0.186832
N1    N     N_R   0.499160 0.499140 0.142800 -0.105666
C32   C     C_R   0.497412 0.610215 0.070911 -0.126941
H16   H     H_    0.492761 0.699217 0.123685 0.168427
C33   C     C_R   0.496560 0.610257 0.927215 -0.134335
H17   H     H_    0.491184 0.699289 0.873047 0.179571
N2    N     N_R   0.499160 0.499180 0.857150 -0.112296
C34   C     C_R   0.516991 0.389589 0.930399 0.152013
C35   C     C_3   0.437770 0.274201 0.927403 -0.242377
C36   C     C_3   0.432822 0.278719 0.081080 -0.487507
H18   H     H_    0.346953 0.291332 0.877543 0.242864
H19   H     H_    0.479361 0.197899 0.134960 0.229383
C37   C     C_2   0.265919 0.878755 0.987038 0.924870
O9    O     O_2   0.316411 0.975150 0.024295 -0.586786
O10   O     O_R   0.260545 0.853138 0.848221 -0.757470
H20   H     H_    0.204730 0.780874 0.823035 0.288363
H21   H     H_    0.911992 0.204013 0.718295 0.133877
C38   C     C_2   0.502648 0.156659 0.877864 1.025555
O11   O     O_2   0.607275 0.128850 0.917977 -0.691700
O12   O     O_R   0.439609 0.075916 0.790807 -0.710688
H22   H     H_    0.489936 0.996983 0.769679 0.347730
H23   H     H_    0.339299 0.303686 0.119215 0.215107
C39   C     C_2   0.139350 0.354988 0.708868 0.958767
O13   O     O_2   0.192808 0.258113 0.675010 -0.601848
O14   O     O_R   0.144947 0.392181 0.844199 -0.806816
H24   H     H_    0.104272 0.477603 0.859020 0.294438

loop_
_geom_bond_atom_site_label_1
_geom_bond_atom_site_label_2
_geom_bond_distance
_ccdc_geom_bond_type
C11   C16   1.372399 A    
C21   C22   1.404362 A    
C38   O11   1.221810 D    
C7    C8    1.400858 A    
O12   H22   1.013900 S    
C7    C16   1.476499 S    
Zn1   O7    2.021465 S    
C1    C24   1.396220 S    
C14   C15   1.413329 A    
C19   H8    1.082517 S    
C15   C16   1.409459 A    
O7    C4    1.279842 A    
C39   O14   1.397199 S    
C32   C33   1.419631 A    
C5    H1    1.083272 S    
C13   C22   1.491366 S    
C31   N1    1.357429 A    
C33   N2    1.368624 A    
C18   H7    1.082473 S    
O5    C3    1.281778 A    
C14   C39   1.489300 S    
C37   O9    1.220957 D    
C36   H19   1.112505 S    
C29   H12   1.112558 S    
C35   C38   1.506370 S    
O10   H20   1.011546 S    
C4    C12   1.428902 S    
C30   H15   1.111660 S    
C23   C30   1.491755 S    
C38   O12   1.394234 S    
O3    Zn1   2.008939 S    
C25   C26   1.384089 A    
C6    H2    1.083282 S    
C20   H9    1.082253 S    
C26   C27   1.396175 A    
C29   H13   1.111870 S    
C36   H23   1.112379 S    
O3    C2    1.289210 A    
C39   O13   1.219850 D    
C11   H5    1.086032 S    
C33   H17   1.080438 S    
O1    C1    1.285031 A    
C35   H18   1.101913 S    
C24   C25   1.397227 A    
Zn1   N2    2.015914 S    
N2    C34   1.371722 A    
Zn2   N1    2.016232 S    
O4    Zn2   2.021465 S    
Zn2   O8    2.008940 S    
C29   C30   1.516921 S    
C31   C34   1.408369 A    
Zn2   O6    1.978587 S    
C5    C10   1.405779 A    
C2    C15   1.437331 S    
C8    C9    1.398293 A    
C9    C10   1.406775 A    
C23   C24   1.387677 A    
C17   C22   1.407562 A    
C13   C14   1.393249 A    
C25   H10   1.082429 S    
C5    C6    1.395385 A    
C26   H11   1.081668 S    
C27   C28   1.386981 A    
C21   H21   1.082208 S    
O1    Zn1   1.978587 S    
O2    Zn2   1.973151 S    
O8    C4    1.294852 A    
O14   H24   1.011173 S    
O6    C3    1.277900 A    
C3    C27   1.394873 S    
C11   C12   1.391548 A    
C30   H14   1.110599 S    
C17   H6    1.083271 S    
C19   C20   1.397463 A    
O2    C1    1.275240 A    
C32   H16   1.080719 S    
C35   C36   1.521284 S    
C20   C21   1.397578 A    
N1    C32   1.368673 A    
O4    C2    1.287227 A    
C6    C7    1.399388 A    
C18   C19   1.396762 A    
C10   C37   1.486489 S    
C23   C28   1.368370 A    
C34   C35   1.502827 S    
Zn1   O5    1.973153 S    
C8    H3    1.083326 S    
C37   O10   1.400451 S    
C28   C29   1.493244 S    
C12   C13   1.413782 A    
C9    H4    1.079550 S    
C31   C36   1.484155 S    
C17   C18   1.397820 A    
