data_mof_unit_17203.cif
_audit_creation_date              2012-12-10T18:05:45-0500
_audit_creation_method            fapswitch 2.2
_symmetry_space_group_name_H-M    P1
_symmetry_Int_Tables_number       1
_space_group_crystal_system       triclinic
_cell_length_a                    10.949555
_cell_length_b                    10.804623
_cell_length_c                    9.659342
_cell_angle_alpha                 91.215248
_cell_angle_beta                  90.677971
_cell_angle_gamma                 91.854604
_cell_volume                      1141.81118842

loop_
_atom_site_label
_atom_site_type_symbol
_atom_type_description
_atom_site_fract_x
_atom_site_fract_y
_atom_site_fract_z
_atom_type_partial_charge
C1    C     C_R   0.499539 0.262518 0.499092 0.804420
C2    C     C_R   0.500461 0.737482 0.500908 0.804420
C3    C     C_R   0.871537 0.493847 0.503989 -0.082239
C4    C     C_R   0.128463 0.506153 0.496011 -0.082239
C5    C     C_R   0.941225 0.488508 0.627413 0.014096
C6    C     C_R   0.058775 0.511492 0.372587 0.014096
C7    C     C_R   0.527619 0.062367 0.378029 -0.132074
C8    C     C_R   0.472381 0.937633 0.621971 -0.132074
C9    C     C_R   0.528423 0.934390 0.379205 -0.170752
C10   C     C_R   0.471577 0.065610 0.620795 -0.170752
C11   C     C_R   0.500879 0.871578 0.501242 -0.030073
C12   C     C_R   0.499121 0.128422 0.498758 -0.030073
C13   C     C_R   0.449451 0.402497 0.068792 0.466601
C14   C     C_R   0.550549 0.597503 0.931207 0.466601
C15   C     C_R   0.451454 0.402424 0.921759 -0.153730
C16   C     C_R   0.548546 0.597576 0.078241 -0.153730
C17   C     C_R   0.262597 0.503132 0.498696 0.793695
C18   C     C_R   0.737403 0.496868 0.501304 0.793695
C19   C     C_R   0.216519 0.657092 0.068886 -0.138583
C20   C     C_R   0.783481 0.342907 0.931113 -0.138583
C21   C     C_R   0.167234 0.642086 0.200182 -0.078648
C22   C     C_R   0.832766 0.357914 0.799818 -0.078648
C23   C     C_R   0.112106 0.528185 0.235186 0.101487
C24   C     C_R   0.887894 0.471815 0.764814 0.101487
C25   C     C_R   0.103461 0.430855 0.137352 -0.107515
C26   C     C_R   0.896539 0.569145 0.862648 -0.107515
C27   C     C_R   0.152984 0.445562 0.006153 0.049545
C28   C     C_R   0.847016 0.554438 0.993847 0.049545
C29   C     C_R   0.210107 0.559060 0.972275 -0.218443
C30   C     C_R   0.789893 0.440940 0.027725 -0.218443
C31   C     C_R   0.932303 0.502305 0.378597 -0.220224
C32   C     C_R   0.067697 0.497695 0.621403 -0.220224
Cu1   Cu    Cu3+1 0.500000 0.500020 0.640660 0.996483
Cu2   Cu    Cu3+1 0.500000 0.499980 0.359340 0.996483
H1    H     H_    0.252519 0.571690 0.873010 0.160399
H2    H     H_    0.747481 0.428310 0.126990 0.160399
H3    H     H_    0.410680 0.324750 0.863711 0.181548
H4    H     H_    0.589320 0.675250 0.136289 0.181548
H5    H     H_    0.260955 0.744210 0.042439 0.151427
H6    H     H_    0.739045 0.255790 0.957561 0.151427
H7    H     H_    0.172805 0.718334 0.274858 0.127365
H8    H     H_    0.827195 0.281666 0.725142 0.127365
H9    H     H_    0.059840 0.343249 0.164379 0.145664
H10   H     H_    0.940160 0.656751 0.835621 0.145664
H11   H     H_    0.881010 0.503751 0.283894 0.156138
H12   H     H_    0.118990 0.496249 0.716106 0.156138
H13   H     H_    0.550610 0.109332 0.283421 0.184977
H14   H     H_    0.449390 0.890668 0.716579 0.184977
H15   H     H_    0.551434 0.884902 0.284849 0.164381
H16   H     H_    0.448566 0.115098 0.715151 0.164381
N1    N     N_R   0.500030 0.500030 0.852070 -0.214522
N2    N     N_R   0.499970 0.499970 0.147930 -0.214521
O1    O     O_R   0.499990 0.319660 0.618740 -0.603275
O2    O     O_R   0.500010 0.680340 0.381260 -0.603274
O3    O     O_R   0.499990 0.319630 0.381170 -0.529653
O4    O     O_R   0.500010 0.680370 0.618830 -0.529653
O5    O     O_R   0.319650 0.500020 0.618780 -0.601507
O6    O     O_R   0.680350 0.499980 0.381220 -0.601507
O7    O     O_R   0.319640 0.500000 0.381210 -0.538376
O8    O     O_R   0.680360 0.500000 0.618790 -0.538376
C33   C     C_1   0.149132 0.341745 0.909953 0.242378
N3    N     N_1   0.146038 0.258121 0.832956 -0.275204
C34   C     C_1   0.850868 0.658255 0.090047 0.242378
N4    N     N_1   0.853962 0.741878 0.167044 -0.275204
Cl1   Cl    Cl    0.370871 0.276460 0.142238 -0.645785
Cl2   Cl    Cl    0.629129 0.723540 0.857762 -0.645786

loop_
_geom_bond_atom_site_label_1
_geom_bond_atom_site_label_2
_ccdc_geom_bond_type
Cu1   O5    S    
C8    H14   S    
C9    H15   S    
C15   N1    A    
Cu1   N1    S    
C13   N2    A    
C29   H1    S    
Cu2   N2    S    
C14   N1    A    
C30   H2    S    
C5    C32   A    
C32   H12   S    
C25   H9    S    
Cu1   O4    S    
C28   C30   A    
Cu1   Cu2   S    
C1    O3    A    
C26   H10   S    
Cu2   O3    S    
C19   C29   A    
C22   H8    S    
C20   C30   A    
C3    C31   A    
C9    C11   A    
C10   H16   S    
C4    C32   A    
C1    C12   S    
C19   H5    S    
C17   O7    A    
C8    C11   A    
C21   H7    S    
C2    C11   S    
C10   C12   A    
C18   O8    A    
C19   C21   A    
C20   C22   A    
Cu2   O2    S    
Cu1   O8    S    
C14   C16   A    
C13   C15   A    
C21   C23   A    
Cu1   O1    S    
Cu2   O7    S    
C20   H6    S    
C22   C24   A    
C7    C12   A    
C2    O2    A    
C8    C10   A    
C27   C29   A    
C33   N3    T    
C6    C23   S    
C34   N4    T    
C6    C31   A    
C28   C34   S    
C7    C9    A    
C23   C25   A    
C4    C17   S    
C14   Cl2   S    
C3    C18   S    
C4    C6    A    
C31   H11   S    
C16   H4    S    
Cu2   O6    S    
C1    O1    A    
C5    C24   S    
C13   Cl1   S    
C27   C33   S    
C17   O5    A    
C26   C28   A    
C18   O6    A    
C2    O4    A    
C15   H3    S    
C16   N2    A    
C24   C26   A    
C3    C5    A    
C25   C27   A    
C7    H13   S    
