data_mof_unit_20499.cif
_audit_creation_date              2013-03-05T15:59:30-0500
_audit_creation_method            fapswitch 2.2
_symmetry_space_group_name_H-M    P1
_symmetry_Int_Tables_number       1
_space_group_crystal_system       triclinic
_cell_length_a                    18.44661
_cell_length_b                    26.094477
_cell_length_c                    18.389001
_cell_angle_alpha                 90.344837
_cell_angle_beta                  90.13094
_cell_angle_gamma                 89.900709
_cell_volume                      8851.43445213

loop_
_atom_site_label
_atom_site_type_symbol
_atom_site_description
_atom_site_fract_x
_atom_site_fract_y
_atom_site_fract_z
_atom_type_partial_charge
Zn1   Zn    Zn3+2 0.500000 0.706650 0.586810 0.979789
Zn2   Zn    Zn3+2 0.500000 0.293350 0.413190 0.978722
Zn3   Zn    Zn3+2 0.500000 0.706650 0.413190 0.967039
Zn4   Zn    Zn3+2 0.500000 0.293350 0.586810 0.973001
Zn5   Zn    Zn3+2 0.000000 0.206650 0.086810 0.986495
Zn6   Zn    Zn3+2 0.000000 0.793350 0.913190 0.965089
Zn7   Zn    Zn3+2 0.000000 0.206650 0.913190 0.980747
Zn8   Zn    Zn3+2 0.000000 0.793350 0.086810 0.969532
Zn9   Zn    Zn3+2 0.586710 0.793420 0.500000 1.131842
Zn10  Zn    Zn3+2 0.413290 0.206580 0.500000 1.141166
Zn11  Zn    Zn3+2 0.413290 0.793420 0.500000 1.151823
Zn12  Zn    Zn3+2 0.586710 0.206580 0.500000 1.151312
Zn13  Zn    Zn3+2 0.086710 0.293420 0.000000 1.127498
Zn14  Zn    Zn3+2 0.913290 0.706580 0.000000 1.137867
Zn15  Zn    Zn3+2 0.913290 0.293420 0.000000 1.152013
Zn16  Zn    Zn3+2 0.086710 0.706580 0.000000 1.158806
O1    O     O_3   0.500000 0.750040 0.500000 -0.544719
O2    O     O_3   0.500000 0.249960 0.500000 -0.549599
O3    O     O_3   0.000000 0.250040 0.000000 -0.545027
O4    O     O_3   1.000000 0.749960 0.000000 -0.547172
O5    O     O_R   0.585420 0.719700 0.353880 -0.657679
O6    O     O_R   0.414580 0.280300 0.646120 -0.675591
O7    O     O_R   0.414580 0.719700 0.646120 -0.695171
O8    O     O_R   0.585420 0.280300 0.353880 -0.665970
O9    O     O_R   0.585420 0.280300 0.646120 -0.663156
O10   O     O_R   0.414580 0.719700 0.353880 -0.681938
O11   O     O_R   0.414580 0.280300 0.353880 -0.653367
O12   O     O_R   0.585420 0.719700 0.646120 -0.645965
O13   O     O_R   0.085420 0.219700 0.853880 -0.656299
O14   O     O_R   0.914580 0.780300 0.146120 -0.676373
O15   O     O_R   0.914580 0.219700 0.146120 -0.668842
O16   O     O_R   0.085420 0.780300 0.853880 -0.656425
O17   O     O_R   0.085420 0.780300 0.146120 -0.666870
O18   O     O_R   0.914580 0.219700 0.853880 -0.680620
O19   O     O_R   0.914580 0.780300 0.853880 -0.688425
O20   O     O_R   0.085420 0.219700 0.146120 -0.643909
O21   O     O_R   0.646120 0.780390 0.585510 -0.569218
O22   O     O_R   0.353880 0.219610 0.414490 -0.532443
O23   O     O_R   0.353880 0.780390 0.414490 -0.537777
O24   O     O_R   0.646120 0.219610 0.585510 -0.535657
O25   O     O_R   0.646120 0.219610 0.414490 -0.543150
O26   O     O_R   0.353880 0.780390 0.585510 -0.529618
O27   O     O_R   0.353880 0.219610 0.585510 -0.550894
O28   O     O_R   0.646120 0.780390 0.414490 -0.554285
O29   O     O_R   0.146120 0.280390 0.085510 -0.577025
O30   O     O_R   0.853880 0.719610 0.914490 -0.535248
O31   O     O_R   0.853880 0.280390 0.914490 -0.539833
O32   O     O_R   0.146120 0.719610 0.085510 -0.531999
O33   O     O_R   0.146120 0.719610 0.914490 -0.542652
O34   O     O_R   0.853880 0.280390 0.085510 -0.537720
O35   O     O_R   0.853880 0.719610 0.085510 -0.548496
O36   O     O_R   0.146120 0.280390 0.914490 -0.553838
O37   O     O_R   0.560660 0.865840 0.500000 -0.582207
O38   O     O_R   0.439340 0.134160 0.500000 -0.567091
O39   O     O_R   0.439340 0.865840 0.500000 -0.567014
O40   O     O_R   0.560660 0.134160 0.500000 -0.570986
O41   O     O_R   0.060660 0.365840 0.000000 -0.577550
O42   O     O_R   0.939340 0.634160 0.000000 -0.561735
O43   O     O_R   0.939340 0.365840 0.000000 -0.579417
O44   O     O_R   0.060660 0.634160 0.000000 -0.581824
O45   O     O_R   0.500000 0.634240 0.439310 -0.643608
O46   O     O_R   0.500000 0.365760 0.560690 -0.621305
O47   O     O_R   0.500000 0.634240 0.560690 -0.615838
O48   O     O_R   0.500000 0.365760 0.439310 -0.620822
O49   O     O_R   0.000000 0.134240 0.939310 -0.619732
O50   O     O_R   0.000000 0.865760 0.060690 -0.639757
O51   O     O_R   1.000000 0.134240 0.060690 -0.636743
O52   O     O_R   0.000000 0.865760 0.939310 -0.621244
C1    C     C_R   0.638844 0.750736 0.358799 0.881565
C2    C     C_R   0.359187 0.250833 0.639460 0.855702
C3    C     C_R   0.362316 0.752542 0.642618 0.859322
C4    C     C_R   0.641101 0.250689 0.360701 0.851958
C5    C     C_R   0.638319 0.248628 0.641960 0.885454
C6    C     C_R   0.359359 0.749501 0.360382 0.862148
C7    C     C_R   0.361901 0.248147 0.357816 0.863960
C8    C     C_R   0.640588 0.749336 0.639409 0.916080
C9    C     C_R   0.138710 0.250936 0.858538 0.877224
C10   C     C_R   0.859318 0.750522 0.139668 0.853952
C11   C     C_R   0.861196 0.250675 0.141075 0.899747
C12   C     C_R   0.140616 0.750612 0.860522 0.889988
C13   C     C_R   0.138853 0.749193 0.141232 0.914779
C14   C     C_R   0.859148 0.249039 0.860675 0.871735
C15   C     C_R   0.862401 0.747454 0.857396 0.848411
C16   C     C_R   0.140131 0.249884 0.139706 0.911180
C17   C     C_R   0.499867 0.890090 0.500074 0.944218
C18   C     C_R   0.500018 0.109842 0.499998 0.941653
C19   C     C_R   0.999989 0.390103 0.999871 0.943951
C20   C     C_R   0.000007 0.609856 0.999872 0.938280
C21   C     C_R   0.491821 0.610276 0.499450 0.829770
C22   C     C_R   0.499105 0.390652 0.500345 0.809522
C23   C     C_R   0.999254 0.109390 0.999638 0.813088
C24   C     C_R   0.992037 0.889805 0.000535 0.825797
C25   C     C_R   0.458059 0.546747 0.362475 0.052169
C26   C     C_R   0.434213 0.448989 0.625328 0.062013
C27   C     C_R   0.415594 0.552752 0.621295 0.007830
C28   C     C_R   0.537969 0.456120 0.373633 0.083625
C29   C     C_R   0.934058 0.051059 0.874264 0.080407
C30   C     C_R   0.959048 0.953881 0.136970 0.043122
C31   C     C_R   0.041311 0.043514 0.125875 0.033832
C32   C     C_R   0.913518 0.947448 0.879757 0.029616
C33   C     C_R   0.483499 0.522217 0.298735 0.231488
C34   C     C_R   0.435247 0.476015 0.691300 0.342045
C35   C     C_R   0.417562 0.528515 0.690158 0.342027
C36   C     C_R   0.518308 0.474544 0.304599 0.260844
C37   C     C_R   0.933943 0.023490 0.808767 0.320260
C38   C     C_R   0.986866 0.976989 0.200892 0.301611
C39   C     C_R   0.024651 0.023765 0.195326 0.231787
C40   C     C_R   0.914252 0.971464 0.810733 0.270360
C41   C     C_R   0.503552 0.476493 0.436175 -0.043330
C42   C     C_R   0.450391 0.528328 0.560896 -0.017774
C43   C     C_R   0.458796 0.474226 0.562140 -0.030337
C44   C     C_R   0.476921 0.526779 0.431764 -0.027383
C45   C     C_R   0.949895 0.971866 0.939353 -0.015450
C46   C     C_R   0.004882 0.023686 0.063727 -0.044631
C47   C     C_R   0.978292 0.973545 0.068029 -0.025600
C48   C     C_R   0.958570 0.025953 0.937833 -0.026921
C49   C     C_R   0.490120 0.447861 0.500798 -0.078175
C50   C     C_R   0.470099 0.555054 0.497207 -0.089434
C51   C     C_R   0.970695 0.945198 0.002754 -0.090275
C52   C     C_R   0.990520 0.052283 0.999116 -0.082208
C53   C     C_R   0.245243 0.784839 0.693238 0.382868
C54   C     C_R   0.765568 0.224539 0.318302 0.334929
C55   C     C_R   0.747780 0.789153 0.301606 0.388769
C56   C     C_R   0.233122 0.228732 0.678897 0.322718
C57   C     C_R   0.241987 0.221593 0.310109 0.383217
C58   C     C_R   0.773153 0.753630 0.669897 0.416975
C59   C     C_R   0.746816 0.209116 0.699408 0.400437
C60   C     C_R   0.233351 0.772106 0.320231 0.340761
C61   C     C_R   0.757157 0.292009 0.203179 0.398113
C62   C     C_R   0.273293 0.746412 0.830122 0.362271
C63   C     C_R   0.245946 0.291084 0.799938 0.390143
C64   C     C_R   0.733766 0.727085 0.180362 0.322950
C65   C     C_R   0.745583 0.715029 0.806591 0.333090
C66   C     C_R   0.272085 0.254188 0.170763 0.415302
C67   C     C_R   0.248640 0.711179 0.198017 0.402364
C68   C     C_R   0.730810 0.266688 0.824741 0.344305
C69   C     C_R   0.695120 0.283677 0.244269 -0.081718
C70   C     C_R   0.326607 0.740062 0.775493 0.009787
C71   C     C_R   0.307698 0.282343 0.758087 -0.035921
C72   C     C_R   0.688209 0.718099 0.239599 -0.028950
C73   C     C_R   0.686663 0.727325 0.762778 -0.000334
C74   C     C_R   0.324851 0.261808 0.225458 -0.051506
C75   C     C_R   0.309866 0.721045 0.239884 -0.048602
C76   C     C_R   0.682821 0.275661 0.766985 -0.044138
C77   C     C_R   0.186456 0.772589 0.737052 -0.005676
C78   C     C_R   0.810551 0.216077 0.258144 0.004111
C79   C     C_R   0.809150 0.779514 0.259918 -0.049830
C80   C     C_R   0.187249 0.219665 0.737905 -0.045479
C81   C     C_R   0.184236 0.235536 0.265750 -0.017301
C82   C     C_R   0.826452 0.760133 0.724626 -0.007662
C83   C     C_R   0.808310 0.218405 0.741493 -0.040592
C84   C     C_R   0.187503 0.781187 0.261093 -0.046181
C85   C     C_R   0.700724 0.252887 0.307377 -0.236877
C86   C     C_R   0.311194 0.758635 0.704368 -0.223323
C87   C     C_R   0.299874 0.253921 0.692596 -0.240839
C88   C     C_R   0.691672 0.752655 0.299491 -0.230548
C89   C     C_R   0.700471 0.744764 0.691593 -0.226628
C90   C     C_R   0.309667 0.244030 0.296964 -0.222885
C91   C     C_R   0.300648 0.747572 0.306528 -0.233881
C92   C     C_R   0.689408 0.244663 0.703318 -0.225382
C93   C     C_R   0.200457 0.755146 0.808324 -0.228457
C94   C     C_R   0.809390 0.252812 0.201189 -0.218420
C95   C     C_R   0.800572 0.752351 0.193639 -0.237351
C96   C     C_R   0.190804 0.253769 0.798342 -0.228894
C97   C     C_R   0.199190 0.247194 0.192636 -0.224679
C98   C     C_R   0.811347 0.741311 0.795589 -0.252608
C99   C     C_R   0.799342 0.244987 0.808312 -0.238955
C100  C     C_R   0.191687 0.747147 0.200651 -0.223291
C101  C     C_R   0.434162 0.974113 0.489959 0.286061
C102  C     C_R   0.565222 0.025415 0.491931 0.274185
C103  C     C_R   0.564721 0.973858 0.511175 0.304386
C104  C     C_R   0.434100 0.026037 0.508597 0.313829
C105  C     C_R   0.934901 0.474008 0.988092 0.274765
C106  C     C_R   0.065431 0.525726 0.990621 0.275705
C107  C     C_R   0.065286 0.474084 0.009606 0.308103
C108  C     C_R   0.934343 0.525813 0.007113 0.320300
C109  C     C_R   0.499832 0.053543 0.500106 -0.388044
C110  C     C_R   0.499506 0.946268 0.500381 -0.388070
C111  C     C_R   0.999920 0.553582 0.999288 -0.381841
C112  C     C_R   0.000059 0.446302 0.999244 -0.393158
S1    S     S_3+6 0.397545 0.563293 0.771894 0.082245
O53   O     O_2   0.463569 0.593892 0.792224 -0.258377
O54   O     O_2   0.334649 0.599144 0.761239 -0.335350
O55   O     O_3   0.376347 0.524724 0.841430 -0.427204
H1    H     H_    0.372667 0.547701 0.884348 0.414608
S2    S     S_3+6 0.518328 0.430740 0.230762 0.066889
O56   O     O_2   0.591692 0.430077 0.195604 -0.188434
O57   O     O_2   0.501381 0.378601 0.259849 -0.372025
O58   O     O_3   0.455226 0.444911 0.167841 -0.392778
H2    H     H_    0.408185 0.438398 0.191950 0.362578
S3    S     S_3+6 0.481161 0.554726 0.213944 0.099907
O59   O     O_2   0.407338 0.549289 0.180233 -0.151665
O60   O     O_2   0.496738 0.610413 0.226031 -0.364235
O61   O     O_3   0.543708 0.531947 0.155670 -0.375553
H3    H     H_    0.590963 0.541447 0.177589 0.364739
S4    S     S_3+6 0.467478 0.443832 0.769361 0.091134
O62   O     O_2   0.405370 0.426484 0.815581 -0.182586
O63   O     O_2   0.510609 0.397840 0.745816 -0.355567
O64   O     O_3   0.521284 0.483028 0.818264 -0.443635
H4    H     H_    0.537747 0.462163 0.860004 0.407860
S5    S     S_3+6 0.040639 0.062104 0.273585 0.130725
O65   O     O_2   0.110862 0.045683 0.307733 -0.136205
O66   O     O_2   0.044880 0.117573 0.253442 -0.311969
O67   O     O_3   0.973366 0.055677 0.334436 -0.401674
H5    H     H_    0.928509 0.063949 0.307200 0.342536
S6    S     S_3+6 0.889011 0.937942 0.729382 0.101105
O68   O     O_2   0.954447 0.909725 0.701533 -0.203942
O69   O     O_2   0.829462 0.899880 0.742279 -0.349276
O70   O     O_3   0.860012 0.978089 0.664430 -0.367920
H6    H     H_    0.813494 0.991923 0.682961 0.392597
S7    S     S_3+6 0.969198 0.053745 0.730613 0.091093
O71   O     O_2   0.909273 0.073896 0.683494 -0.200538
O72   O     O_2   0.016128 0.097706 0.754374 -0.345408
O73   O     O_3   0.019650 0.011997 0.682421 -0.429164
H7    H     H_    0.038875 0.032094 0.641229 0.413465
S8    S     S_3+6 0.981113 0.943161 0.284847 0.074052
O74   O     O_2   0.906450 0.949765 0.315979 -0.214748
O75   O     O_2   0.994799 0.887593 0.269704 -0.367883
O76   O     O_3   0.042569 0.961517 0.347271 -0.422118
H8    H     H_    0.034077 0.939009 0.389583 0.414298
C113  C     C_3   0.396718 0.585046 0.355898 -0.663217
H9    H     H_    0.369153 0.592097 0.408606 0.183494
H10   H     H_    0.417081 0.621836 0.335437 0.280741
H11   H     H_    0.354782 0.570085 0.318030 0.263669
C114  C     C_3   0.377887 0.407326 0.619284 -0.743694
H12   H     H_    0.365181 0.397412 0.561860 0.202611
H13   H     H_    0.396733 0.372981 0.648035 0.285637
H14   H     H_    0.326365 0.420183 0.644797 0.241256
C115  C     C_3   0.365309 0.597731 0.609851 -0.693134
H15   H     H_    0.384277 0.630813 0.642054 0.287539
H16   H     H_    0.360065 0.608906 0.552038 0.175459
H17   H     H_    0.309799 0.587192 0.627406 0.248861
C116  C     C_3   0.607518 0.425626 0.380424 -0.704967
H18   H     H_    0.626066 0.423346 0.437799 0.197423
H19   H     H_    0.601167 0.386371 0.358691 0.276963
H20   H     H_    0.651208 0.444860 0.349408 0.246186
C117  C     C_3   0.878502 0.093404 0.879336 -0.754700
H21   H     H_    0.866594 0.104481 0.936457 0.203115
H22   H     H_    0.897547 0.126934 0.848909 0.287149
H23   H     H_    0.826434 0.080634 0.854754 0.234916
C118  C     C_3   0.895889 0.917077 0.142684 -0.668958
H24   H     H_    0.867462 0.911737 0.089934 0.184403
H25   H     H_    0.914439 0.879279 0.161387 0.282498
H26   H     H_    0.855005 0.932450 0.181256 0.264435
C119  C     C_3   0.110686 0.073948 0.116756 -0.627327
H27   H     H_    0.127811 0.075170 0.058943 0.194121
H28   H     H_    0.105359 0.113761 0.137019 0.292003
H29   H     H_    0.155276 0.055098 0.147295 0.241411
C120  C     C_3   0.863536 0.902609 0.892410 -0.701441
H30   H     H_    0.881977 0.869261 0.860391 0.287903
H31   H     H_    0.859403 0.891763 0.950404 0.176693
H32   H     H_    0.807659 0.913161 0.875651 0.246017
S9    S     S_3+6 0.242055 0.844597 0.647544 0.114712
O77   O     O_2   0.215582 0.836363 0.571377 -0.129566
O78   O     O_2   0.190421 0.880119 0.686179 -0.264774
O79   O     O_3   0.324816 0.871731 0.646492 -0.528678
H33   H     H_    0.315918 0.909161 0.646605 0.413968
S10   S     S_3+6 0.797821 0.206166 0.406110 0.098199
O80   O     O_2   0.767096 0.154652 0.424614 -0.149172
O81   O     O_2   0.879180 0.202502 0.406558 -0.252687
O82   O     O_3   0.772871 0.249138 0.469941 -0.518037
H34   H     H_    0.791352 0.282410 0.452223 0.335010
S11   S     S_3+6 0.737034 0.851331 0.340670 0.097851
O83   O     O_2   0.765576 0.851244 0.417132 -0.164543
O84   O     O_2   0.778776 0.889687 0.296957 -0.263578
O85   O     O_3   0.649088 0.868654 0.340506 -0.547341
H35   H     H_    0.647910 0.902801 0.364255 0.413430
S12   S     S_3+6 0.201183 0.213958 0.589542 0.089804
O86   O     O_2   0.227271 0.161241 0.569415 -0.172071
O87   O     O_2   0.119700 0.214584 0.587156 -0.256761
O88   O     O_3   0.231921 0.256553 0.528608 -0.520867
H36   H     H_    0.216647 0.290421 0.547822 0.332802
S13   S     S_3+6 0.236370 0.160144 0.349684 0.136148
O89   O     O_2   0.201310 0.163814 0.422994 -0.122389
O90   O     O_2   0.190192 0.127745 0.300669 -0.233398
O91   O     O_3   0.318393 0.132116 0.356521 -0.521191
H37   H     H_    0.309388 0.094919 0.350728 0.412503
S14   S     S_3+6 0.799193 0.749242 0.576469 0.057239
O92   O     O_2   0.801145 0.802317 0.545462 -0.199839
O93   O     O_2   0.873161 0.725334 0.570101 -0.290367
O94   O     O_3   0.740925 0.712828 0.528271 -0.571472
H38   H     H_    0.757588 0.715360 0.477244 0.371768
S15   S     S_3+6 0.736375 0.147295 0.659564 0.105492
O95   O     O_2   0.769855 0.146932 0.585216 -0.136178
O96   O     O_2   0.774072 0.108557 0.706477 -0.286835
O97   O     O_3   0.648226 0.131063 0.653899 -0.548419
H39   H     H_    0.648064 0.093908 0.642636 0.408042
S16   S     S_3+6 0.201556 0.787468 0.409182 0.092276
O98   O     O_2   0.227499 0.840471 0.427657 -0.153496
O99   O     O_2   0.120085 0.786856 0.411588 -0.269485
O100  O     O_3   0.232669 0.745530 0.471098 -0.518533
H40   H     H_    0.217741 0.711449 0.452449 0.330230
S17   S     S_3+6 0.772620 0.354244 0.166652 0.098750
O101  O     O_2   0.740916 0.356671 0.091483 -0.156999
O102  O     O_2   0.736632 0.393960 0.213864 -0.259421
O103  O     O_3   0.861895 0.367287 0.163575 -0.558766
H41   H     H_    0.865338 0.400678 0.138474 0.404288
S18   S     S_3+6 0.299510 0.750811 0.923627 0.071360
O104  O     O_2   0.302546 0.697684 0.954296 -0.167215
O105  O     O_2   0.373179 0.774960 0.930659 -0.285150
O106  O     O_3   0.240959 0.786411 0.972619 -0.550600
H42   H     H_    0.242027 0.820738 0.949942 0.341268
S19   S     S_3+6 0.232549 0.353441 0.837328 0.102529
O107  O     O_2   0.265749 0.355937 0.911870 -0.165006
O108  O     O_2   0.268521 0.392163 0.789343 -0.257217
O109  O     O_3   0.143689 0.367882 0.841906 -0.548118
H43   H     H_    0.141695 0.402943 0.862716 0.411714
S20   S     S_3+6 0.701475 0.711534 0.091571 0.093169
O110  O     O_2   0.728046 0.658703 0.072794 -0.177731
O111  O     O_2   0.619978 0.711703 0.089522 -0.249546
O112  O     O_3   0.731367 0.753737 0.029656 -0.512014
H44   H     H_    0.715764 0.787686 0.048298 0.332359
S21   S     S_3+6 0.742215 0.655597 0.853194 0.130275
O113  O     O_2   0.715702 0.664839 0.929006 -0.107904
O114  O     O_2   0.690523 0.619641 0.815548 -0.245206
O115  O     O_3   0.824512 0.627748 0.855818 -0.478186
H45   H     H_    0.837753 0.622138 0.804186 0.345421
S22   S     S_3+6 0.298499 0.248077 0.077659 0.055474
O116  O     O_2   0.297336 0.300173 0.043331 -0.223141
O117  O     O_2   0.373752 0.226125 0.072552 -0.269000
O118  O     O_3   0.241874 0.208777 0.032128 -0.578840
H46   H     H_    0.256340 0.211645 0.980466 0.371964
S23   S     S_3+6 0.239241 0.649124 0.158445 0.103918
O119  O     O_2   0.267478 0.649787 0.082034 -0.152771
O120  O     O_2   0.282198 0.611094 0.201915 -0.266216
O121  O     O_3   0.151740 0.630912 0.158431 -0.554674
H47   H     H_    0.151989 0.595273 0.139626 0.412188
S24   S     S_3+6 0.699902 0.275834 0.916003 0.082675
O122  O     O_2   0.719805 0.328896 0.940949 -0.158060
O123  O     O_2   0.618913 0.270041 0.919822 -0.267477
O124  O     O_3   0.737785 0.232701 0.972227 -0.537806
H48   H     H_    0.726259 0.198915 0.950285 0.334606
C121  C     C_3   0.625722 0.308067 0.219572 -0.503023
H49   H     H_    0.628442 0.321461 0.162507 0.275158
H50   H     H_    0.580327 0.280255 0.221386 0.216415
H51   H     H_    0.616341 0.341296 0.255088 0.287388
C122  C     C_3   0.399817 0.716966 0.793999 -0.563195
H52   H     H_    0.403921 0.702471 0.850182 0.284688
H53   H     H_    0.409975 0.682649 0.760208 0.274911
H54   H     H_    0.443151 0.745711 0.785371 0.206953
C123  C     C_3   0.379888 0.301051 0.786744 -0.579108
H55   H     H_    0.376604 0.312462 0.844871 0.272552
H56   H     H_    0.420752 0.269825 0.783612 0.214230
H57   H     H_    0.398446 0.334565 0.755820 0.282727
C124  C     C_3   0.637875 0.672353 0.237325 -0.566667
H58   H     H_    0.651578 0.644899 0.193209 0.257617
H59   H     H_    0.642985 0.649894 0.288178 0.215517
H60   H     H_    0.581374 0.685723 0.229027 0.287359
C125  C     C_3   0.610937 0.720695 0.792928 -0.636764
H61   H     H_    0.611758 0.717356 0.853099 0.268703
H62   H     H_    0.577499 0.754894 0.780126 0.195600
H63   H     H_    0.585173 0.685620 0.770374 0.286997
C126  C     C_3   0.394739 0.288990 0.207761 -0.571367
H64   H     H_    0.398183 0.302482 0.150994 0.278787
H65   H     H_    0.397066 0.324386 0.240926 0.263186
H66   H     H_    0.441964 0.263766 0.218820 0.234170
C127  C     C_3   0.382674 0.705082 0.210515 -0.554866
H67   H     H_    0.380176 0.696391 0.151376 0.274401
H68   H     H_    0.422748 0.736429 0.217647 0.218228
H69   H     H_    0.400612 0.670407 0.238704 0.281961
C128  C     C_3   0.627412 0.318220 0.774283 -0.529042
H70   H     H_    0.636061 0.342443 0.823211 0.263417
H71   H     H_    0.632776 0.344933 0.727877 0.242201
H72   H     H_    0.571858 0.302024 0.776988 0.258820
C129  C     C_3   0.110636 0.779408 0.706846 -0.638828
H73   H     H_    0.111297 0.783043 0.646708 0.267287
H74   H     H_    0.077362 0.745175 0.719309 0.199497
H75   H     H_    0.084810 0.814397 0.729670 0.284559
C130  C     C_3   0.856500 0.167815 0.255709 -0.628817
H76   H     H_    0.839405 0.139547 0.297040 0.249032
H77   H     H_    0.849564 0.147995 0.202550 0.212061
H78   H     H_    0.914423 0.177140 0.265431 0.283815
C131  C     C_3   0.881327 0.797255 0.288458 -0.572772
H79   H     H_    0.879123 0.806708 0.347366 0.270273
H80   H     H_    0.922896 0.766763 0.281840 0.218275
H81   H     H_    0.896555 0.831891 0.258983 0.289877
C132  C     C_3   0.137103 0.173843 0.735173 -0.530065
H82   H     H_    0.150538 0.146901 0.690343 0.262120
H83   H     H_    0.143248 0.150953 0.785519 0.230581
H84   H     H_    0.080173 0.186737 0.727858 0.273151
C133  C     C_3   0.108941 0.237818 0.297720 -0.638234
H85   H     H_    0.110594 0.234669 0.357919 0.267288
H86   H     H_    0.083376 0.275164 0.284407 0.198666
H87   H     H_    0.074681 0.206509 0.276654 0.302596
C134  C     C_3   0.899217 0.783772 0.706368 -0.555176
H88   H     H_    0.902914 0.798292 0.650188 0.287857
H89   H     H_    0.908880 0.818186 0.740189 0.274349
H90   H     H_    0.943098 0.755313 0.715036 0.202430
C135  C     C_3   0.881294 0.201721 0.712182 -0.572477
H91   H     H_    0.878320 0.191698 0.653528 0.274088
H92   H     H_    0.920801 0.233631 0.716917 0.214480
H93   H     H_    0.901578 0.167762 0.741439 0.279096
C136  C     C_3   0.136244 0.826538 0.263994 -0.528112
H94   H     H_    0.149361 0.853772 0.308566 0.264707
H95   H     H_    0.140906 0.849528 0.213614 0.224991
H96   H     H_    0.080039 0.812638 0.271865 0.276632
S25   S     S_3+6 0.356665 0.948624 0.444225 0.127839
O125  O     O_2   0.380084 0.912764 0.384385 -0.296526
O126  O     O_2   0.310287 0.920160 0.497419 -0.153214
O127  O     O_3   0.307486 0.996056 0.407042 -0.498944
H97   H     H_    0.263634 0.979080 0.387226 0.409045
S26   S     S_3+6 0.643390 0.049430 0.446971 0.126847
O128  O     O_2   0.621432 0.085047 0.386797 -0.297104
O129  O     O_2   0.690040 0.077614 0.500779 -0.146681
O130  O     O_3   0.691467 0.000889 0.410592 -0.487977
H98   H     H_    0.735874 0.017030 0.391099 0.411554
S27   S     S_3+6 0.640126 0.949060 0.560844 0.129403
O131  O     O_2   0.689365 0.919688 0.510730 -0.149792
O132  O     O_2   0.682082 0.992040 0.595623 -0.238255
O133  O     O_3   0.610557 0.909914 0.626805 -0.566088
H99   H     H_    0.654899 0.893634 0.646624 0.392134
S28   S     S_3+6 0.356593 0.051712 0.554030 0.134837
O134  O     O_2   0.310580 0.081003 0.501086 -0.141049
O135  O     O_2   0.312170 0.009385 0.586354 -0.234945
O136  O     O_3   0.383341 0.091121 0.621698 -0.560365
H100  H     H_    0.337906 0.105259 0.642327 0.388488
S29   S     S_3+6 0.859284 0.448966 0.939016 0.124155
O137  O     O_2   0.884929 0.412946 0.880309 -0.303629
O138  O     O_2   0.810118 0.420793 0.989916 -0.160055
O139  O     O_3   0.812676 0.496903 0.899815 -0.457547
H101  H     H_    0.769477 0.480335 0.877954 0.402226
S30   S     S_3+6 0.142256 0.549856 0.943302 0.122260
O140  O     O_2   0.117871 0.584637 0.883058 -0.302807
O141  O     O_2   0.190313 0.579100 0.994742 -0.162696
O142  O     O_3   0.189831 0.501175 0.906627 -0.479784
H102  H     H_    0.228014 0.517750 0.877252 0.418490
S31   S     S_3+6 0.141279 0.449515 0.058384 0.123700
O143  O     O_2   0.189473 0.419645 0.007876 -0.157237
O144  O     O_2   0.184062 0.492651 0.091741 -0.219817
O145  O     O_3   0.112499 0.410967 0.125405 -0.567670
H103  H     H_    0.156765 0.393577 0.143401 0.380602
S32   S     S_3+6 0.856225 0.550782 0.052041 0.142044
O146  O     O_2   0.810228 0.579860 0.998877 -0.099762
O147  O     O_2   0.812260 0.507914 0.083621 -0.223889
O148  O     O_3   0.881831 0.590148 0.120201 -0.565697
H104  H     H_    0.836020 0.601830 0.142939 0.387074

loop_
_geom_bond_atom_site_label_1
_geom_bond_atom_site_label_2
_geom_bond_distance
_ccdc_geom_bond_type
C104  C109  1.419515 A    
Zn6   O16   1.946757 S    
S31   O143  1.501066 D    
C127  H67   1.110439 S    
Zn7   O13   1.950006 S    
O142  H102  0.990246 S    
O100  H40   0.990490 S    
S8    O76   1.679780 S    
Zn5   O51   1.946792 S    
O34   C11   1.293084 A    
C42   C50   1.415222 A    
C46   C47   1.400866 A    
S19   O108  1.501868 D    
C57   S13   1.768199 S    
C121  H49   1.109305 S    
C58   S14   1.787942 S    
C5    C92   1.472475 S    
C6    C91   1.466592 S    
O139  H101  0.990536 S    
C24   C51   1.497782 S    
S25   O126  1.501741 D    
C38   C39   1.410990 A    
O88   H36   0.990499 S    
Zn5   O20   1.943675 S    
C26   C43   1.414972 A    
S13   O91   1.684162 S    
Zn6   O19   1.943677 S    
O49   C23   1.288459 A    
S27   O133  1.682889 S    
C42   C43   1.420294 A    
C132  H84   1.110324 S    
C108  C111  1.419222 A    
C27   C35   1.419235 A    
C67   C100  1.408275 A    
C103  C110  1.416023 A    
O121  H47   0.990230 S    
O48   C22   1.293505 A    
C76   C92   1.424321 A    
S20   O112  1.683216 S    
C130  H78   1.110110 S    
C29   C37   1.399204 A    
C70   C86   1.425408 A    
O64   H4    0.990548 S    
C119  H27   1.110414 S    
S5    O67   1.682135 S    
C31   C39   1.414693 A    
C74   C90   1.425540 A    
O11   C7    1.287389 A    
C126  H65   1.104607 S    
C122  H52   1.104729 S    
C55   C88   1.408043 A    
S1    O54   1.502356 D    
C15   C98   1.482510 S    
C53   C86   1.409682 A    
S3    O59   1.501534 D    
C102  S26   1.780517 S    
S16   O100  1.683203 S    
C103  S27   1.784923 S    
Zn16  O33   1.950595 S    
C60   S16   1.782122 S    
C40   S6    1.789514 S    
C131  H81   1.094099 S    
C25   C33   1.412900 A    
S6    O68   1.502221 D    
C33   S3    1.779937 S    
O106  H42   0.990586 S    
C56   S12   1.784489 S    
O115  H45   0.990864 S    
Zn12  O24   1.943242 S    
C115  H15   1.101034 S    
O16   C12   1.284372 A    
C128  H71   1.109809 S    
O40   C18   1.287046 A    
S19   O107  1.501169 D    
C61   S17   1.784807 S    
Zn16  O4    1.957936 S    
O109  H43   0.990255 S    
C66   C97   1.416839 A    
C69   C85   1.418912 A    
C124  H60   1.109013 S    
C57   C81   1.389580 A    
C72   C88   1.420583 A    
C73   C89   1.412304 A    
O103  H41   0.990683 S    
S12   O87   1.503685 D    
C127  H69   1.095767 S    
Zn7   O3    1.951551 S    
C28   C36   1.406725 A    
C135  H91   1.109583 S    
C53   C77   1.391253 A    
S18   O104  1.500713 D    
O36   C9    1.287739 A    
C62   C70   1.416262 A    
C122  H54   1.109455 S    
C38   S8    1.786442 S    
C20   C111  1.468408 S    
C136  H94   1.108187 S    
C121  H51   1.096136 S    
S11   O84   1.501991 D    
S22   O118  1.683195 S    
C35   S1    1.789991 S    
Zn3   O10   1.945020 S    
S4    O62   1.500260 D    
C108  S32   1.783059 S    
O42   C20   1.285357 A    
C53   S9    1.776605 S    
S17   O103  1.683334 S    
C29   C117  1.508372 S    
C28   C41   1.415346 A    
C30   C38   1.413663 A    
O33   C12   1.287843 A    
Zn10  O22   1.945889 S    
O35   C10   1.281690 A    
C69   C121  1.499371 S    
C65   C98   1.410195 A    
Zn13  O29   1.945888 S    
C77   C93   1.413095 A    
C63   C96   1.409469 A    
Zn10  O2    1.961140 S    
C83   C99   1.417248 A    
O52   C24   1.294122 A    
Zn3   O1    1.951551 S    
C54   C78   1.400602 A    
O43   C19   1.286471 A    
S3    O61   1.681801 S    
C25   C44   1.421740 A    
C48   C52   1.441677 A    
C61   C69   1.390896 A    
C26   C34   1.399692 A    
C115  H16   1.108055 S    
O118  H46   0.990657 S    
C119  H29   1.110723 S    
O37   C17   1.286693 A    
S2    O56   1.501171 D    
C129  H73   1.110591 S    
C134  H89   1.103762 S    
C77   C129  1.514313 S    
Zn3   O5    1.950006 S    
C125  H61   1.110500 S    
C107  S31   1.782909 S    
C114  H14   1.111296 S    
C31   C46   1.419835 A    
Zn4   O9    1.945018 S    
O44   C20   1.287033 A    
S31   O144  1.502895 D    
C120  H30   1.101541 S    
C113  H9    1.109793 S    
C62   S18   1.788183 S    
C63   S19   1.779723 S    
S28   O134  1.501810 D    
S8    O75   1.496008 D    
C115  H17   1.109920 S    
O82   H34   0.990498 S    
O23   C6    1.280791 A    
Zn13  O41   1.949094 S    
C102  C103  1.393220 A    
C82   C98   1.425323 A    
O32   C13   1.286317 A    
C118  H24   1.109774 S    
Zn16  O44   1.950708 S    
C106  C107  1.394103 A    
S22   O117  1.503716 D    
C26   C114  1.508565 S    
C59   C83   1.392529 A    
C60   C84   1.397232 A    
S32   O148  1.683110 S    
C17   C110  1.465916 S    
C133  H87   1.101713 S    
C28   C116  1.513800 S    
C116  H18   1.110317 S    
C80   C132  1.513545 S    
C9    C96   1.469805 S    
C67   C75   1.388961 A    
C10   C95   1.471654 S    
C117  H21   1.110100 S    
S15   O97   1.683875 S    
S5    O66   1.498449 D    
S4    O64   1.681767 S    
S29   O138  1.501198 D    
S20   O111  1.503723 D    
S13   O89   1.499013 D    
C123  H56   1.110397 S    
C82   C134  1.517347 S    
C136  H96   1.109082 S    
C8    C89   1.466767 S    
C32   C40   1.419040 A    
C1    C88   1.465369 S    
C2    C87   1.470377 S    
C80   C96   1.421046 A    
C81   C97   1.408246 A    
C32   C120  1.510365 S    
C129  H75   1.109751 S    
O38   C18   1.285699 A    
O50   C24   1.283048 A    
C3    C86   1.485330 S    
O41   C19   1.284888 A    
O5    C1    1.279338 A    
S23   O120  1.501885 D    
S16   O99   1.503739 D    
S17   O101  1.501317 D    
Zn4   O6    1.950008 S    
C71   C87   1.417771 A    
O47   C21   1.293465 A    
O70   H6    0.990740 S    
O133  H99   0.990766 S    
C78   C130  1.517332 S    
C125  H63   1.109778 S    
C47   C51   1.412992 A    
S30   O140  1.503926 D    
C54   C85   1.419834 A    
C31   C119  1.517441 S    
O8    C4    1.290573 A    
C135  H92   1.110401 S    
S26   O128  1.503774 D    
C58   C89   1.419473 A    
C120  H32   1.109878 S    
S28   O136  1.683132 S    
C73   C125  1.514651 S    
O127  H97   0.990607 S    
S9    O79   1.684171 S    
C107  C112  1.417715 A    
C68   C99   1.416794 A    
Zn1   O1    1.962666 S    
C43   C49   1.439412 A    
C118  H26   1.109401 S    
S10   O80   1.500984 D    
Zn4   O2    1.951550 S    
C79   C95   1.414936 A    
S25   O125  1.503820 D    
C75   C127  1.505892 S    
C58   C82   1.415041 A    
C30   C47   1.416685 A    
C76   C128  1.513586 S    
C114  H13   1.098804 S    
O9    C5    1.279793 A    
S27   O132  1.502660 D    
C34   C35   1.407963 A    
C116  H20   1.110717 S    
C132  H83   1.110267 S    
C63   C71   1.393878 A    
C81   C133  1.510404 S    
S10   O82   1.682814 S    
S7    O73   1.681336 S    
O13   C9    1.280465 A    
O91   H37   0.990108 S    
S30   O142  1.681433 S    
C117  H23   1.111403 S    
S15   O95   1.501456 D    
C105  S29   1.782545 S    
S14   O92   1.501427 D    
O18   C14   1.282186 A    
C59   C92   1.408229 A    
O6    C2    1.285049 A    
C60   C91   1.418163 A    
C130  H77   1.110394 S    
C70   C122  1.516696 S    
C65   S21   1.777614 S    
C126  H64   1.105673 S    
C41   C49   1.429840 A    
S11   O83   1.500302 D    
Zn14  O30   1.945889 S    
S1    O53   1.502774 D    
Zn15  O3    1.957937 S    
C78   C94   1.424145 A    
C39   S5    1.772197 S    
C113  H11   1.109536 S    
C131  H80   1.110410 S    
S6    O69   1.502382 D    
C123  H57   1.101501 S    
Zn2   O2    1.962668 S    
C83   C135  1.513617 S    
C67   S23   1.779863 S    
Zn4   O46   1.952396 S    
O24   C5    1.289377 A    
C79   C131  1.502807 S    
Zn11  O26   1.950594 S    
C16   C97   1.461135 S    
C122  H53   1.102886 S    
C19   C112  1.466593 S    
C45   C51   1.413342 A    
S14   O94   1.683075 S    
Zn1   O12   1.943675 S    
C101  S25   1.784488 S    
Zn2   O11   1.943677 S    
C124  H59   1.110336 S    
C14   C99   1.466222 S    
S32   O147  1.503126 D    
O61   H3    0.990804 S    
C127  H68   1.110452 S    
C66   S22   1.787281 S    
S18   O105  1.503895 D    
C64   S20   1.781542 S    
S24   O124  1.682895 S    
C128  H72   1.110525 S    
S19   O109  1.683456 S    
C121  H50   1.109741 S    
Zn14  O42   1.949094 S    
Zn13  O3    1.961138 S    
C102  C109  1.418707 A    
Zn14  O4    1.961140 S    
S4    O63   1.500940 D    
S25   O127  1.681052 S    
O76   H8    0.990608 S    
O19   C15   1.291930 A    
S24   O122  1.501906 D    
C105  C112  1.416720 A    
C18   C109  1.469134 S    
S23   O119  1.499880 D    
S18   O106  1.682861 S    
O39   C17   1.284317 A    
O124  H48   0.990573 S    
C22   C49   1.501708 S    
Zn12  O25   1.950595 S    
O7    C3    1.290571 A    
Zn7   O49   1.952396 S    
Zn13  O36   1.946630 S    
Zn14  O35   1.946628 S    
O51   C23   1.293172 A    
O28   C1    1.286766 A    
C29   C48   1.416302 A    
C7    C90   1.478542 S    
O21   C8    1.288353 A    
C71   C123  1.511719 S    
C33   C36   1.403557 A    
C119  H28   1.105891 S    
Zn7   O18   1.945020 S    
C68   S24   1.788165 S    
C64   C95   1.418626 A    
C84   C100  1.420781 A    
C11   C94   1.463649 S    
S2    O57   1.498626 D    
O12   C8    1.285833 A    
C72   C124  1.513895 S    
C126  H66   1.110088 S    
Zn11  O39   1.950708 S    
C134  H88   1.104819 S    
S1    O55   1.679294 S    
Zn11  O1    1.957937 S    
C4    C85   1.476590 S    
C57   C90   1.401965 A    
Zn15  O43   1.950708 S    
C27   C115  1.510170 S    
C27   C42   1.430076 A    
C75   C91   1.414304 A    
Zn5   O3    1.962666 S    
C64   C72   1.398479 A    
Zn6   O4    1.962668 S    
C65   C73   1.389698 A    
C36   S2    1.769585 S    
C37   S7    1.769581 S    
Zn8   O14   1.950008 S    
S2    O58   1.681663 S    
S28   O135  1.502661 D    
C68   C76   1.401587 A    
S21   O113  1.496508 D    
S9    O77   1.496677 D    
O26   C3    1.289631 A    
C13   C100  1.463642 S    
O58   H2    0.990760 S    
S21   O114  1.503688 D    
O30   C15   1.290439 A    
S12   O86   1.501116 D    
C113  H10   1.100253 S    
C133  H86   1.110324 S    
C46   C52   1.430821 A    
S11   O85   1.683346 S    
O112  H44   0.990491 S    
Zn8   O50   1.952396 S    
S15   O96   1.501622 D    
S5    O65   1.501182 D    
Zn15  O31   1.943244 S    
Zn16  O32   1.943242 S    
S3    O60   1.496930 D    
S29   O137  1.503755 D    
C123  H55   1.109628 S    
O55   H1    0.990638 S    
C136  H95   1.110321 S    
Zn8   O4    1.951550 S    
C129  H74   1.110060 S    
O97   H39   0.990202 S    
Zn15  O34   1.950594 S    
C66   C74   1.411501 A    
C104  S28   1.785060 S    
O31   C14   1.283918 A    
C59   S15   1.778345 S    
O145  H103  0.990706 S    
C30   C118  1.515400 S    
S13   O90   1.497536 D    
C54   S10   1.787475 S    
S7    O71   1.499442 D    
C55   S11   1.781397 S    
S27   O131  1.501526 D    
C134  H90   1.109439 S    
Zn6   O52   1.946792 S    
C125  H62   1.110071 S    
S30   O141  1.500946 D    
Zn1   O47   1.946792 S    
O45   C21   1.283071 A    
S26   O129  1.499999 D    
O22   C7    1.293429 A    
Zn3   O45   1.952396 S    
S31   O145  1.682966 S    
C120  H31   1.107845 S    
S8    O74   1.501979 D    
Zn2   O48   1.946792 S    
S24   O123  1.503694 D    
C41   C44   1.403071 A    
S9    O78   1.504400 D    
O73   H7    0.990547 S    
S21   O115  1.682660 S    
C106  S30   1.782504 S    
O94   H38   0.990677 S    
C118  H25   1.100275 S    
S10   O81   1.503666 D    
S22   O116  1.502386 D    
C84   C136  1.514245 S    
C135  H93   1.103801 S    
S26   O130  1.681394 S    
O136  H100  0.990545 S    
S12   O88   1.683023 S    
O79   H33   0.990127 S    
Zn9   O21   1.945888 S    
C114  H12   1.110283 S    
C37   C40   1.406647 A    
O67   H5    0.990397 S    
Zn11  O23   1.943244 S    
C116  H19   1.103634 S    
C132  H82   1.108431 S    
Zn12  O40   1.950708 S    
O25   C4    1.285933 A    
C62   C93   1.419640 A    
Zn9   O1    1.961138 S    
S7    O72   1.500654 D    
C55   C79   1.390391 A    
Zn1   O7    1.946759 S    
O27   C2    1.283647 A    
C117  H22   1.099961 S    
Zn2   O8    1.946757 S    
C101  C104  1.395582 A    
S14   O93   1.503858 D    
C56   C87   1.418132 A    
O29   C16   1.284315 A    
C101  C110  1.419574 A    
S29   O139  1.681612 S    
S20   O110  1.500905 D    
C130  H76   1.108985 S    
C105  C108  1.394306 A    
S32   O146  1.501446 D    
Zn9   O28   1.946630 S    
C56   C80   1.399090 A    
Zn10  O27   1.946628 S    
C32   C45   1.430737 A    
C34   S4    1.768680 S    
O15   C11   1.276465 A    
C128  H70   1.107860 S    
S23   O121  1.683398 S    
S16   O98   1.501083 D    
C45   C48   1.421137 A    
S17   O102  1.502639 D    
C131  H79   1.110376 S    
C44   C50   1.413573 A    
S6    O70   1.679422 S    
C133  H85   1.110894 S    
O20   C16   1.287336 A    
O46   C22   1.289233 A    
O10   C6    1.285821 A    
C61   C94   1.404340 A    
O130  H98   0.990583 S    
Zn8   O17   1.945018 S    
Zn10  O38   1.949094 S    
C12   C93   1.469874 S    
O85   H35   0.990170 S    
O148  H104  0.990472 S    
O14   C10   1.287675 A    
Zn9   O37   1.949094 S    
C21   C50   1.496637 S    
C74   C126  1.509604 S    
Zn12  O2    1.957936 S    
C23   C52   1.499102 S    
C25   C113  1.513498 S    
C124  H58   1.108405 S    
O17   C13   1.278754 A    
C106  C111  1.417944 A    
Zn5   O15   1.946759 S    
