data_mof_unit_52947.cif
_audit_creation_date              2012-12-11T15:28:36-0500
_audit_creation_method            fapswitch 2.2
_symmetry_space_group_name_H-M    P1
_symmetry_Int_Tables_number       1
_space_group_crystal_system       triclinic
_cell_length_a                    6.953849
_cell_length_b                    19.582095
_cell_length_c                    23.428133
_cell_angle_alpha                 96.15985
_cell_angle_beta                  91.089081
_cell_angle_gamma                 88.764774
_cell_volume                      3170.62726884

loop_
_atom_site_label
_atom_site_type_symbol
_atom_type_description
_atom_site_fract_x
_atom_site_fract_y
_atom_site_fract_z
_atom_type_partial_charge
O1    O     O_R   0.617180 0.809390 0.808140 -0.516704
O2    O     O_R   0.382820 0.190610 0.191860 -0.514991
O3    O     O_R   0.293300 0.672410 0.795490 -0.534201
O4    O     O_R   0.706700 0.327590 0.204510 -0.540113
O5    O     O_R   0.117220 0.690610 0.691850 -0.522184
O6    O     O_R   0.882780 0.309390 0.308150 -0.522628
C1    C     C_R   0.464861 0.647905 0.805335 0.697000
C2    C     C_R   0.535680 0.352189 0.195017 0.706762
O7    O     O_R   0.287840 0.807750 0.814460 -0.528992
O8    O     O_R   0.712160 0.192250 0.185540 -0.530256
O9    O     O_R   0.111720 0.826910 0.710960 -0.540078
O10   O     O_R   0.888280 0.173090 0.289040 -0.539761
C3    C     C_R   0.456505 0.830823 0.833143 0.718228
C4    C     C_R   0.543481 0.169219 0.166831 0.718358
O11   O     O_R   0.622680 0.673080 0.789040 -0.536822
O12   O     O_R   0.377320 0.326920 0.210960 -0.531794
O13   O     O_3   0.448820 0.756130 0.716020 -0.358399
O14   O     O_3   0.551180 0.243870 0.283980 -0.359923
V1    V     V_3+5 0.176220 0.748860 0.756300 1.400219
V2    V     V_3+5 0.823780 0.251140 0.243700 1.396900
O15   O     O_R   0.781670 0.827580 0.704500 -0.523951
O16   O     O_R   0.218330 0.172420 0.295500 -0.526244
C5    C     C_R   0.948173 0.851751 0.694005 0.753014
C6    C     C_R   0.051852 0.148212 0.305963 0.754868
O17   O     O_R   0.787130 0.692240 0.685530 -0.526641
O18   O     O_R   0.212870 0.307760 0.314470 -0.526786
C7    C     C_R   0.956125 0.669280 0.666755 0.712180
C8    C     C_R   0.043887 0.330765 0.333217 0.714550
V3    V     V_3+5 0.675510 0.751130 0.743690 1.424564
V4    V     V_3+5 0.324490 0.248870 0.256310 1.426515
O19   O     O_3   0.952780 0.743870 0.783980 -0.360707
O20   O     O_3   0.047220 0.256130 0.216020 -0.361656
C9    C     C_1   0.966712 0.617304 0.614653 -0.218804
C10   C     C_1   0.033352 0.382844 0.385256 -0.215836
C11   C     C_1   0.978302 0.573828 0.571815 -0.005965
C12   C     C_1   0.021821 0.426395 0.428047 -0.004124
C13   C     C_1   0.993520 0.522015 0.521219 -0.005322
C14   C     C_1   0.006645 0.478256 0.478613 -0.005652
C15   C     C_R   0.948558 0.914280 0.663573 -0.113658
C16   C     C_R   0.052341 0.084580 0.334909 -0.110581
C17   C     C_R   0.884474 0.035886 0.662095 -0.210855
C18   C     C_R   0.113917 0.962232 0.332528 -0.210935
C19   C     C_R   0.885613 0.977600 0.691612 0.293644
C20   C     C_R   0.104326 0.021471 0.304173 0.291557
C21   C     C_R   0.001728 0.910076 0.605554 -0.249880
C22   C     C_R   0.015430 0.087304 0.394050 -0.246422
C23   C     C_R   0.984593 0.967718 0.573081 0.104143
C24   C     C_R   0.041893 0.028384 0.424649 0.094198
C25   C     C_R   0.938297 0.031788 0.604333 0.052887
C26   C     C_R   0.079135 0.965054 0.391592 0.041067
C27   C     C_R   0.015649 0.965448 0.511805 -0.037089
C28   C     C_R   0.024892 0.029406 0.486100 -0.026266
C29   C     C_R   0.019337 0.092082 0.523095 0.292195
C30   C     C_R   0.032038 0.902708 0.474651 0.293863
C31   C     C_R   0.958303 0.092478 0.579397 -0.250619
C32   C     C_R   0.072244 0.903981 0.416568 -0.234082
H1    H     H_    0.941528 0.141313 0.605608 0.121655
H2    H     H_    0.086320 0.855741 0.389449 0.132353
H3    H     H_    0.962086 0.135708 0.414480 0.163716
H4    H     H_    0.061632 0.861567 0.588360 0.175921
H5    H     H_    0.844683 0.085153 0.684912 0.115078
H6    H     H_    0.146707 0.913363 0.307962 0.114094
C33   C     C_R   0.487841 0.586257 0.836121 -0.103114
C34   C     C_R   0.520510 0.413194 0.163584 -0.095133
C35   C     C_R   0.630134 0.472469 0.835973 -0.174730
C36   C     C_R   0.486658 0.536618 0.168087 -0.163949
C37   C     C_R   0.587234 0.529991 0.808108 -0.216156
C38   C     C_R   0.509926 0.477485 0.195473 -0.219499
C39   C     C_R   0.431439 0.584880 0.893862 0.206442
C40   C     C_R   0.509748 0.407798 0.102825 0.215690
C41   C     C_R   0.499971 0.529997 0.925415 0.045940
C42   C     C_R   0.508247 0.468932 0.074094 0.048187
C43   C     C_R   0.589292 0.472076 0.894140 0.098190
C44   C     C_R   0.484591 0.532995 0.108058 0.098122
C45   C     C_R   0.489481 0.530809 0.986727 0.051329
C46   C     C_R   0.530781 0.469383 0.013309 0.053257
C47   C     C_R   0.614543 0.413059 0.979495 -0.153265
C48   C     C_R   0.462603 0.592536 0.022819 -0.154423
C49   C     C_R   0.644757 0.414789 0.921403 -0.213760
C50   C     C_R   0.462991 0.593566 0.082109 -0.207879
H7    H     H_    0.715889 0.371065 0.897713 0.125390
H8    H     H_    0.447872 0.642639 0.108018 0.123656
H9    H     H_    0.514669 0.481725 0.241982 0.119908
H10   H     H_    0.630369 0.530394 0.763927 0.125662
H11   H     H_    0.702806 0.429006 0.812430 0.123330
H12   H     H_    0.472860 0.585672 0.194063 0.121189
H13   H     H_    0.674621 0.369027 0.997862 0.168218
H14   H     H_    0.458066 0.642012 0.006681 0.166014
C51   C     C_1   0.467227 0.882947 0.885150 -0.219036
C52   C     C_1   0.532744 0.117171 0.114782 -0.216817
C53   C     C_1   0.478661 0.926481 0.927960 -0.003327
C54   C     C_1   0.521316 0.073683 0.071944 -0.002957
C55   C     C_1   0.493568 0.978256 0.978604 -0.006027
C56   C     C_1   0.506415 0.021932 0.021285 -0.006353
N1    N     N_2   0.147238 0.017029 0.244607 -0.534958
H15   H     H_    0.239686 0.977314 0.230011 0.250580
C57   C     C_3   0.986596 0.026828 0.205724 -0.519820
H16   H     H_    0.958227 0.978165 0.178187 0.180963
H17   H     H_    0.022799 0.066894 0.177801 0.205296
H18   H     H_    0.852412 0.043031 0.228965 0.189087
N2    N     N_2   0.825281 0.983396 0.749784 -0.532413
H19   H     H_    0.728095 0.022846 0.761168 0.250897
C58   C     C_3   0.974149 0.975640 0.792956 -0.523694
H20   H     H_    0.994386 0.025224 0.819999 0.182270
H21   H     H_    0.114808 0.959186 0.773639 0.188096
H22   H     H_    0.929801 0.936552 0.820811 0.204982
N3    N     N_2   0.091514 0.154429 0.506444 -0.540953
H23   H     H_    0.034706 0.198559 0.528400 0.252111
C59   C     C_3   0.298978 0.155904 0.503015 -0.542434
H24   H     H_    0.341650 0.204572 0.486883 0.193412
H25   H     H_    0.353801 0.112471 0.472901 0.213206
H26   H     H_    0.365733 0.152948 0.546191 0.195777
N4    N     N_2   0.985896 0.838096 0.492793 -0.534693
H27   H     H_    0.859866 0.818621 0.474409 0.260524
C60   C     C_3   0.141244 0.787315 0.489954 -0.592517
H28   H     H_    0.099468 0.743442 0.513091 0.203724
H29   H     H_    0.273933 0.809719 0.510758 0.208916
H30   H     H_    0.171229 0.767591 0.444723 0.194714
N5    N     N_2   0.478965 0.342123 0.071772 -0.548605
H31   H     H_    0.546152 0.301238 0.088766 0.239100
C61   C     C_3   0.280404 0.329024 0.055497 -0.533521
H32   H     H_    0.270999 0.278676 0.028951 0.193319
H33   H     H_    0.221958 0.369417 0.029725 0.208337
H34   H     H_    0.192123 0.327586 0.094394 0.199372
N6    N     N_2   0.296632 0.635099 0.918213 -0.550121
H35   H     H_    0.308197 0.683553 0.905418 0.247351
C62   C     C_3   0.100424 0.611869 0.917639 -0.494384
H36   H     H_    0.007296 0.652527 0.940185 0.186363
H37   H     H_    0.091247 0.564925 0.940146 0.204689
H38   H     H_    0.046447 0.600736 0.872706 0.200323

loop_
_geom_bond_atom_site_label_1
_geom_bond_atom_site_label_2
_ccdc_geom_bond_type
C36   C38   A    
C21   H4    S    
N2    H19   S    
C22   H3    S    
O13   V3    S    
N1    H15   S    
C17   H5    S    
C42   C46   A    
V1    O19   S    
C62   H37   S    
C57   H16   S    
C23   C25   A    
C7    C9    S    
C16   C22   A    
O9    V1    S    
C55   C56   T    
C34   C38   A    
C11   C13   S    
O3    C1    A    
C59   H25   S    
C9    C11   T    
C48   C50   A    
O12   V4    S    
C60   H28   S    
C36   C44   A    
C30   N4    S    
C35   C43   A    
O9    C5    A    
C39   C41   A    
O7    C3    A    
C4    C52   S    
C61   H34   S    
C6    C16   S    
O5    C7    A    
O7    V1    S    
O6    C8    A    
C33   C39   A    
O8    V2    S    
C35   C37   A    
N3    H23   S    
O3    V1    S    
O14   V4    S    
C34   C40   A    
C51   C53   T    
C18   H6    S    
C10   C12   T    
O4    C2    A    
C15   C21   A    
C21   C23   A    
C8    C10   S    
C37   H10   S    
C2    O12   A    
C44   C50   A    
C17   C19   A    
C18   C20   A    
C17   C25   A    
C57   H17   S    
O11   V3    S    
C22   C24   A    
C29   C31   A    
O17   V3    S    
C33   C37   A    
C27   C28   A    
V4    O20   S    
C46   C47   A    
C42   C44   A    
O8    C4    A    
C59   H26   S    
C49   H7    S    
C15   C19   A    
C1    O11   A    
C60   H29   S    
C25   C31   A    
O15   V3    S    
C26   C32   A    
C45   C46   A    
C19   N2    S    
C13   C14   T    
C53   C55   S    
C29   N3    S    
C52   C54   T    
C16   C20   A    
C40   N5    S    
C60   H30   S    
O10   V2    S    
O1    V3    S    
C43   C49   A    
C47   C49   A    
C58   H21   S    
C1    C33   S    
C61   H32   S    
N5    C61   S    
C2    C34   S    
C50   H8    S    
C18   C26   A    
O18   V4    S    
O15   C5    A    
N6    H35   S    
O16   C6    A    
O1    C3    A    
C62   H36   S    
C57   H18   S    
C28   C29   A    
C41   C43   A    
N4    H27   S    
V2    O20   S    
C48   H14   S    
O16   V4    S    
C3    C51   S    
C38   H9    S    
C36   H12   S    
C23   C27   A    
N5    H31   S    
N1    C57   S    
C30   C32   A    
C35   H11   S    
O5    V1    S    
O17   C7    A    
O6    V2    S    
O10   C6    A    
O18   C8    A    
O2    V4    S    
C27   C30   A    
C31   H1    S    
C62   H38   S    
V3    O19   S    
C20   N1    S    
C59   H24   S    
C12   C14   S    
C41   C45   A    
C54   C56   S    
N3    C59   S    
C5    C15   S    
C24   C26   A    
O13   V1    S    
C32   H2    S    
C58   H22   S    
O14   V2    S    
O2    C4    A    
C45   C48   A    
C61   H33   S    
C39   N6    S    
O4    V2    S    
C24   C28   A    
C47   H13   S    
N2    C58   S    
C58   H20   S    
N6    C62   S    
C40   C42   A    
N4    C60   S    
