data_mof_unit_21144.cif
_audit_creation_date              2012-12-10T18:12:32-0500
_audit_creation_method            fapswitch 2.2
_symmetry_space_group_name_H-M    P1
_symmetry_Int_Tables_number       1
_space_group_crystal_system       triclinic
_cell_length_a                    12.714926
_cell_length_b                    13.273129
_cell_length_c                    15.720071
_cell_angle_alpha                 91.670885
_cell_angle_beta                  103.494128
_cell_angle_gamma                 82.364599
_cell_volume                      2556.90900182

loop_
_atom_site_label
_atom_site_type_symbol
_atom_type_description
_atom_site_fract_x
_atom_site_fract_y
_atom_site_fract_z
_atom_type_partial_charge
C1    C     C_R   0.439162 0.690517 0.491203 0.872276
C2    C     C_R   0.596562 0.200801 0.520366 -0.086337
C3    C     C_R   0.333007 0.820029 0.560346 -0.296509
C4    C     C_R   0.501769 0.500458 0.661874 0.901556
C5    C     C_R   0.339647 0.907003 0.612293 0.493503
C6    C     C_R   0.414406 0.971939 0.604767 -0.237560
C7    C     C_R   0.472162 0.960671 0.537298 -0.027544
C8    C     C_R   0.467157 0.870221 0.487444 0.079823
C9    C     C_R   0.540273 0.031878 0.520888 0.053704
C10   C     C_R   0.616595 0.999772 0.468542 0.154313
C11   C     C_R   0.611501 0.909163 0.422089 -0.240889
C12   C     C_3   0.504868 0.496280 0.917543 0.081756
C13   C     C_R   0.532498 0.849143 0.426510 -0.169238
C14   C     C_R   0.530564 0.135679 0.547138 -0.061767
C15   C     C_R   0.683178 0.161971 0.483531 -0.215186
C16   C     C_R   0.560631 0.309614 0.512983 0.870863
C17   C     C_R   0.403967 0.797370 0.504508 -0.132567
C18   C     C_R   0.086574 0.342407 0.381893 -0.289458
C19   C     C_R   0.808621 0.620398 0.612205 0.062102
C20   C     C_R   0.917714 0.639089 0.638402 -0.106317
C21   C     C_R   0.993557 0.588537 0.597015 -0.188171
C22   C     C_R   0.962358 0.526221 0.524443 0.045624
C23   C     C_3   0.473680 0.407860 0.017969 0.435046
C24   C     C_R   0.852463 0.505659 0.502073 0.172178
C25   C     C_R   0.039219 0.476955 0.478917 -0.040744
C26   C     C_R   0.008594 0.396624 0.420849 -0.043503
C27   C     C_R   0.900278 0.373458 0.401895 -0.015938
C28   C     C_R   0.498422 0.498915 0.338113 0.887423
C29   C     C_R   0.824254 0.429133 0.441651 -0.241191
C30   C     C_R   0.145968 0.504530 0.489246 0.442358
C31   C     C_R   0.192680 0.365275 0.400826 0.493773
C32   C     C_3   0.431080 0.570037 0.015266 0.455583
C33   C     C_3   0.532033 0.584485 0.981263 -0.205342
C34   C     C_3   0.499862 0.493498 0.082870 0.137197
C35   C     C_1   0.505762 0.499814 0.751553 -0.174714
C36   C     C_1   0.495685 0.495769 0.248517 -0.157977
C37   C     C_3   0.401580 0.484065 0.949836 -0.312816
C38   C     C_R   0.444699 0.182430 0.592002 0.103969
C39   C     C_R   0.474842 0.224893 0.675756 -0.186411
C40   C     C_R   0.394857 0.269988 0.717718 -0.106642
C41   C     C_R   0.284518 0.274648 0.675946 -0.089451
C42   C     C_R   0.253802 0.233546 0.592366 -0.137995
C43   C     C_R   0.333373 0.188076 0.550169 -0.049493
C44   C     C_R   0.861774 0.292404 0.339954 0.115013
C45   C     C_3   0.575959 0.417413 0.983904 -0.236617
C46   C     C_R   0.902610 0.189802 0.358476 -0.184900
C47   C     C_R   0.863209 0.113850 0.300918 -0.143214
C48   C     C_R   0.781721 0.139599 0.225425 -0.097015
C49   C     C_R   0.739676 0.241412 0.207161 -0.119329
C50   C     C_R   0.779313 0.317620 0.264227 -0.156085
C51   C     C_R   0.737323 0.657725 0.671355 0.197765
C52   C     C_R   0.676723 0.754597 0.659318 -0.139717
C53   C     C_R   0.627073 0.797856 0.724690 -0.144643
C54   C     C_R   0.638089 0.745328 0.802590 -0.114452
C55   C     C_R   0.701144 0.650295 0.816329 -0.142181
C56   C     C_3   0.602290 0.505573 0.049607 -0.296421
C57   C     C_R   0.751735 0.607180 0.751587 -0.110881
C58   C     C_R   0.956470 0.705906 0.713301 0.132802
C59   C     C_R   0.925583 0.811469 0.706890 -0.126701
C60   C     C_R   0.962373 0.874286 0.777533 -0.127944
C61   C     C_R   0.030632 0.832205 0.854651 -0.096303
C62   C     C_R   0.062372 0.727238 0.861187 -0.132654
C63   C     C_R   0.025738 0.664165 0.790701 -0.173378
C64   C     C_1   0.506635 0.498379 0.827032 -0.052565
C65   C     C_1   0.496341 0.493852 0.173217 0.036034
C66   C     C_R   0.692864 0.061727 0.457354 -0.196787
H1    H     H_    0.554398 0.658165 0.964428 0.141496
H2    H     H_    0.319826 0.475425 0.908118 0.146766
H3    H     H_    0.735461 0.211710 0.465540 0.167640
H4    H     H_    0.665366 0.887068 0.378596 0.151139
H5    H     H_    0.754147 0.035121 0.421340 0.147904
H6    H     H_    0.560106 0.222337 0.708577 0.120067
H7    H     H_    0.418403 0.301515 0.782605 0.127647
H8    H     H_    0.222802 0.310063 0.708380 0.119089
H9    H     H_    0.168289 0.237095 0.560197 0.126723
H10   H     H_    0.308673 0.156470 0.485401 0.164470
H11   H     H_    0.232942 0.872855 0.673690 0.334328
H12   H     H_    0.283775 0.763942 0.572580 0.174447
H13   H     H_    0.325944 0.342537 0.361259 0.390013
H14   H     H_    0.964494 0.168838 0.417491 0.137313
H15   H     H_    0.895189 0.034921 0.315236 0.136465
H16   H     H_    0.750924 0.080631 0.181235 0.132149
H17   H     H_    0.676279 0.261307 0.148881 0.164488
H18   H     H_    0.745828 0.396231 0.249509 0.134750
H19   H     H_    0.243724 0.587579 0.559360 0.363272
H20   H     H_    0.672451 0.798266 0.601331 0.141988
H21   H     H_    0.583172 0.873537 0.716532 0.145267
H22   H     H_    0.599954 0.779398 0.853115 0.132633
H23   H     H_    0.430702 0.026204 0.656688 0.178752
H24   H     H_    0.712166 0.610623 0.877585 0.142162
H25   H     H_    0.803470 0.534956 0.764195 0.117054
H26   H     H_    0.326853 0.687664 0.979056 0.325258
H27   H     H_    0.873423 0.844974 0.647217 0.125062
H28   H     H_    0.938146 0.955601 0.772428 0.134390
H29   H     H_    0.059074 0.880935 0.909275 0.138061
H30   H     H_    0.115233 0.694722 0.920893 0.154448
H31   H     H_    0.050601 0.582905 0.796526 0.124915
H32   H     H_    0.433169 0.275718 0.985509 0.328129
H33   H     H_    0.526483 0.782806 0.384713 0.157706
H34   H     H_    0.066689 0.281665 0.336000 0.200525
H35   H     H_    0.077677 0.594088 0.627506 0.195509
H36   H     H_    0.744512 0.406616 0.427939 0.212964
H37   H     H_    0.683709 0.514074 0.091949 0.165109
H38   H     H_    0.634672 0.353544 0.969028 0.146727
N1    N     N_R   0.222180 0.444680 0.455580 -0.192924
N2    N     N_R   0.776980 0.554790 0.543960 -0.143818
O1    O     O_R   0.366730 0.627160 0.478790 -0.598714
O2    O     O_3   0.263935 0.306058 0.360611 -0.770972
O3    O     O_3   0.168724 0.597585 0.523253 -0.788728
O4    O     O_3   0.356290 0.649334 0.034534 -0.762473
O5    O     O_3   0.443982 0.316178 0.040142 -0.759987
O6    O     O_R   0.544830 0.662520 0.507160 -0.615784
O7    O     O_R   0.410960 0.482330 0.609040 -0.638216
O8    O     O_R   0.589060 0.517690 0.637410 -0.609514
O9    O     O_R   0.455170 0.337480 0.492840 -0.606205
O10   O     O_R   0.633270 0.372840 0.521210 -0.645532
O11   O     O_R   0.410940 0.482310 0.362590 -0.621754
O12   O     O_R   0.589040 0.517670 0.390960 -0.638305
O13   O     O_3   0.281466 0.926082 0.676241 -0.768136
Zn1   Zn    Zn3+2 0.381080 0.476390 0.481050 0.965032
Zn2   Zn    Zn3+2 0.618920 0.523610 0.518950 0.930088

loop_
_geom_bond_atom_site_label_1
_geom_bond_atom_site_label_2
_ccdc_geom_bond_type
C54   H22   S    
C34   C56   S    
C8    C13   A    
C23   C45   S    
C62   H30   S    
C27   C29   A    
C31   O2    S    
C19   C20   A    
C18   C26   A    
C11   H4    S    
C50   H18   S    
C7    C8    A    
C53   C54   A    
C42   H9    S    
C32   O4    S    
C5    O13   S    
C4    O8    A    
C55   H24   S    
H19   O3    S    
C28   O11   A    
C1    O6    A    
C38   C39   A    
C12   C64   S    
C37   H2    S    
C25   C30   A    
C40   H7    S    
C41   C42   A    
C12   C37   S    
C24   C29   A    
C41   H8    S    
C46   C47   A    
O8    Zn2   S    
C27   C44   S    
C47   C48   A    
C45   C56   S    
C22   C25   A    
H13   O2    S    
C39   H6    S    
N1    Zn1   S    
C35   C64   T    
C51   C57   A    
C2    C16   S    
C9    C10   A    
C21   H35   S    
C33   C56   S    
C4    C35   S    
C59   C60   A    
C21   C22   A    
C31   N1    A    
C18   H34   S    
C16   O10   A    
C34   C65   S    
C44   C46   A    
C10   C66   A    
C15   H3    S    
O10   Zn2   S    
C30   O3    S    
C51   C52   A    
C4    O7    A    
O11   Zn1   S    
C39   C40   A    
C36   C65   T    
C3    C5    A    
C25   C26   A    
C23   C37   S    
C15   C66   A    
C60   C61   A    
O12   Zn2   S    
C32   C34   S    
C13   H33   S    
C9    C14   A    
C62   C63   A    
C45   H38   S    
C14   C38   S    
O7    Zn1   S    
C66   H5    S    
C23   C34   S    
C26   C27   A    
C53   H21   S    
C32   C37   S    
C2    C15   A    
C1    O1    A    
C48   C49   A    
C49   C50   A    
C55   C57   A    
C30   N1    A    
C22   C24   A    
C24   N2    A    
C42   C43   A    
C20   C58   S    
C16   O9    A    
O1    Zn1   S    
C52   C53   A    
C33   H1    S    
C44   C50   A    
C58   C63   A    
C7    C9    A    
C54   C55   A    
C40   C41   A    
H32   O5    S    
C57   H25   S    
C56   H37   S    
C12   C45   S    
H11   O13   S    
C61   H29   S    
C6    C7    A    
C6    H23   S    
C23   O5    S    
C1    C17   S    
C8    C17   A    
C32   C33   S    
C49   H17   S    
C52   H20   S    
C58   C59   A    
O6    Zn2   S    
C63   H31   S    
C28   O12   A    
C46   H14   S    
C11   C13   A    
H26   O4    S    
C5    C6    A    
N2    Zn2   S    
C48   H16   S    
C29   H36   S    
C3    C17   A    
C47   H15   S    
C61   C62   A    
C2    C14   A    
C10   C11   A    
C19   N2    A    
C19   C51   S    
C38   C43   A    
C20   C21   A    
C28   C36   S    
O9    Zn1   S    
C43   H10   S    
C18   C31   A    
C59   H27   S    
C12   C33   S    
C3    H12   S    
C60   H28   S    
