data_mof_unit_25247.cif
_audit_creation_date              2012-12-10T20:52:12-0500
_audit_creation_method            fapswitch 2.2
_symmetry_space_group_name_H-M    P1
_symmetry_Int_Tables_number       1
_space_group_crystal_system       triclinic
_cell_length_a                    10.974317
_cell_length_b                    9.006386
_cell_length_c                    8.438117
_cell_angle_alpha                 91.341641
_cell_angle_beta                  95.122068
_cell_angle_gamma                 91.225567
_cell_volume                      830.225449531

loop_
_atom_site_label
_atom_site_type_symbol
_atom_type_description
_atom_site_fract_x
_atom_site_fract_y
_atom_site_fract_z
_atom_type_partial_charge
C1    C     C_R   0.499795 0.219191 0.498802 0.909022
C2    C     C_R   0.739971 0.493840 0.505190 0.881300
C3    C     C_R   0.196902 0.616023 0.041620 0.406327
C4    C     C_R   0.800447 0.380044 0.958060 0.383800
C5    C     C_R   0.119952 0.603336 0.160406 -0.181708
C6    C     C_R   0.877899 0.390297 0.839398 -0.163657
C7    C     C_R   0.083924 0.462004 0.205359 -0.044070
C8    C     C_R   0.916399 0.530753 0.794461 -0.046242
C9    C     C_R   0.101614 0.335319 0.113713 -0.196492
C10   C     C_R   0.901081 0.657999 0.885880 -0.204239
C11   C     C_R   0.169529 0.349546 0.984053 0.330920
C12   C     C_R   0.500185 0.780811 0.501188 0.932639
C13   C     C_R   0.833243 0.646052 0.015525 0.351818
C14   C     C_R   0.225164 0.486929 0.960314 -0.342737
C15   C     C_R   0.774878 0.510363 0.039494 -0.361588
C16   C     C_R   0.924470 0.432103 0.376444 -0.151073
C17   C     C_R   0.075222 0.562436 0.623055 -0.144174
C18   C     C_R   0.873855 0.485186 0.510342 -0.071282
C19   C     C_R   0.125952 0.509710 0.489312 -0.076751
C20   C     C_R   0.952475 0.541596 0.637605 0.076146
C21   C     C_R   0.047660 0.451220 0.362354 0.083276
C22   C     C_1   0.499936 0.065296 0.498339 -0.069753
C23   C     C_1   0.500073 0.934709 0.501611 -0.061053
C24   C     C_R   0.259951 0.504700 0.494646 0.904556
H1    H     H_    0.290843 0.493743 0.881260 0.225472
H2    H     H_    0.696528 0.199482 0.241746 0.361008
H3    H     H_    0.349140 0.149425 0.021685 0.355387
H4    H     H_    0.654035 0.849147 0.984250 0.375467
H5    H     H_    0.709144 0.506131 0.118675 0.220432
H6    H     H_    0.100590 0.700233 0.231716 0.212511
H7    H     H_    0.895557 0.292743 0.768088 0.206333
H8    H     H_    0.068427 0.227506 0.147635 0.231250
H9    H     H_    0.936192 0.764810 0.851687 0.226372
H10   H     H_    0.867573 0.384456 0.278598 0.184354
H11   H     H_    0.131791 0.612028 0.720179 0.191849
H12   H     H_    0.437868 0.893260 0.087356 0.406145
N1    N     N_1   0.500020 0.500030 0.073640 -0.003769
N2    N     N_1   0.499980 0.499970 0.926360 -0.001827
O1    O     O_R   0.499990 0.285340 0.636850 -0.530949
O2    O     O_2   0.209286 0.907546 0.106318 -0.287719
O3    O     O_3   0.415127 0.789332 0.054568 -0.531087
O4    O     O_2   0.593002 0.216747 0.961226 -0.300231
O5    O     O_2   0.772894 0.089971 0.883641 -0.247110
O6    O     O_3   0.762857 0.159267 0.182591 -0.481834
O7    O     O_2   0.094838 0.078153 0.877964 -0.191548
O8    O     O_2   0.182509 0.240304 0.688574 -0.291165
O9    O     O_3   0.331587 0.128728 0.906004 -0.429776
O10   O     O_2   0.830833 0.758887 0.310987 -0.288114
O11   O     O_2   0.908621 0.919923 0.112317 -0.180085
O12   O     O_R   0.500010 0.714660 0.363150 -0.555109
O13   O     O_3   0.673227 0.865584 0.100362 -0.453419
O14   O     O_R   0.500010 0.285350 0.363100 -0.653127
O15   O     O_R   0.499990 0.714650 0.636900 -0.597676
O16   O     O_R   0.316750 0.500000 0.636870 -0.618703
O17   O     O_R   0.683250 0.500000 0.363130 -0.638264
O18   O     O_R   0.316770 0.500020 0.363120 -0.628137
O19   O     O_R   0.683230 0.499980 0.636880 -0.629555
O20   O     O_2   0.241896 0.826761 0.833420 -0.234765
S1    S     S_3+6 0.263805 0.790377 0.006165 0.053081
S2    S     S_3+6 0.729263 0.207737 0.992877 0.056209
S3    S     S_3+6 0.191492 0.195453 0.859107 0.096387
S4    S     S_3+6 0.814861 0.801461 0.139751 0.096619
Zn1   Zn    Zn3+2 0.499990 0.499990 0.682780 1.084841
Zn2   Zn    Zn3+2 0.500010 0.500010 0.317220 1.045267

loop_
_geom_bond_atom_site_label_1
_geom_bond_atom_site_label_2
_ccdc_geom_bond_type
C19   C21   A    
O9    S3    S    
C12   O12   A    
O18   Zn2   S    
C15   H5    S    
C16   C21   A    
C2    C18   S    
O1    Zn1   S    
O10   S4    D    
C12   O15   A    
O17   Zn2   S    
C4    S2    S    
C4    C15   A    
C6    H7    S    
C2    O19   A    
H2    O6    S    
C1    C22   S    
O2    S1    D    
C8    C20   S    
C7    C21   S    
C9    C11   A    
C12   C23   S    
H12   O3    S    
N1    N2    T    
C3    C14   A    
O5    S2    D    
O6    S2    S    
O13   S4    S    
C4    C6    A    
C17   C19   A    
C19   C24   S    
O19   Zn1   S    
C10   H9    S    
C18   C20   A    
C2    O17   A    
C13   C15   A    
C14   H1    S    
H4    O13   S    
C11   C14   A    
C11   S3    S    
C24   O18   A    
O16   Zn1   S    
C1    O1    A    
O8    S3    D    
O4    S2    D    
C17   C20   A    
O12   Zn2   S    
O3    S1    S    
C8    C10   A    
N2    Zn1   S    
O14   Zn2   S    
H3    O9    S    
C7    C9    A    
C5    C7    A    
O15   Zn1   S    
C6    C8    A    
O11   S4    D    
C17   H11   S    
C9    H8    S    
C16   H10   S    
O20   S1    D    
C22   C23   T    
C1    O14   A    
C24   O16   A    
C16   C18   A    
O7    S3    D    
C13   S4    S    
C5    H6    S    
N1    Zn2   S    
C3    C5    A    
C10   C13   A    
C3    S1    S    
