data_mof_unit_5868.cif
_audit_creation_date              2012-12-11T15:23:33-0500
_audit_creation_method            fapswitch 2.2
_symmetry_space_group_name_H-M    P1
_symmetry_Int_Tables_number       1
_space_group_crystal_system       triclinic
_cell_length_a                    6.933637
_cell_length_b                    17.514253
_cell_length_c                    19.286978
_cell_angle_alpha                 109.518295
_cell_angle_beta                  90.253152
_cell_angle_gamma                 90.560306
_cell_volume                      2207.39024151

loop_
_atom_site_label
_atom_site_type_symbol
_atom_type_description
_atom_site_fract_x
_atom_site_fract_y
_atom_site_fract_z
_atom_type_partial_charge
O1    O     O_R   0.505810 0.439670 0.562310 -0.534104
O2    O     O_R   0.169070 0.404920 0.411210 -0.521123
O3    O     O_R   0.005550 0.560330 0.437690 -0.540842
C1    C     C_R   0.338302 0.381315 0.383260 0.738214
O4    O     O_R   0.175650 0.430000 0.560110 -0.535553
O5    O     O_R   0.012170 0.585580 0.587650 -0.543275
C2    C     C_R   0.345025 0.412480 0.579680 0.696996
O6    O     O_R   0.499180 0.414420 0.412350 -0.538035
O7    O     O_3   0.341430 0.551020 0.508860 -0.380265
V1    V     V_3+5 0.063930 0.490540 0.498360 1.480505
O8    O     O_R   0.682850 0.595080 0.588790 -0.546176
C3    C     C_R   0.852773 0.618378 0.616932 0.666351
O9    O     O_R   0.676280 0.570000 0.439890 -0.543089
C4    C     C_R   0.845155 0.585209 0.418354 0.720775
V2    V     V_3+5 0.564760 0.509460 0.501640 1.444280
O10   O     O_3   0.837130 0.448980 0.491140 -0.353923
C5    C     C_R   0.063480 0.862439 0.176078 -0.242110
C6    C     C_R   0.912951 0.859350 0.125982 -0.174022
C7    C     C_R   0.750431 0.807723 0.122723 0.292364
C8    C     C_R   0.736425 0.764680 0.172815 0.059185
C9    C     C_R   0.888416 0.769295 0.223186 -0.014900
C10   C     C_R   0.052763 0.817789 0.224295 0.086540
C11   C     C_R   0.574434 0.715370 0.172504 -0.146595
C12   C     C_R   0.562459 0.672024 0.221475 -0.209397
C13   C     C_R   0.712503 0.676273 0.271557 0.090724
C14   C     C_R   0.877037 0.724553 0.272138 0.074131
C15   C     C_R   0.030834 0.727691 0.321288 0.095474
C16   C     C_R   0.192944 0.776547 0.322054 -0.193597
C17   C     C_R   0.203429 0.821435 0.274234 -0.161549
C18   C     C_R   0.701445 0.632450 0.320554 -0.203645
C19   C     C_R   0.855338 0.634230 0.368871 -0.086949
C20   C     C_R   0.020092 0.681764 0.368610 -0.220732
H1    H     H_    0.188309 0.901092 0.178545 0.149568
H2    H     H_    0.455249 0.710413 0.134705 0.178164
H3    H     H_    0.435360 0.635006 0.220079 0.147076
H4    H     H_    0.574763 0.595384 0.319876 0.147427
H5    H     H_    0.139089 0.683726 0.405859 0.124633
H6    H     H_    0.312248 0.779800 0.359460 0.130778
H7    H     H_    0.330529 0.858528 0.275880 0.131893
C21   C     C_3   0.811645 0.816721 0.741448 -0.140239
C22   C     C_3   0.981182 0.767403 0.696802 -0.143044
H8    H     H_    0.751054 0.872360 0.734859 0.100066
C23   C     C_3   0.867675 0.688609 0.687658 -0.005940
C24   C     C_3   0.697970 0.737102 0.731493 -0.115285
C25   C     C_3   0.789814 0.732454 0.803347 -0.140133
C26   C     C_3   0.959347 0.683128 0.758694 -0.137865
C27   C     C_3   0.073023 0.762748 0.768651 -0.114992
C28   C     C_3   0.903326 0.811242 0.812477 -0.005110
H9    H     H_    0.543441 0.726165 0.715671 0.105471
H10   H     H_    0.019942 0.627494 0.765290 0.101769
C29   C     C_3   0.508350 0.243076 0.301750 -0.203594
C30   C     C_3   0.354146 0.178382 0.260698 -0.205695
H11   H     H_    0.326613 0.119773 0.269533 0.118402
C31   C     C_3   0.414790 0.189226 0.187227 -0.122028
C32   C     C_3   0.570005 0.252688 0.227446 -0.141539
C33   C     C_3   0.416589 0.318858 0.239304 0.337602
C34   C     C_3   0.261915 0.256429 0.197540 -0.237312
C35   C     C_3   0.206889 0.246718 0.271554 0.367682
C36   C     C_3   0.356288 0.310586 0.312901 -0.049474
H12   H     H_    0.718840 0.256727 0.208001 0.143521
C37   C     C_R   0.569113 0.133365 0.820694 -0.223894
C38   C     C_R   0.417221 0.134820 0.869220 -0.083237
C39   C     C_R   0.254165 0.182151 0.869226 -0.224994
C40   C     C_R   0.242895 0.227975 0.821844 0.092431
C41   C     C_R   0.394363 0.224992 0.772361 0.074387
C42   C     C_R   0.557339 0.177073 0.771600 0.097586
C43   C     C_R   0.082389 0.276483 0.822806 -0.191882
C44   C     C_R   0.071163 0.321163 0.774838 -0.161324
C45   C     C_R   0.219376 0.317630 0.724516 0.085372
C46   C     C_R   0.382122 0.269484 0.723223 -0.016222
C47   C     C_R   0.531599 0.264949 0.672475 0.058230
C48   C     C_R   0.692054 0.216039 0.672006 -0.144352
C49   C     C_R   0.704953 0.172971 0.721164 -0.219210
C50   C     C_R   0.207931 0.362096 0.676142 -0.243142
C51   C     C_R   0.356157 0.359144 0.625724 -0.168462
C52   C     C_R   0.516651 0.307714 0.622211 0.292838
H13   H     H_    0.694480 0.096527 0.819831 0.122273
H14   H     H_    0.136724 0.183925 0.906651 0.127335
H15   H     H_    0.964858 0.279610 0.860472 0.132752
H16   H     H_    0.809361 0.211185 0.633932 0.178584
O11   O     O_R   0.271890 0.085690 0.087580 -0.540182
O12   O     O_R   0.595690 0.070020 0.939870 -0.544770
O13   O     O_R   0.758900 0.914390 0.912370 -0.541201
C53   C     C_R   0.426811 0.085431 0.918437 0.702477
O14   O     O_R   0.602020 0.095100 0.088770 -0.541584
O15   O     O_R   0.765280 0.939660 0.062330 -0.530087
C54   C     C_R   0.432779 0.118752 0.116706 0.717112
O16   O     O_R   0.265520 0.060430 0.937620 -0.541729
O17   O     O_3   0.429560 0.949050 0.991100 -0.359708
V3    V     V_3+5 0.707160 0.009450 0.001650 1.410641
O18   O     O_R   0.094540 0.929890 0.060190 -0.533422
C55   C     C_R   0.924980 0.912480 0.079784 0.711034
O19   O     O_R   0.088200 0.904800 0.911290 -0.542095
C56   C     C_R   0.918270 0.881510 0.883155 0.668857
V4    V     V_3+5 0.206300 0.990390 0.998440 1.426210
O20   O     O_3   0.934030 0.050940 0.008900 -0.373041
H17   H     H_    0.711357 0.718522 0.847818 0.104589
H18   H     H_    0.227549 0.773689 0.784479 0.107375
H19   H     H_    0.608442 0.237406 0.344809 0.157010
O21   O     O_3   0.448644 0.393329 0.229146 -0.650596
H20   H     H_    0.486063 0.379810 0.176911 0.282836
H21   H     H_    0.160729 0.262927 0.155141 0.120598
O22   O     O_3   0.605969 0.796685 0.070587 -0.648449
H22   H     H_    0.663962 0.800195 0.024908 0.284990
O23   O     O_3   0.018096 0.243805 0.295620 -0.646500
H23   H     H_    0.964557 0.190950 0.263838 0.277585
H24   H     H_    0.945340 0.357989 0.776663 0.131666
H25   H     H_    0.084611 0.400563 0.678796 0.148260
O24   O     O_3   0.658255 0.296661 0.569681 -0.646104
H26   H     H_    0.598219 0.299969 0.524102 0.287488
H27   H     H_    0.830826 0.136248 0.719606 0.137038
H28   H     H_    0.059682 0.781377 0.652367 0.101174

loop_
_geom_bond_atom_site_label_1
_geom_bond_atom_site_label_2
_ccdc_geom_bond_type
C24   H9    S    
C9    C14   A    
O19   C56   A    
C10   C17   A    
V4    O20   S    
C4    C19   S    
C1    O6    A    
V1    O10   S    
C25   C26   S    
C30   H11   S    
C34   H21   S    
C14   C15   A    
C27   H18   S    
C28   C56   S    
C16   C17   A    
C3    C23   S    
O5    C3    A    
C18   C19   A    
O11   V4    S    
C41   C46   A    
C33   C34   S    
C6    C7    A    
C31   C32   S    
O8    V2    S    
C37   C42   A    
C19   C20   A    
C37   H13   S    
C44   C45   A    
C22   H28   S    
C11   C12   A    
C46   C47   A    
O1    V2    S    
C44   H24   S    
O7    V1    S    
C32   H12   S    
C21   H8    S    
O16   V4    S    
O19   V4    S    
O9    C4    A    
C22   C23   S    
C45   C46   A    
C5    H1    S    
O4    V1    S    
C30   C31   S    
C49   H27   S    
O14   C54   A    
C29   H19   S    
C12   H3    S    
C50   C51   A    
C29   C30   S    
C40   C43   A    
C43   H15   S    
C12   C13   A    
O15   V3    S    
O18   C55   A    
O4    C2    A    
C52   O24   S    
C2    C51   S    
C35   C36   S    
C42   C49   A    
C7    O22   S    
C43   C44   A    
O17   V4    S    
O2    C1    A    
C51   C52   A    
C38   C39   A    
C27   C28   S    
C8    C11   A    
C16   H6    S    
O14   V3    S    
C11   H2    S    
C17   H7    S    
C32   C33   S    
C5    C6    A    
C22   C27   S    
C45   C50   A    
C20   H5    S    
O11   C54   A    
O3    C4    A    
C30   C35   S    
C21   C22   S    
O6    V2    S    
O12   C53   A    
O9    V2    S    
C23   C24   S    
C29   C36   S    
C33   O21   S    
O2    V1    S    
C47   C52   A    
O22   H22   S    
C24   C25   S    
C25   C28   S    
C13   C18   A    
C21   C28   S    
O13   V3    S    
C38   C53   S    
C26   C27   S    
C15   C20   A    
O1    C2    A    
C53   O16   A    
C48   C49   A    
O5    V1    S    
O8    C3    A    
V3    O20   S    
O23   H23   S    
C26   H10   S    
C5    C10   A    
O12   V3    S    
C33   C36   S    
C18   H4    S    
C35   O23   S    
C6    C55   S    
C40   C41   A    
C7    C8    A    
C13   C14   A    
C47   C48   A    
C48   H16   S    
O3    V1    S    
O15   C55   A    
O24   H26   S    
O13   C56   A    
C34   C35   S    
C31   C54   S    
C1    C36   S    
O21   H20   S    
C29   C32   S    
O7    V2    S    
C37   C38   A    
C23   C26   S    
C50   H25   S    
C39   C40   A    
C21   C24   S    
C8    C9    A    
O18   V4    S    
C41   C42   A    
C15   C16   A    
C25   H17   S    
O17   V3    S    
C9    C10   A    
C39   H14   S    
V2    O10   S    
C31   C34   S    
