data_mof_unit_12708.cif
_audit_creation_date              2012-12-11T14:25:02-0500
_audit_creation_method            fapswitch 2.2
_symmetry_space_group_name_H-M    P1
_symmetry_Int_Tables_number       1
_space_group_crystal_system       triclinic
_cell_length_a                    19.039573
_cell_length_b                    11.361932
_cell_length_c                    18.631558
_cell_angle_alpha                 89.948343
_cell_angle_beta                  90.880996
_cell_angle_gamma                 90.128435
_cell_volume                      4030.00853759

loop_
_atom_site_label
_atom_site_type_symbol
_atom_type_description
_atom_site_fract_x
_atom_site_fract_y
_atom_site_fract_z
_atom_type_partial_charge
C1    C     C_R   0.710815 0.328456 0.139907 0.574630
C2    C     C_R   0.286934 0.331264 0.860734 0.564485
C3    C     C_R   0.214264 0.834572 0.138275 0.558200
C4    C     C_R   0.789370 0.827639 0.859983 0.578170
C5    C     C_3   0.468451 0.066483 0.029701 -0.037798
C6    C     C_3   0.524342 0.070528 0.970365 -0.018806
C7    C     C_3   0.974859 0.566434 0.029707 -0.008245
C8    C     C_3   0.030687 0.563888 0.970419 -0.024006
C9    C     C_R   0.780143 0.836472 0.937870 0.004459
C10   C     C_R   0.226558 0.847633 0.059595 0.000590
C11   C     C_R   0.273024 0.344099 0.937594 0.011272
C12   C     C_R   0.719767 0.339639 0.062110 0.015276
C13   C     C_R   0.716922 0.804022 0.971655 -0.093505
C14   C     C_R   0.282958 0.795207 0.019463 -0.106828
C15   C     C_R   0.212249 0.299315 0.973387 -0.097926
C16   C     C_R   0.781091 0.302934 0.026329 -0.095807
C17   C     C_R   0.700139 0.861094 0.035278 -0.027185
C18   C     C_R   0.284820 0.812688 0.943597 -0.037456
C19   C     C_R   0.200390 0.336339 0.045022 -0.039721
C20   C     C_R   0.797394 0.358237 0.961994 -0.037929
C21   C     C_R   0.821345 0.921935 0.049454 -0.168781
C22   C     C_R   0.178661 0.924125 0.948105 -0.180309
C23   C     C_R   0.316263 0.426173 0.048668 -0.181300
C24   C     C_R   0.678541 0.431958 0.952533 -0.176289
C25   C     C_R   0.832887 0.892267 0.978533 -0.150179
C26   C     C_R   0.172951 0.904329 0.020873 -0.161725
C27   C     C_R   0.325880 0.398900 0.977830 -0.150493
C28   C     C_R   0.667643 0.400070 0.023070 -0.157401
C29   C     C_R   0.665991 0.728017 0.941370 -0.188665
C30   C     C_R   0.337020 0.725094 0.049884 -0.171650
C31   C     C_R   0.161204 0.222399 0.941554 -0.178484
C32   C     C_R   0.829859 0.220329 0.053118 -0.192758
C33   C     C_R   0.108797 0.170684 0.982106 0.399381
C34   C     C_R   0.893639 0.200326 0.020191 0.373791
C35   C     C_R   0.597975 0.722748 0.965654 0.344239
C36   C     C_R   0.387559 0.671481 0.007571 0.407773
C37   C     C_R   0.577923 0.802894 0.016196 0.419310
C38   C     C_R   0.381460 0.675236 0.933515 0.488987
C39   C     C_R   0.102721 0.199929 0.053015 0.494521
C40   C     C_R   0.915159 0.278759 0.968869 0.452380
C41   C     C_R   0.628725 0.874332 0.048046 0.314443
C42   C     C_R   0.330112 0.744408 0.901231 0.343494
C43   C     C_R   0.137729 0.297799 0.077856 0.329285
C44   C     C_R   0.868171 0.362070 0.944687 0.306809
C45   C     C_R   0.532372 0.155469 0.144964 0.569199
C46   C     C_R   0.464403 0.155356 0.856254 0.530745
C47   C     C_R   0.035138 0.654901 0.143956 0.541466
C48   C     C_R   0.967247 0.655100 0.855210 0.568049
C49   C     C_R   0.753867 0.915563 0.077354 0.014579
C50   C     C_R   0.238302 0.893239 0.911570 0.036930
C51   C     C_R   0.252192 0.407245 0.080920 0.007799
C52   C     C_R   0.744901 0.418442 0.922451 0.018252
C53   C     C_R   0.502420 0.159133 0.575169 0.020064
C54   C     C_R   0.506787 0.173093 0.424923 0.016283
C55   C     C_R   0.994051 0.673271 0.575443 0.018806
C56   C     C_R   0.998837 0.659809 0.425229 0.018142
C57   C     C_R   0.488497 0.063034 0.530130 -0.018057
C58   C     C_R   0.474089 0.078481 0.458294 -0.037226
C59   C     C_R   0.027286 0.578944 0.542334 -0.033598
C60   C     C_R   0.013242 0.564221 0.470151 -0.017435
C61   C     C_R   0.538823 0.260856 0.468339 -0.139136
C62   C     C_R   0.532871 0.257246 0.542923 -0.128655
C63   C     C_R   0.968107 0.757379 0.457278 -0.131274
C64   C     C_R   0.962170 0.760879 0.531834 -0.143027
C65   C     C_R   0.496499 0.950350 0.553813 -0.137649
C66   C     C_R   0.439085 0.988557 0.421023 -0.116162
C67   C     C_R   0.058959 0.486078 0.580273 -0.126320
C68   C     C_R   0.002359 0.452189 0.446478 -0.132176
C69   C     C_R   0.060638 0.371588 0.550081 0.290831
C70   C     C_R   0.036658 0.357664 0.477858 0.269647
C71   C     C_R   0.460942 0.857046 0.521827 0.269629
C72   C     C_R   0.435330 0.873573 0.450031 0.300905
C73   C     C_R   0.738919 0.964735 0.591210 0.018844
C74   C     C_R   0.204327 0.839182 0.441389 -0.006079
C75   C     C_R   0.293673 0.341536 0.558912 -0.008062
C76   C     C_R   0.753968 0.463796 0.411340 -0.004807
C77   C     C_R   0.780830 0.056201 0.564007 0.053842
C78   C     C_R   0.150121 0.901092 0.482307 0.040072
C79   C     C_R   0.348979 0.399563 0.517163 0.044012
C80   C     C_R   0.708805 0.554329 0.440732 0.044361
C81   C     C_R   0.781041 0.074690 0.488367 -0.015007
C82   C     C_R   0.161763 0.908953 0.557666 -0.005706
C83   C     C_R   0.337258 0.405861 0.441806 0.000861
C84   C     C_R   0.716056 0.577313 0.515843 -0.008679
C85   C     C_R   0.671683 0.967002 0.480218 -0.145831
C86   C     C_R   0.273204 0.813454 0.550245 -0.144862
C87   C     C_R   0.222549 0.320510 0.451294 -0.158039
C88   C     C_R   0.823737 0.463099 0.520906 -0.144200
C89   C     C_R   0.741098 0.973166 0.147054 0.568456
C90   C     C_R   0.255894 0.964007 0.847816 0.587305
C91   C     C_R   0.241416 0.469272 0.148959 0.551114
C92   C     C_R   0.758566 0.473607 0.852678 0.558267
C93   C     C_R   0.678348 0.937743 0.553299 -0.169042
C94   C     C_R   0.257704 0.781603 0.479960 -0.135456
C95   C     C_R   0.236537 0.291144 0.522003 -0.152773
C96   C     C_R   0.815172 0.434163 0.448765 -0.171225
C97   C     C_R   0.823702 0.126312 0.610294 0.306110
C98   C     C_R   0.084675 0.951753 0.455661 0.303853
C99   C     C_R   0.414907 0.450026 0.543156 0.307655
C100  C     C_R   0.656569 0.624362 0.401331 0.279456
C101  C     C_R   0.879323 0.187047 0.579149 -0.113697
C102  C     C_R   0.035889 0.998334 0.504728 -0.043786
C103  C     C_R   0.463414 0.496714 0.493614 -0.049367
C104  C     C_R   0.617396 0.707516 0.436446 -0.076733
C105  C     C_R   0.884229 0.195763 0.505902 -0.202606
C106  C     C_R   0.045543 0.986500 0.577594 -0.120795
C107  C     C_R   0.453270 0.484133 0.420830 -0.153011
C108  C     C_R   0.615188 0.707133 0.508653 -0.203282
C109  C     C_R   0.834230 0.147068 0.461039 -0.142404
C110  C     C_R   0.106297 0.937067 0.603779 -0.084719
C111  C     C_R   0.392690 0.432736 0.395312 -0.106130
C112  C     C_R   0.665775 0.651536 0.547679 -0.139252
C113  C     C_R   0.727884 0.020616 0.444403 -0.003235
C114  C     C_R   0.229401 0.889553 0.586589 -0.007883
C115  C     C_R   0.269187 0.389444 0.413339 -0.008652
C116  C     C_R   0.770430 0.521720 0.557116 0.005581
C117  C     C_R   0.732362 0.387905 0.350018 0.550415
C118  C     C_R   0.291685 0.330594 0.638612 0.594093
C119  C     C_R   0.207997 0.830143 0.361333 0.597174
C120  C     C_R   0.766391 0.887422 0.650104 0.589297
C121  C     C_R   0.532861 0.158335 0.352349 0.519792
C122  C     C_R   0.469563 0.156723 0.647781 0.532881
C123  C     C_R   0.030640 0.656735 0.352281 0.528780
C124  C     C_R   0.967280 0.658468 0.647760 0.523248
C125  C     C_R   0.727491 0.026138 0.363819 0.571765
C126  C     C_R   0.254252 0.964270 0.647372 0.552086
C127  C     C_R   0.245536 0.464254 0.352529 0.535023
C128  C     C_R   0.772598 0.526975 0.636843 0.574965
C129  C     C_3   0.521238 0.263790 0.971237 -0.141956
C130  C     C_3   0.466064 0.259830 0.031527 -0.141616
C131  C     C_3   0.032503 0.757490 0.969074 -0.142039
C132  C     C_3   0.977201 0.759869 0.029098 -0.154546
C133  C     C_3   0.564534 0.168964 0.010585 -0.076247
C134  C     C_3   0.425464 0.161872 0.990298 -0.154705
C135  C     C_3   0.073448 0.659906 0.010028 -0.126331
C136  C     C_3   0.934281 0.664267 0.989485 -0.090154
C137  C     C_3   0.508619 0.163940 0.069680 0.066319
C138  C     C_3   0.482012 0.164885 0.932083 0.025126
C139  C     C_3   0.016862 0.661956 0.068203 0.032473
C140  C     C_3   0.990336 0.661413 0.930622 0.060079
Cr1   Cr    Cr6+3 0.772820 0.169820 0.252640 0.958996
Cr2   Cr    Cr6+3 0.227180 0.169820 0.747360 0.970960
Cr3   Cr    Cr6+3 0.272820 0.669820 0.252640 0.966638
Cr4   Cr    Cr6+3 0.727180 0.669820 0.747360 0.957328
Cr5   Cr    Cr6+3 0.615040 0.323610 0.249150 0.987178
Cr6   Cr    Cr6+3 0.384960 0.323610 0.750850 1.045663
Cr7   Cr    Cr6+3 0.115040 0.823610 0.249150 1.016203
Cr8   Cr    Cr6+3 0.884960 0.823610 0.750850 0.977600
Cr9   Cr    Cr6+3 0.616720 0.011130 0.250660 0.997868
Cr10  Cr    Cr6+3 0.383280 0.011130 0.749340 0.995382
Cr11  Cr    Cr6+3 0.116720 0.511130 0.250660 1.001590
Cr12  Cr    Cr6+3 0.883280 0.511130 0.749340 0.978820
H1    H     H_    0.622263 0.170080 0.019166 0.152785
H2    H     H_    0.368006 0.157055 0.979812 0.114015
H3    H     H_    0.130941 0.656585 0.020535 0.130059
H4    H     H_    0.876605 0.663338 0.980413 0.152510
H5    H     H_    0.569722 0.331002 0.445120 0.155628
H6    H     H_    0.554881 0.328185 0.573485 0.132387
H7    H     H_    0.945746 0.827819 0.426514 0.131014
H8    H     H_    0.930939 0.830469 0.554864 0.141612
H9    H     H_    0.529714 0.938005 0.599000 0.125020
H10   H     H_    0.413644 0.012488 0.371335 0.113886
H11   H     H_    0.076153 0.501214 0.634889 0.126652
H12   H     H_    0.967262 0.440992 0.402303 0.124153
H13   H     H_    0.624449 0.942600 0.451037 0.143851
H14   H     H_    0.319412 0.779636 0.575106 0.157360
H15   H     H_    0.174253 0.292843 0.427807 0.153681
H16   H     H_    0.870046 0.432468 0.549593 0.146067
H17   H     H_    0.638754 0.890898 0.581437 0.104943
H18   H     H_    0.290584 0.717589 0.454173 0.210362
H19   H     H_    0.198983 0.236514 0.549439 0.212977
H20   H     H_    0.853913 0.380685 0.422933 0.112672
H21   H     H_    0.920122 0.226888 0.609402 0.088293
H22   H     H_    0.983806 0.024756 0.488106 0.119935
H23   H     H_    0.515359 0.525061 0.509852 0.126304
H24   H     H_    0.580134 0.761457 0.407900 0.112651
H25   H     H_    0.924566 0.247715 0.483282 0.173236
H26   H     H_    0.003570 0.008640 0.613642 0.107484
H27   H     H_    0.494177 0.509098 0.384101 0.152647
H28   H     H_    0.576722 0.757360 0.535407 0.159048
H29   H     H_    0.839674 0.171172 0.406039 0.179615
H30   H     H_    0.110707 0.923250 0.661235 0.138094
H31   H     H_    0.387733 0.418948 0.337900 0.131921
H32   H     H_    0.662514 0.676297 0.602250 0.188996
H33   H     H_    0.540184 0.344222 0.944024 0.158584
H34   H     H_    0.446334 0.336941 0.060897 0.149460
H35   H     H_    0.051255 0.835590 0.939903 0.160366
H36   H     H_    0.958894 0.839851 0.056843 0.162288
H37   H     H_    0.443928 0.989313 0.055836 0.188765
H38   H     H_    0.548478 0.996475 0.941030 0.152486
H39   H     H_    0.951060 0.489235 0.056739 0.172324
H40   H     H_    0.053503 0.484310 0.945472 0.186643
H41   H     H_    0.863861 0.958766 0.080950 0.193723
H42   H     H_    0.137386 0.967710 0.919167 0.202324
H43   H     H_    0.358551 0.467972 0.078065 0.192365
H44   H     H_    0.636358 0.475157 0.923488 0.184445
H45   H     H_    0.676126 0.675012 0.898051 0.216580
H46   H     H_    0.341576 0.706204 0.105385 0.197367
H47   H     H_    0.158616 0.197353 0.886799 0.208858
H48   H     H_    0.820901 0.172392 0.098843 0.215529
H49   H     H_    0.883131 0.913567 0.955238 0.179763
H50   H     H_    0.125818 0.934591 0.046852 0.200784
H51   H     H_    0.375733 0.421369 0.954249 0.215280
H52   H     H_    0.618277 0.423760 0.047321 0.167035
O1    O     O_R   0.788190 0.043000 0.172520 -0.571630
O2    O     O_R   0.211810 0.043000 0.827480 -0.575520
O3    O     O_R   0.288190 0.543000 0.172520 -0.565970
O4    O     O_R   0.711810 0.543000 0.827480 -0.572998
O5    O     O_R   0.556550 0.253260 0.323480 -0.510845
O6    O     O_R   0.443450 0.253260 0.676520 -0.456451
O7    O     O_R   0.056550 0.753260 0.323480 -0.454809
O8    O     O_R   0.943450 0.753260 0.676520 -0.522102
O9    O     O_R   0.545830 0.051610 0.330160 -0.559243
O10   O     O_R   0.454170 0.051610 0.669840 -0.557381
O11   O     O_R   0.045830 0.551610 0.330160 -0.559021
O12   O     O_R   0.954170 0.551610 0.669840 -0.560441
O13   O     O_R   0.681920 0.959720 0.327070 -0.522488
O14   O     O_R   0.318080 0.959720 0.672930 -0.520551
O15   O     O_R   0.181920 0.459720 0.327070 -0.537889
O16   O     O_R   0.818080 0.459720 0.672930 -0.538307
O17   O     O_3   0.668190 0.168190 0.250820 -0.291269
O18   O     O_3   0.331810 0.168190 0.749180 -0.308356
O19   O     O_3   0.168190 0.668190 0.250820 -0.297854
O20   O     O_3   0.831810 0.668190 0.749180 -0.290225
O21   O     O_R   0.766240 0.292300 0.176860 -0.516903
O22   O     O_R   0.233760 0.292300 0.823140 -0.543531
O23   O     O_R   0.266240 0.792300 0.176860 -0.532337
O24   O     O_R   0.733760 0.792300 0.823140 -0.512775
O25   O     O_R   0.670310 0.409160 0.168720 -0.547732
O26   O     O_R   0.329690 0.409160 0.831280 -0.447112
O27   O     O_R   0.170310 0.909160 0.168720 -0.505867
O28   O     O_R   0.829690 0.909160 0.831280 -0.529565
O29   O     O_R   0.556160 0.251900 0.173380 -0.542393
O30   O     O_R   0.443840 0.251900 0.826620 -0.523913
O31   O     O_R   0.056160 0.751900 0.173380 -0.532044
O32   O     O_R   0.943840 0.751900 0.826620 -0.538988
O33   O     O_R   0.545410 0.050140 0.168240 -0.431670
O34   O     O_R   0.454590 0.050140 0.831760 -0.532048
O35   O     O_R   0.045410 0.550140 0.168240 -0.452397
O36   O     O_R   0.954590 0.550140 0.831760 -0.443252
O37   O     O_R   0.681530 0.958350 0.176970 -0.438468
O38   O     O_R   0.318470 0.958350 0.823030 -0.452198
O39   O     O_R   0.181530 0.458350 0.176970 -0.435556
O40   O     O_R   0.818470 0.458350 0.823030 -0.453585
O41   O     O_R   0.788610 0.044480 0.334450 -0.557365
O42   O     O_R   0.211390 0.044480 0.665550 -0.525268
O43   O     O_R   0.288610 0.544480 0.334450 -0.536107
O44   O     O_R   0.711390 0.544480 0.665550 -0.561964
O45   O     O_R   0.766630 0.293670 0.326970 -0.539832
O46   O     O_R   0.233370 0.293670 0.673030 -0.518467
O47   O     O_R   0.266630 0.793670 0.326970 -0.493083
O48   O     O_R   0.733370 0.793670 0.673030 -0.546943
O49   O     O_R   0.670730 0.410640 0.330640 -0.456292
O50   O     O_R   0.329270 0.410640 0.669360 -0.462387
O51   O     O_R   0.170730 0.910640 0.330640 -0.477596
O52   O     O_R   0.829270 0.910640 0.669360 -0.485139
O53   O     O_3   0.079246 0.274713 0.591955 -0.550067
C141  C     C_3   0.043451 0.275920 0.658818 -0.024550
H53   H     H_    0.023365 0.186156 0.668311 0.122255
H54   H     H_    0.996967 0.335083 0.659285 0.129528
C142  C     C_3   0.092039 0.307906 0.722102 -0.269633
H55   H     H_    0.117500 0.226827 0.742702 0.198673
H56   H     H_    0.131287 0.372537 0.704500 0.216439
C143  C     C_3   0.054429 0.368732 0.783121 -0.427335
H57   H     H_    0.046963 0.462075 0.767848 0.174995
H58   H     H_    0.087568 0.366362 0.832589 0.178520
H59   H     H_    0.002880 0.328203 0.794370 0.189819
O54   O     O_3   0.039913 0.252306 0.439783 -0.598281
C144  C     C_3   0.057730 0.272972 0.365966 -0.037833
H60   H     H_    0.096477 0.205380 0.350707 0.129703
H61   H     H_    0.086539 0.355289 0.358998 0.199458
C145  C     C_3   0.995574 0.274841 0.310422 -0.344820
H62   H     H_    0.954339 0.208996 0.320952 0.140984
H63   H     H_    0.967542 0.359238 0.308058 0.159978
C146  C     C_3   0.023448 0.262507 0.234804 -0.389127
H64   H     H_    0.062536 0.332734 0.226120 0.244222
H65   H     H_    0.979992 0.271994 0.194729 0.210882
H66   H     H_    0.049809 0.177156 0.226839 0.168343
O55   O     O_3   0.455055 0.751901 0.560277 -0.601801
C147  C     C_3   0.437898 0.772974 0.634408 -0.031005
H67   H     H_    0.399387 0.705069 0.650326 0.149639
H68   H     H_    0.409676 0.855174 0.640429 0.208169
C148  C     C_3   0.499773 0.775951 0.690607 -0.347802
H69   H     H_    0.541820 0.712503 0.678944 0.135461
H70   H     H_    0.526595 0.861507 0.694475 0.163319
C149  C     C_3   0.472650 0.759569 0.766614 -0.387960
H71   H     H_    0.436077 0.831632 0.779970 0.231373
H72   H     H_    0.517083 0.761920 0.805901 0.189245
H73   H     H_    0.444325 0.675400 0.772025 0.220481
O56   O     O_3   0.399354 0.785141 0.413351 -0.558834
C150  C     C_3   0.430218 0.753833 0.346672 0.016665
H74   H     H_    0.404183 0.671135 0.329348 0.183152
H75   H     H_    0.485901 0.730840 0.353293 0.109455
C151  C     C_3   0.420708 0.844785 0.285410 -0.303068
H76   H     H_    0.369538 0.889973 0.289139 0.210401
H77   H     H_    0.462835 0.910962 0.289213 0.170233
C152  C     C_3   0.426581 0.793830 0.210310 -0.415392
H78   H     H_    0.481777 0.795217 0.193041 0.175719
H79   H     H_    0.397879 0.851722 0.171950 0.173699
H80   H     H_    0.405412 0.702914 0.207564 0.160404
O57   O     O_3   0.812313 0.120667 0.684318 -0.556928
C153  C     C_3   0.835646 0.217066 0.726202 0.026843
H81   H     H_    0.789068 0.272002 0.737783 0.171549
H82   H     H_    0.875595 0.274840 0.702873 0.122715
C154  C     C_3   0.865585 0.173281 0.797713 -0.250249
H83   H     H_    0.883509 0.250919 0.828143 0.144359
H84   H     H_    0.823544 0.129355 0.828550 0.184560
C155  C     C_3   0.928763 0.091591 0.789866 -0.335915
H85   H     H_    0.918376 0.021749 0.749761 0.211519
H86   H     H_    0.941533 0.050379 0.842531 0.200653
H87   H     H_    0.975482 0.141074 0.773060 0.092058
O58   O     O_3   0.059417 0.921073 0.388742 -0.539097
C156  C     C_3   0.020209 0.004727 0.349181 0.010068
H88   H     H_    0.056208 0.040120 0.308761 0.166576
H89   H     H_    0.000516 0.074883 0.382898 0.154777
C157  C     C_3   0.955355 0.950486 0.310013 -0.298194
H90   H     H_    0.954222 0.853882 0.311148 0.185980
H91   H     H_    0.907661 0.977922 0.338502 0.159438
C158  C     C_3   0.948244 0.985603 0.231053 -0.390819
H92   H     H_    0.929779 0.077521 0.225758 0.170939
H93   H     H_    0.908658 0.927936 0.204356 0.151387
H94   H     H_    0.998778 0.974337 0.202929 0.199374
O59   O     O_3   0.440332 0.420704 0.610254 -0.541304
C159  C     C_3   0.479531 0.505539 0.649094 0.008581
H95   H     H_    0.443675 0.540349 0.689618 0.176134
H96   H     H_    0.498612 0.576379 0.615137 0.154226
C160  C     C_3   0.544711 0.452532 0.688148 -0.302507
H97   H     H_    0.545412 0.355909 0.688281 0.188469
H98   H     H_    0.592090 0.479072 0.658682 0.161907
C161  C     C_3   0.552863 0.489621 0.766646 -0.391667
H99   H     H_    0.572035 0.581380 0.770729 0.170229
H100  H     H_    0.592314 0.432254 0.793661 0.155718
H101  H     H_    0.502575 0.479468 0.795400 0.214337
O60   O     O_3   0.620407 0.586961 0.342014 -0.577227
C162  C     C_3   0.635659 0.652319 0.281013 0.006144
H102  H     H_    0.689921 0.632610 0.263124 0.158162
H103  H     H_    0.629271 0.748608 0.289819 0.136710
C163  C     C_3   0.581953 0.610925 0.225465 -0.247039
H104  H     H_    0.579524 0.513912 0.223220 0.234945
H105  H     H_    0.529098 0.637982 0.242435 0.116921
C164  C     C_3   0.597867 0.659642 0.152536 -0.451489
H106  H     H_    0.595510 0.756477 0.156780 0.178178
H107  H     H_    0.557974 0.626931 0.113398 0.236385
H108  H     H_    0.650911 0.632884 0.134804 0.154916
F1    F     F_    0.058918 0.101287 0.950921 -0.594107
F2    F     F_    0.936472 0.113409 0.043136 -0.566610
F3    F     F_    0.550623 0.649484 0.934330 -0.578122
F4    F     F_    0.440227 0.608484 0.038751 -0.609556
F5    F     F_    0.052020 0.151011 0.093091 -0.573658
F6    F     F_    0.982288 0.283130 0.946969 -0.584123
F7    F     F_    0.509648 0.814254 0.033298 -0.618794
F8    F     F_    0.423037 0.606392 0.893011 -0.582483
F9    F     F_    0.607717 0.973511 0.075681 -0.640055
F10   F     F_    0.320039 0.735224 0.829131 -0.631260
F11   F     F_    0.093785 0.374586 0.107939 -0.613579
F12   F     F_    0.894549 0.462740 0.923467 -0.635862

loop_
_geom_bond_atom_site_label_1
_geom_bond_atom_site_label_2
_ccdc_geom_bond_type
C99   C103  A    
Cr6   O30   S    
C133  C137  S    
C129  H33   S    
C126  O42   A    
Cr1   O45   S    
C85   C93   A    
C150  H74   S    
C73   C93   A    
C136  C140  S    
C132  H36   S    
C75   C95   A    
C112  H32   S    
O57   C153  S    
C135  C139  S    
C2    O22   A    
C84   C112  A    
Cr3   O47   S    
C4    O28   A    
C79   C99   A    
Cr12  O40   S    
C55   C59   A    
Cr8   O8    S    
C5    C6    S    
C41   F9    S    
Cr5   O17   S    
C100  C104  A    
C9    C13   A    
C131  C140  S    
Cr7   O27   S    
C50   C90   S    
C89   O1    A    
C12   C16   A    
C40   F6    S    
C159  H95   S    
C88   H16   S    
Cr9   O33   S    
C87   C115  A    
C155  H87   S    
C116  C128  S    
C59   C60   A    
Cr11  O11   S    
Cr6   O50   S    
C8    C135  S    
Cr1   O21   S    
C130  C134  S    
C47   O31   A    
C23   C27   A    
C68   H12   S    
C161  H99   S    
C127  O15   A    
O59   C159  S    
C56   C123  S    
C118  O46   A    
C105  H25   S    
C162  H103  S    
C98   C102  A    
C157  H90   S    
C121  O9    A    
C78   C82   A    
C11   C27   A    
C16   C20   A    
C45   O33   A    
Cr9   O13   S    
C5    C137  S    
C129  C133  S    
C144  H61   S    
Cr11  O15   S    
C38   F8    S    
C37   F7    S    
C39   F5    S    
C149  H73   S    
C107  H27   S    
Cr5   O29   S    
C120  O48   A    
Cr3   O23   S    
C70   O54   S    
C54   C61   A    
C29   C35   A    
C30   C36   A    
C8    C140  S    
C85   H13   S    
C5    H37   S    
C76   C96   A    
C149  H72   S    
C8    H40   S    
C159  C160  S    
Cr7   O51   S    
Cr2   O2    S    
C69   C70   A    
Cr9   O9    S    
Cr11  O39   S    
C162  H102  S    
C65   H9    S    
C73   C77   A    
C103  C107  A    
Cr8   O32   S    
C75   C79   A    
C94   H18   S    
C126  O14   A    
Cr1   O17   S    
C131  H35   S    
C34   F2    S    
C88   C116  A    
C101  H21   S    
C63   H7    S    
C21   C49   A    
C7    C8    S    
C104  H24   S    
C132  C139  S    
Cr12  O12   S    
C21   C25   A    
C157  C158  S    
C27   H51   S    
C46   O30   A    
C150  H75   S    
C25   H49   S    
C53   C122  S    
C18   C42   A    
C142  H55   S    
C114  C126  S    
C156  H89   S    
O58   C156  S    
O53   C141  S    
C72   O56   S    
C59   C67   A    
C117  O49   A    
C17   C49   A    
C143  H57   S    
C154  H84   S    
C87   C95   A    
Cr1   O41   S    
C122  O6    A    
C77   C97   A    
C128  O16   A    
C84   C116  A    
C148  C149  S    
C152  H79   S    
C1    C12   S    
C11   C15   A    
C2    C11   S    
C20   C44   A    
C155  H86   S    
Cr5   O5    S    
C164  H107  S    
C87   H15   S    
C48   C140  S    
C83   C115  A    
C146  H66   S    
C147  H67   S    
C10   C14   A    
C3    O27   A    
C160  H98   S    
O60   C162  S    
C145  H62   S    
Cr2   O42   S    
C71   O55   S    
C35   F3    S    
C119  O47   A    
C132  C136  S    
C111  H31   S    
C110  H30   S    
C47   O35   A    
C30   H46   S    
C54   C121  S    
C43   F11   S    
Cr8   O52   S    
C163  H105  S    
C90   O38   A    
C22   C26   A    
C47   C139  S    
C69   O53   S    
C129  C130  S    
C109  H29   S    
Cr5   O25   S    
C107  C111  A    
C76   C80   A    
C142  C143  S    
C91   O3    A    
C15   C31   A    
C16   C32   A    
C163  C164  S    
C13   C17   A    
C146  H65   S    
C85   C113  A    
C141  H53   S    
C7    C136  S    
C153  H82   S    
C57   C58   A    
C143  H59   S    
Cr11  O19   S    
C37   C41   A    
C61   C62   A    
Cr1   O1    S    
C2    O26   A    
C63   C64   A    
C99   O59   S    
C40   C44   A    
C56   C60   A    
C145  H63   S    
C23   H43   S    
C148  H69   S    
C21   H41   S    
C4    C9    S    
C106  H26   S    
Cr7   O31   S    
C24   C52   A    
C88   C96   A    
C123  O11   A    
C74   C94   A    
C125  O41   A    
C146  H64   S    
C86   H14   S    
C147  C148  S    
C80   C84   A    
Cr5   O49   S    
C31   H47   S    
C9    C25   A    
C15   C19   A    
C93   H17   S    
C161  H100  S    
C12   C28   A    
C13   C29   A    
C45   O29   A    
C6    C133  S    
C106  C110  A    
C151  H76   S    
Cr6   O18   S    
C24   H44   S    
C66   H10   S    
C157  H91   S    
O56   C150  S    
C145  C146  S    
C100  O60   S    
C51   C91   S    
C90   O2    A    
Cr3   O3    S    
C161  H101  S    
O55   C147  S    
C62   H6    S    
Cr8   O28   S    
C22   C50   A    
C73   C120  S    
C144  H60   S    
Cr10  O18   S    
C7    H39   S    
C75   C118  S    
Cr7   O7    S    
C48   O36   A    
C19   C43   A    
Cr2   O22   S    
C24   C28   A    
C151  C152  S    
C117  O45   A    
C124  O8    A    
C122  O10   A    
C61   H5    S    
C77   C81   A    
C64   H8    S    
C103  H23   S    
C81   C109  A    
Cr12  O20   S    
C34   C40   A    
C52   C92   S    
C127  O43   A    
C131  C132  S    
C3    O23   A    
C104  C108  A    
Cr7   O19   S    
C18   C50   A    
C1    O21   A    
C55   C124  S    
C53   C57   A    
C35   C37   A    
C57   C65   A    
C119  O51   A    
C162  C163  S    
Cr11  O35   S    
C76   C117  S    
C36   C38   A    
C160  H97   S    
C32   H48   S    
C79   C83   A    
C156  H88   S    
C134  H2    S    
C105  C109  A    
Cr3   O43   S    
C19   C51   A    
C4    O24   A    
C158  H92   S    
C108  C112  A    
Cr10  O38   S    
O54   C144  S    
C60   C68   A    
C143  H58   S    
C154  H83   S    
C74   C78   A    
C144  C145  S    
C81   C113  A    
C130  C137  S    
C95   H19   S    
C32   C34   A    
Cr4   O4    S    
C125  O13   A    
Cr6   O26   S    
C7    C139  S    
Cr2   O46   S    
C33   F1    S    
C148  H70   S    
C152  H78   S    
C14   C18   A    
C115  C127  S    
C164  H106  S    
C74   C119  S    
C153  C154  S    
C33   C39   A    
C133  H1    S    
C82   C110  A    
C26   H50   S    
C147  H68   S    
C38   C42   A    
C131  C135  S    
Cr3   O19   S    
C149  H71   S    
C136  H4    S    
C113  C125  S    
C135  H3    S    
C108  H28   S    
C118  O50   A    
C58   C66   A    
C129  C138  S    
C66   C72   A    
Cr10  O34   S    
C123  O7    A    
C78   C98   A    
C31   C33   A    
C121  O5    A    
C86   C94   A    
C42   F10   S    
C46   C138  S    
C10   C26   A    
Cr10  O10   S    
Cr4   O48   S    
C158  H94   S    
C80   C100  A    
C44   F12   S    
Cr9   O17   S    
C14   C30   A    
Cr6   O6    S    
C101  C105  A    
C5    C134  S    
C128  O44   A    
C150  C151  S    
C82   C114  A    
C124  O12   A    
C142  H56   S    
C156  C157  S    
C39   C43   A    
C65   C71   A    
C67   C69   A    
C6    C138  S    
C141  H54   S    
C120  O52   A    
C92   O4    A    
C67   H11   S    
C53   C62   A    
C23   C51   A    
Cr12  O36   S    
C154  C155  S    
C55   C64   A    
C6    H38   S    
C45   C137  S    
Cr10  O14   S    
C56   C63   A    
C48   O32   A    
C159  H96   S    
C91   O39   A    
C29   H45   S    
Cr4   O44   S    
C98   O58   S    
C152  H80   S    
C89   O37   A    
C141  C142  S    
C97   O57   S    
C155  H85   S    
C54   C58   A    
C164  H108  S    
C153  H81   S    
Cr4   O24   S    
C49   C89   S    
C134  C138  S    
C160  C161  S    
C130  H34   S    
C102  H22   S    
C86   C114  A    
C36   F4    S    
Cr8   O20   S    
C20   C52   A    
C3    C10   S    
C151  H77   S    
C92   O40   A    
C28   H52   S    
Cr12  O16   S    
C102  C106  A    
C83   C111  A    
C46   O34   A    
C17   C41   A    
Cr4   O20   S    
C1    O25   A    
C71   C72   A    
Cr9   O37   S    
C163  H104  S    
C96   H20   S    
C68   C70   A    
C22   H42   S    
C158  H93   S    
Cr2   O18   S    
C97   C101  A    
