data_mof_unit_20485.cif
_audit_creation_date              2013-03-05T15:44:19-0500
_audit_creation_method            fapswitch 2.2
_symmetry_space_group_name_H-M    P1
_symmetry_Int_Tables_number       1
_space_group_crystal_system       triclinic
_cell_length_a                    20.607564
_cell_length_b                    7.111434
_cell_length_c                    16.524387
_cell_angle_alpha                 89.865887
_cell_angle_beta                  92.434733
_cell_angle_gamma                 90.15335
_cell_volume                      2419.43708209

loop_
_atom_site_label
_atom_site_type_symbol
_atom_site_description
_atom_site_fract_x
_atom_site_fract_y
_atom_site_fract_z
_atom_type_partial_charge
O1    O     O_R   0.564840 0.505290 0.579830 -0.515050
O2    O     O_R   0.435160 0.005290 0.420170 -0.529913
O3    O     O_R   0.556720 0.179930 0.409350 -0.550283
O4    O     O_R   0.443280 0.679930 0.590650 -0.545102
C1    C     C_R   0.569438 0.344608 0.380223 0.909403
C2    C     C_R   0.430812 0.844006 0.620109 0.912568
O5    O     O_R   0.572280 0.175810 0.578530 -0.546095
O6    O     O_R   0.427720 0.675810 0.421470 -0.534430
O7    O     O_R   0.450830 0.001920 0.590540 -0.543535
O8    O     O_R   0.549170 0.501920 0.409460 -0.534381
C3    C     C_R   0.590002 0.344156 0.604502 0.935711
C4    C     C_R   0.410117 0.844006 0.395251 0.939492
O9    O     O_3   0.460130 0.338030 0.503750 -0.268708
O10   O     O_3   0.539870 0.838030 0.496250 -0.263179
V1    V     V_3+5 0.507400 0.064560 0.499310 1.277071
V2    V     V_3+5 0.492600 0.564560 0.500690 1.290094
C5    C     C_R   0.141119 0.913598 0.169786 -0.146284
C6    C     C_R   0.859309 0.413858 0.829459 -0.137319
C7    C     C_R   0.357829 0.852181 0.330524 -0.190608
C8    C     C_R   0.642401 0.353013 0.668942 -0.189812
C9    C     C_R   0.319420 0.825900 0.189216 -0.092633
C10   C     C_R   0.680975 0.323745 0.810101 -0.092451
C11   C     C_R   0.371014 0.818450 0.248044 -0.099044
C12   C     C_R   0.629365 0.316906 0.751337 -0.100188
C13   C     C_R   0.293583 0.893817 0.351810 0.327500
C14   C     C_R   0.706882 0.391696 0.647240 0.327266
C15   C     C_R   0.242456 0.902133 0.291600 -0.029972
C16   C     C_R   0.758144 0.397415 0.707362 -0.028929
C17   C     C_R   0.255780 0.867065 0.210081 0.040094
C18   C     C_R   0.744692 0.364437 0.789092 0.038171
C19   C     C_R   0.205223 0.872755 0.150052 -0.148625
C20   C     C_R   0.795115 0.373015 0.849256 -0.152775
C21   C     C_R   0.126923 0.948054 0.251672 0.297293
C22   C     C_R   0.873677 0.443917 0.747158 0.307255
C23   C     C_R   0.177971 0.941414 0.311332 -0.081595
C24   C     C_R   0.822624 0.437122 0.687593 -0.070360
H1    H     H_    0.215779 0.846236 0.087397 0.058213
H2    H     H_    0.784389 0.348335 0.912041 0.058466
H3    H     H_    0.328878 0.800690 0.126107 0.116606
H4    H     H_    0.671433 0.298577 0.873250 0.115515
H5    H     H_    0.166814 0.964665 0.373812 0.192705
H6    H     H_    0.833695 0.464556 0.625282 0.176559
C25   C     C_R   0.379761 0.787869 0.836960 -0.087499
C26   C     C_R   0.619554 0.308598 0.162491 -0.086512
H7    H     H_    0.295594 0.762149 0.953550 0.079002
H8    H     H_    0.702696 0.296804 0.044645 0.077756
H9    H     H_    0.400268 0.749904 0.896250 0.143874
H10   H     H_    0.598431 0.280665 0.102490 0.143921
C27   C     C_R   0.392625 0.848850 0.693942 -0.143373
C28   C     C_R   0.607802 0.351263 0.306708 -0.142399
C29   C     C_R   0.078856 0.970571 0.731783 -0.077310
C30   C     C_R   0.923537 0.448164 0.269599 -0.079757
C31   C     C_R   0.118124 0.010444 0.665512 -0.080412
C32   C     C_R   0.885380 0.464140 0.338521 -0.068046
C33   C     C_R   0.185153 0.978226 0.672873 -0.088972
C34   C     C_R   0.817841 0.445185 0.330906 -0.084828
C35   C     C_R   0.215825 0.911713 0.745115 0.044369
C36   C     C_R   0.785400 0.402515 0.256452 0.046537
C37   C     C_R   0.177060 0.886598 0.813864 0.017210
C38   C     C_R   0.823377 0.387018 0.186586 0.014439
C39   C     C_R   0.284476 0.876298 0.751871 0.053399
C40   C     C_R   0.716217 0.375688 0.249193 0.055560
C41   C     C_R   0.312813 0.822716 0.827998 0.049710
C42   C     C_R   0.686871 0.337349 0.171879 0.048487
C43   C     C_R   0.274177 0.803072 0.895099 -0.082815
C44   C     C_R   0.724878 0.325961 0.103981 -0.080179
C45   C     C_R   0.207535 0.832996 0.888149 -0.076990
C46   C     C_R   0.791811 0.349545 0.111121 -0.071782
C47   C     C_R   0.325915 0.888456 0.685474 -0.110085
C48   C     C_R   0.675093 0.382218 0.315979 -0.109830
C49   C     C_R   0.420431 0.800338 0.771034 -0.068620
C50   C     C_R   0.579275 0.314217 0.228869 -0.068597
C51   C     C_R   0.108762 0.917931 0.807435 -0.128150
C52   C     C_R   0.892064 0.411761 0.192991 -0.119255
H11   H     H_    0.307690 0.922290 0.625330 0.140160
H12   H     H_    0.693810 0.405965 0.376815 0.138773
H13   H     H_    0.213090 0.014323 0.621599 0.161493
H14   H     H_    0.791802 0.462516 0.385423 0.154777
H15   H     H_    0.180030 0.813167 0.941846 0.040108
H16   H     H_    0.818703 0.337153 0.056592 0.032528
O11   O     O_R   0.950790 0.256670 0.090520 -0.520407
O12   O     O_R   0.049210 0.756670 0.909480 -0.531401
O13   O     O_R   0.927720 0.590370 0.921470 -0.549341
O14   O     O_R   0.072280 0.090370 0.078530 -0.534983
C53   C     C_R   0.910214 0.421577 0.895344 0.894716
C54   C     C_R   0.090216 0.921599 0.104034 0.884766
O15   O     O_R   0.943270 0.586180 0.090640 -0.559704
O16   O     O_R   0.056730 0.086180 0.909360 -0.541765
O17   O     O_R   0.064850 0.759970 0.079840 -0.548198
O18   O     O_R   0.935150 0.259970 0.920160 -0.528669
C55   C     C_R   0.930623 0.417826 0.119167 0.843983
C56   C     C_R   0.069370 0.918660 0.880698 0.841111
O19   O     O_3   0.039850 0.428050 0.996240 -0.276457
O20   O     O_3   0.960150 0.928050 0.003760 -0.276718
V3    V     V_3+5 0.992610 0.701540 0.000700 1.221196
V4    V     V_3+5 0.007390 0.201540 0.999300 1.241301
C57   C     C_2   0.006666 0.974277 0.720608 0.976881
O21   O     O_2   0.973396 0.052977 0.769717 -0.588606
O22   O     O_R   0.976811 0.886287 0.653150 -0.677480
H17   H     H_    0.927738 0.897599 0.651921 0.328985
C58   C     C_2   0.995603 0.477177 0.276938 0.951289
O23   O     O_2   0.031553 0.389203 0.233923 -0.574308
O24   O     O_R   0.022526 0.605541 0.332898 -0.682585
H18   H     H_    0.071747 0.607672 0.333589 0.326200
C59   C     C_2   0.092300 0.101948 0.589350 0.971745
O25   O     O_2   0.040826 0.186984 0.587726 -0.488590
O26   O     O_R   0.129075 0.100476 0.520191 -0.703109
H19   H     H_    0.109607 0.182286 0.475204 0.364319
C60   C     C_2   0.913785 0.499433 0.420996 1.004691
O27   O     O_2   0.960335 0.408010 0.447080 -0.493818
O28   O     O_R   0.885653 0.634729 0.469674 -0.707007
H20   H     H_    0.909926 0.651059 0.523760 0.361928
N1    N     N_R   0.061649 0.987537 0.275884 0.111663
O29   O     O_R   0.051940 0.052201 0.347925 -0.314963
O30   O     O_R   0.011055 0.947778 0.229203 -0.343810
N2    N     N_R   0.939163 0.475962 0.721903 0.095517
O31   O     O_R   0.952707 0.455475 0.646289 -0.293391
O32   O     O_R   0.985841 0.525640 0.772892 -0.358349
C61   C     C_2   0.437735 0.776538 0.220665 0.906344
O33   O     O_2   0.444789 0.715502 0.152398 -0.583254
O34   O     O_R   0.492696 0.808872 0.271369 -0.753394
H21   H     H_    0.534663 0.774746 0.245100 0.310331
C62   C     C_2   0.562785 0.271775 0.778580 0.906467
O35   O     O_2   0.556079 0.202326 0.845537 -0.582241
O36   O     O_R   0.507592 0.310100 0.729175 -0.753970
H22   H     H_    0.465758 0.272549 0.755137 0.310344
N3    N     N_R   0.280234 0.921853 0.435244 0.055031
O37   O     O_R   0.269298 0.090068 0.462135 -0.347891
O38   O     O_R   0.281199 0.779516 0.484828 -0.387222
N4    N     N_R   0.720297 0.420353 0.563668 0.047112
O39   O     O_R   0.753401 0.295906 0.525342 -0.380597
O40   O     O_R   0.698193 0.568457 0.525395 -0.372150
C63   C     C_2   0.491263 0.762333 0.785516 0.905468
O41   O     O_2   0.530285 0.801810 0.734371 -0.609060
O42   O     O_R   0.513714 0.683386 0.859098 -0.721532
H23   H     H_    0.562555 0.665304 0.862125 0.318779
C64   C     C_2   0.508188 0.279580 0.214159 0.899836
O43   O     O_2   0.469539 0.315091 0.266111 -0.610290
O44   O     O_R   0.485122 0.207425 0.139619 -0.720256
H24   H     H_    0.436226 0.189843 0.136737 0.320111

loop_
_geom_bond_atom_site_label_1
_geom_bond_atom_site_label_2
_geom_bond_distance
_ccdc_geom_bond_type
C29   C57   1.491574 S    
C34   H14   1.075468 S    
C44   C46   1.389115 A    
O16   V4    2.013507 S    
C36   C40   1.437887 A    
C58   O23   1.222617 D    
O15   C55   1.315158 A    
C15   C17   1.409069 A    
C31   C33   1.400903 A    
C24   H6    1.081235 S    
O28   H20   1.012251 S    
O1    C3    1.315743 A    
O2    C4    1.316204 A    
C2    O7    1.296967 A    
C41   C43   1.398774 A    
C57   O21   1.221983 D    
C25   C41   1.403919 A    
O42   H23   1.014118 S    
C26   C42   1.403806 A    
O5    C3    1.318164 A    
C59   O26   1.397911 S    
O14   C54   1.319658 A    
H8    C44   1.084284 S    
C30   C52   1.421647 A    
C60   O28   1.398252 S    
C11   C61   1.496574 S    
C33   H13   1.074648 S    
C62   O36   1.398630 S    
C22   N2    1.446720 S    
O12   C56   1.318154 A    
N2    O31   1.300396 A    
C40   C48   1.420626 A    
O14   V4    1.994824 S    
C38   C52   1.425394 A    
C39   C41   1.416046 A    
C28   C50   1.416322 A    
C40   C42   1.416809 A    
C37   C45   1.407148 A    
C8    C12   1.421591 A    
N2    O32   1.300274 A    
C43   C45   1.390160 A    
O15   V3    2.008448 S    
O26   H19   1.012872 S    
C26   C50   1.404054 A    
C20   H2    1.083727 S    
C18   C20   1.408557 A    
C37   C51   1.425021 A    
C14   N4    1.433837 S    
O6    V2    1.994813 S    
O5    V1    1.994406 S    
O13   V3    1.994416 S    
C58   O24   1.397799 S    
C27   C47   1.405123 A    
C5    C21   1.418492 A    
C7    C13   1.416474 A    
O4    V2    2.013568 S    
C57   O22   1.398419 S    
C30   C32   1.416148 A    
C36   C38   1.426634 A    
C61   O34   1.398755 S    
C3    C8    1.485303 S    
C53   O18   1.317596 A    
C32   C34   1.398331 A    
C30   C58   1.498659 S    
C6    C53   1.480447 S    
C5    C54   1.478957 S    
O16   C56   1.313836 A    
C62   O35   1.223633 D    
C45   H15   1.081761 S    
O4    C2    1.295893 A    
O11   V4    1.985164 S    
C7    C11   1.422065 A    
C15   C23   1.410487 A    
C9    C17   1.401949 A    
O18   V4    1.983534 S    
C12   C62   1.495860 S    
C19   H1    1.084014 S    
C32   C60   1.481899 S    
C29   C31   1.416719 A    
C42   C44   1.397948 A    
C52   C55   1.484360 S    
O17   V3    1.983147 S    
N4    O40   1.300664 A    
N3    O38   1.300441 A    
C64   O44   1.399397 S    
O22   H17   1.014023 S    
C9    H3    1.084426 S    
O6    C4    1.317776 A    
C10   H4    1.084421 S    
O1    V2    1.984796 S    
C61   O33   1.224196 D    
O20   V4    2.175106 S    
O2    V1    1.984402 S    
C6    C22   1.419659 A    
C38   C46   1.407452 A    
O34   H21   1.014289 S    
C50   C64   1.494607 S    
O13   C53   1.320706 A    
O19   V4    1.743976 S    
C33   C35   1.408246 A    
H7    C43   1.084237 S    
O36   H22   1.014017 S    
C5    C19   1.405297 A    
C10   C12   1.410194 A    
C1    C28   1.477866 S    
C6    C20   1.405562 A    
C46   H16   1.081598 S    
O3    V1    2.008507 S    
N1    O29   1.300736 A    
C64   O43   1.222817 D    
C39   C47   1.421007 A    
C25   C49   1.404921 A    
O12   V3    1.982536 S    
C10   C18   1.401624 A    
C14   C16   1.419658 A    
C29   C51   1.419960 A    
C51   C56   1.485990 S    
O3    C1    1.295474 A    
C54   O17   1.317350 A    
C49   C63   1.494356 S    
O44   H24   1.014139 S    
C35   C39   1.437263 A    
C13   C15   1.419306 A    
C59   O25   1.221700 D    
C21   N1    1.447961 S    
C9    C11   1.410848 A    
N4    O39   1.300863 A    
O7    V1    1.993356 S    
C1    O8    1.296749 A    
C17   C19   1.408291 A    
C26   H10   1.084324 S    
O8    V2    1.996321 S    
C60   O27   1.222946 D    
C48   H12   1.074890 S    
C63   O41   1.222771 D    
C8    C14   1.417048 A    
C4    C7    1.486805 S    
C16   C18   1.409177 A    
C21   C23   1.411629 A    
C34   C36   1.408344 A    
C47   H11   1.074396 S    
C22   C24   1.410657 A    
C2    C27   1.480152 S    
C13   N3    1.431800 S    
O20   V3    1.747498 S    
C23   H5    1.080424 S    
C28   C48   1.405480 A    
C35   C37   1.426903 A    
O11   C55   1.316071 A    
C31   C59   1.493879 S    
C16   C24   1.409438 A    
O19   V3    2.180069 S    
C27   C49   1.416737 A    
O9    V2    1.744187 S    
O24   H18   1.013981 S    
C63   O42   1.399304 S    
O10   V1    1.747709 S    
C25   H9    1.084237 S    
N3    O37   1.300647 A    
N1    O30   1.301204 A    
