data_mof_unit_39786.cif
_audit_creation_date              2012-12-11T14:06:34-0500
_audit_creation_method            fapswitch 2.2
_symmetry_space_group_name_H-M    P1
_symmetry_Int_Tables_number       1
_space_group_crystal_system       triclinic
_cell_length_a                    6.925778
_cell_length_b                    17.291426
_cell_length_c                    24.100703
_cell_angle_alpha                 104.487092
_cell_angle_beta                  90.290958
_cell_angle_gamma                 89.951152
_cell_volume                      2794.41131037

loop_
_atom_site_label
_atom_site_type_symbol
_atom_type_description
_atom_site_fract_x
_atom_site_fract_y
_atom_site_fract_z
_atom_type_partial_charge
O1    O     O_R   0.494290 0.391990 0.999150 -0.535289
O2    O     O_R   0.827170 0.534410 0.082350 -0.541986
O3    O     O_R   0.994360 0.608010 0.000850 -0.535294
C1    C     C_R   0.658519 0.550296 0.105935 0.715030
O4    O     O_R   0.824210 0.388010 0.004470 -0.547288
O5    O     O_R   0.991370 0.460560 0.922410 -0.539566
C2    C     C_R   0.654548 0.354894 0.001553 0.775279
O6    O     O_R   0.497270 0.539440 0.077590 -0.538014
O7    O     O_3   0.659770 0.523970 0.973170 -0.371771
V1    V     V_3+5 0.935840 0.495550 0.004980 1.409738
O8    O     O_R   0.320910 0.465590 0.917650 -0.542177
C3    C     C_R   0.151726 0.450098 0.894029 0.707381
O9    O     O_R   0.323870 0.611990 0.995530 -0.546938
C4    C     C_R   0.154376 0.645126 0.998544 0.773099
V2    V     V_3+5 0.435470 0.504450 0.995020 1.411643
O10   O     O_3   0.161670 0.476030 0.026830 -0.370387
C5    C     C_2   0.142773 0.730274 0.998146 -0.345114
H1    H     H_    0.277203 0.761096 0.994785 0.150101
C6    C     C_2   0.972800 0.769798 0.002068 -0.341298
H2    H     H_    0.838373 0.738978 0.005438 0.149694
C7    C     C_R   0.949066 0.275858 0.626373 0.587350
N1    N     N_R   0.102076 0.324474 0.648966 -0.555196
C8    C     C_R   0.241337 0.342480 0.613667 0.580246
C9    C     C_R   0.230870 0.310929 0.553860 -0.029799
C10   C     C_R   0.072828 0.262380 0.530296 -0.020038
C11   C     C_R   0.929969 0.244958 0.566704 -0.024061
C12   C     C_R   0.373747 0.327286 0.517103 -0.155669
C13   C     C_R   0.358948 0.296373 0.457814 -0.141166
C14   C     C_R   0.200568 0.248539 0.433761 -0.025988
C15   C     C_R   0.057398 0.231301 0.470167 -0.020753
C16   C     C_R   0.898616 0.183205 0.446588 -0.033133
C17   C     C_R   0.756305 0.166483 0.483361 -0.157131
C18   C     C_R   0.771887 0.196901 0.542671 -0.139752
C19   C     C_R   0.180904 0.217974 0.374069 0.589819
N2    N     N_R   0.025700 0.170807 0.351484 -0.548530
C20   C     C_R   0.886335 0.152848 0.386713 0.584838
O11   O     O_2   0.816544 0.256479 0.661482 -0.525338
O12   O     O_2   0.388354 0.391752 0.636129 -0.523837
H3    H     H_    0.497700 0.363970 0.533998 0.169881
H4    H     H_    0.471967 0.310222 0.430923 0.171612
O13   O     O_2   0.314700 0.236365 0.338921 -0.528748
O14   O     O_2   0.737052 0.105047 0.364031 -0.522094
H5    H     H_    0.632091 0.129972 0.466460 0.170028
H6    H     H_    0.659151 0.182853 0.569573 0.173515
C21   C     C_R   0.155925 0.094469 0.258240 -0.095566
H7    H     H_    0.283803 0.080273 0.279778 0.163289
C22   C     C_R   0.140354 0.066427 0.198731 -0.278975
H8    H     H_    0.257353 0.030996 0.175707 0.158477
C23   C     C_R   0.975212 0.082611 0.169274 -0.081027
C24   C     C_R   0.824982 0.129090 0.201047 0.241916
C25   C     C_R   0.842909 0.157193 0.260914 -0.153547
H9    H     H_    0.729236 0.193697 0.284913 0.165310
C26   C     C_R   0.007870 0.140380 0.289928 0.332490
C27   C     C_R   0.284284 0.346433 0.740667 -0.079550
H10   H     H_    0.405021 0.313053 0.718200 0.165866
C28   C     C_R   0.297413 0.377964 0.800047 -0.203166
H11   H     H_    0.428709 0.368492 0.822070 0.135139
C29   C     C_R   0.140780 0.419291 0.830812 -0.056653
C30   C     C_R   0.972215 0.429700 0.800695 -0.202721
H12   H     H_    0.849528 0.461662 0.823107 0.137842
C31   C     C_R   0.960974 0.399896 0.741161 -0.080978
C32   C     C_R   0.116064 0.357193 0.710479 0.355060
C33   C     C_R   0.574195 0.876879 0.614878 0.572956
N3    N     N_R   0.507914 0.828421 0.647954 -0.559499
C34   C     C_R   0.459666 0.750249 0.623482 0.574348
C35   C     C_R   0.478381 0.718002 0.563866 -0.029071
C36   C     C_R   0.546798 0.767046 0.529534 -0.014919
C37   C     C_R   0.594797 0.847231 0.555095 -0.028874
C38   C     C_R   0.431690 0.637916 0.537864 -0.138646
C39   C     C_R   0.452557 0.607074 0.478719 -0.147269
C40   C     C_R   0.520261 0.655542 0.443972 -0.028693
C41   C     C_R   0.567320 0.735834 0.469509 -0.015487
C42   C     C_R   0.634635 0.785020 0.435149 -0.035209
C43   C     C_R   0.681866 0.865040 0.461155 -0.140952
C44   C     C_R   0.662340 0.895724 0.520345 -0.143315
C45   C     C_R   0.540684 0.625932 0.384171 0.554512
N4    N     N_R   0.604515 0.674710 0.351013 -0.545164
C46   C     C_R   0.652232 0.752953 0.375518 0.606727
O15   O     O_2   0.619172 0.953702 0.639643 -0.517228
O16   O     O_2   0.396015 0.703461 0.656734 -0.517323
H13   H     H_    0.379042 0.598695 0.563134 0.177176
O17   O     O_2   0.494153 0.549308 0.359316 -0.523689
O18   O     O_2   0.716546 0.799733 0.342353 -0.525228
H14   H     H_    0.733992 0.904324 0.435861 0.176650
H15   H     H_    0.700272 0.957630 0.538744 0.170065
C47   C     C_R   0.492940 0.671698 0.252100 0.330189
C48   C     C_R   0.507931 0.640618 0.192454 -0.265695
H16   H     H_    0.410962 0.662291 0.164282 0.124829
C49   C     C_R   0.647354 0.582686 0.169029 -0.076488
C50   C     C_R   0.772560 0.555912 0.206288 -0.217143
H17   H     H_    0.881177 0.511263 0.189357 0.140967
C51   C     C_R   0.755831 0.585313 0.265860 -0.172851
H18   H     H_    0.852838 0.563455 0.293868 0.150648
C52   C     C_R   0.617431 0.643685 0.289390 0.352817
C53   C     C_R   0.313140 0.868797 0.736722 -0.081839
H19   H     H_    0.182465 0.852952 0.711615 0.121209
C54   C     C_R   0.300336 0.898684 0.796405 -0.196405
H20   H     H_    0.159153 0.904893 0.816104 0.127012
C55   C     C_R   0.468125 0.919551 0.830160 -0.057313
C56   C     C_R   0.648551 0.910102 0.802427 -0.195284
H21   H     H_    0.780987 0.925474 0.826735 0.131042
C57   C     C_R   0.660904 0.880668 0.742874 -0.087459
H22   H     H_    0.801292 0.873741 0.722663 0.118514
C58   C     C_R   0.493616 0.859560 0.709462 0.378575
C59   C     C_2   0.642839 0.269750 0.002067 -0.349812
H23   H     H_    0.777307 0.238893 0.005625 0.147923
C60   C     C_2   0.472652 0.230266 0.998004 -0.354484
H24   H     H_    0.338157 0.261142 0.994528 0.151656
O19   O     O_R   0.618210 0.960470 0.922400 -0.542124
O20   O     O_R   0.291310 0.111960 0.995450 -0.547158
O21   O     O_R   0.124210 0.039530 0.077580 -0.543726
C61   C     C_R   0.460958 0.145094 0.998426 0.781917
O22   O     O_R   0.288310 0.965490 0.917650 -0.543208
O23   O     O_R   0.121180 0.892010 0.999220 -0.536831
C62   C     C_R   0.457054 0.950009 0.893810 0.701486
O24   O     O_R   0.621230 0.107990 0.000760 -0.532428
O25   O     O_3   0.455770 0.976060 0.026840 -0.366214
V3    V     V_3+5 0.179680 0.004440 0.995020 1.410627
O26   O     O_R   0.791670 0.888040 0.004570 -0.548002
C63   C     C_R   0.961178 0.854922 0.001603 0.768160
O27   O     O_R   0.794680 0.034510 0.082370 -0.516629
C64   C     C_R   0.963693 0.050920 0.105943 0.730619
V4    V     V_3+5 0.680070 0.995560 0.005010 1.436084
O28   O     O_3   0.953840 0.023940 0.973160 -0.375735
H25   H     H_    0.830736 0.409919 0.718889 0.157301
H26   H     H_    0.415058 0.545121 0.460329 0.169899
N5    N     N_2   0.354403 0.732046 0.274422 -0.497121
H27   H     H_    0.328270 0.769729 0.248114 0.263299
C65   C     C_3   0.177542 0.702489 0.293111 -0.513286
H28   H     H_    0.082745 0.753589 0.312874 0.238730
H29   H     H_    0.207447 0.668359 0.325568 0.209603
H30   H     H_    0.101348 0.663604 0.255813 0.192776
N6    N     N_2   0.657041 0.149172 0.173336 -0.507239
H31   H     H_    0.534173 0.154579 0.198049 0.268894
C66   C     C_3   0.681933 0.216645 0.148659 -0.503216
H32   H     H_    0.713545 0.271551 0.182861 0.193035
H33   H     H_    0.547156 0.226238 0.126154 0.189250
H34   H     H_    0.801343 0.205537 0.117062 0.182656

loop_
_geom_bond_atom_site_label_1
_geom_bond_atom_site_label_2
_ccdc_geom_bond_type
C66   H34   S    
C48   H16   S    
O24   V4    S    
N2    C26   S    
C42   C43   A    
C20   O14   S    
C53   H19   S    
C9    C12   A    
C1    O6    A    
O20   V3    S    
C65   H28   S    
C54   H20   S    
V4    O28   S    
C22   C23   A    
C33   O15   S    
N4    C46   A    
C37   C44   A    
C59   C60   D    
O21   V3    S    
C13   C14   A    
C36   C41   A    
C55   C62   S    
C15   C16   A    
C35   C38   A    
C13   H4    S    
V2    O10   S    
N4    C52   S    
C28   H11   S    
C66   H33   S    
C19   N2    A    
C60   C61   S    
C56   H21   S    
C47   C52   A    
C27   H10   S    
O8    V2    S    
C46   O18   S    
C44   H15   S    
C16   C17   A    
C12   H3    S    
C8    C9    A    
C2    C59   S    
C39   C40   A    
O1    V2    S    
O7    V1    S    
C31   C32   A    
C65   H30   S    
C3    C29   S    
C39   H26   S    
C35   C36   A    
C21   C26   A    
C30   H12   S    
C34   O16   S    
O9    C4    A    
O21   C64   A    
C4    C5    S    
C38   C39   A    
C19   O13   S    
C56   C57   A    
C54   C55   A    
C7    C11   A    
C5    H1    S    
C21   C22   A    
C27   C28   A    
C30   C31   A    
C43   C44   A    
C33   N3    A    
C36   C37   A    
O8    C3    A    
C66   H32   S    
C45   N4    A    
C45   O17   S    
O4    C2    A    
C47   C48   A    
O19   V4    S    
C27   C32   A    
C10   C11   A    
C21   H7    S    
C14   C19   A    
C25   H9    S    
C25   C26   A    
N2    C20   A    
O2    C1    A    
N5    C65   S    
C14   C15   A    
N1    C32   S    
C11   C18   A    
C50   C51   A    
C22   H8    S    
C42   C46   A    
C51   C52   A    
C24   C25   A    
V3    O28   S    
C9    C10   A    
C57   C58   A    
O27   C64   A    
O23   V3    S    
O3    C4    A    
C6    C63   S    
C23   C24   A    
O6    V2    S    
C48   C49   A    
N6    H31   S    
C60   H24   S    
N5    H27   S    
O2    V1    S    
C61   O24   A    
C53   C58   A    
C1    C49   S    
C10   C15   A    
N3    C58   S    
C33   C37   A    
C47   N5    S    
O1    C2    A    
C18   H6    S    
N1    C8    A    
C43   H14   S    
C41   C42   A    
C24   N6    S    
O5    V1    S    
O26   C63   A    
C53   C54   A    
O26   V4    S    
C8    O12   S    
C59   H23   S    
C55   C56   A    
C17   C18   A    
C6    H2    S    
O9    V2    S    
C29   C30   A    
O4    V1    S    
O3    V1    S    
V1    O10   S    
O25   V3    S    
N3    C34   A    
O5    C3    A    
C50   H17   S    
C40   C45   A    
C23   C64   S    
C51   H18   S    
C5    C6    D    
C17   H5    S    
C28   C29   A    
O25   V4    S    
C57   H22   S    
O20   C61   A    
O27   V4    S    
C38   H13   S    
O19   C62   A    
O22   V3    S    
C40   C41   A    
C7    O11   S    
C34   C35   A    
C12   C13   A    
N6    C66   S    
C16   C20   A    
C31   H25   S    
O22   C62   A    
C49   C50   A    
C7    N1    A    
O23   C63   A    
O7    V2    S    
C65   H29   S    
