data_mof_unit_28382.cif
_audit_creation_date              2013-03-05T15:43:53-0500
_audit_creation_method            fapswitch 2.2
_symmetry_space_group_name_H-M    P1
_symmetry_Int_Tables_number       1
_space_group_crystal_system       triclinic
_cell_length_a                    7.313248
_cell_length_b                    13.799181
_cell_length_c                    16.744202
_cell_angle_alpha                 90.021422
_cell_angle_beta                  96.663529
_cell_angle_gamma                 90.220455
_cell_volume                      1678.34394599

loop_
_atom_site_label
_atom_site_type_symbol
_atom_site_description
_atom_site_fract_x
_atom_site_fract_y
_atom_site_fract_z
_atom_type_partial_charge
O1    O     O_R   0.525340 0.338340 0.164530 -0.559630
O2    O     O_R   0.474660 0.661660 0.835470 -0.559802
O3    O     O_R   0.974660 0.838340 0.835470 -0.595819
O4    O     O_R   0.025340 0.161660 0.164530 -0.562628
O5    O     O_R   0.253520 0.352000 0.336710 -0.498536
O6    O     O_R   0.746480 0.648000 0.663290 -0.472369
O7    O     O_R   0.246480 0.852000 0.663290 -0.478840
O8    O     O_R   0.753520 0.148000 0.336710 -0.491801
O9    O     O_R   0.083330 0.168380 0.337300 -0.481417
O10   O     O_R   0.916670 0.831620 0.662700 -0.496307
O11   O     O_R   0.416670 0.668380 0.662700 -0.499404
O12   O     O_R   0.583330 0.331620 0.337300 -0.486843
C1    C     C_R   0.431693 0.369255 0.363370 0.933514
C2    C     C_R   0.567806 0.630572 0.636791 0.949485
C3    C     C_R   0.069299 0.868412 0.636230 0.887612
C4    C     C_R   0.930546 0.132186 0.364592 0.946872
O13   O     O_R   0.195840 0.349670 0.165140 -0.561200
O14   O     O_R   0.804160 0.650330 0.834860 -0.554971
O15   O     O_R   0.304160 0.849670 0.834860 -0.550730
O16   O     O_R   0.695840 0.150330 0.165140 -0.553004
C5    C     C_R   0.357043 0.369101 0.136172 0.891403
C6    C     C_R   0.643104 0.631155 0.863994 0.893965
C7    C     C_R   0.142743 0.870175 0.863161 0.850055
C8    C     C_R   0.856434 0.131763 0.135519 0.896082
O17   O     O_3   0.387830 0.193120 0.250910 -0.271261
O18   O     O_3   0.612170 0.806880 0.749090 -0.266676
O19   O     O_3   0.112170 0.693120 0.749090 -0.267563
O20   O     O_3   0.887830 0.306880 0.250910 -0.273363
V1    V     V_3+5 0.113010 0.264540 0.250910 1.306255
V2    V     V_3+5 0.886990 0.735460 0.749090 1.293020
V3    V     V_3+5 0.386990 0.764540 0.749090 1.316385
V4    V     V_3+5 0.613010 0.235460 0.250910 1.315329
H1    H     H_    0.060168 0.800822 0.268244 0.143605
H2    H     H_    0.955999 0.186182 0.737435 0.151431
H3    H     H_    0.356716 0.309297 0.725201 0.155364
H4    H     H_    0.665199 0.688963 0.278921 0.143085
C9    C     C_R   0.919424 0.198914 0.535524 0.367424
C10   C     C_R   0.061120 0.796379 0.468864 0.363443
C11   C     C_R   0.569527 0.703232 0.470225 0.373748
C12   C     C_R   0.406159 0.299687 0.528314 0.370355
C13   C     C_R   0.889705 0.220681 0.614675 -0.140021
C14   C     C_R   0.079376 0.765689 0.391228 -0.134934
C15   C     C_R   0.630838 0.729191 0.397645 -0.141435
C16   C     C_R   0.360780 0.272664 0.603448 -0.152917
C17   C     C_R   0.951449 0.159383 0.676439 -0.129979
C18   C     C_R   0.053568 0.828537 0.328429 -0.105102
C19   C     C_R   0.631331 0.663564 0.336683 -0.119600
C20   C     C_R   0.380263 0.335869 0.666324 -0.113590
C21   C     C_R   0.040065 0.074087 0.659804 0.279161
C22   C     C_R   0.005273 0.924162 0.340280 0.352372
C23   C     C_R   0.559796 0.571197 0.344520 0.351081
C24   C     C_R   0.452137 0.427837 0.657361 0.343123
C25   C     C_R   0.014508 0.035261 0.580114 -0.051033
C26   C     C_R   0.997833 0.963217 0.419494 -0.074842
C27   C     C_R   0.522263 0.534901 0.421376 -0.078407
C28   C     C_R   0.478762 0.465244 0.579400 -0.070745
C29   C     C_R   0.962503 0.100010 0.514720 -0.008472
C30   C     C_R   0.029991 0.897383 0.485998 -0.025201
C31   C     C_R   0.542590 0.601201 0.487941 -0.013774
C32   C     C_R   0.448379 0.400221 0.512186 -0.006783
C33   C     C_R   0.039049 0.934578 0.566098 -0.031461
C34   C     C_R   0.961324 0.064087 0.433748 -0.031424
C35   C     C_R   0.466641 0.436188 0.433092 -0.032955
C36   C     C_R   0.531059 0.564271 0.567210 -0.028260
H5    H     H_    0.843269 0.291822 0.630578 0.149664
H6    H     H_    0.105831 0.690298 0.378643 0.145386
H7    H     H_    0.663673 0.804068 0.385725 0.134789
H8    H     H_    0.324052 0.198651 0.615459 0.164597
H9    H     H_    0.135975 0.065582 0.056492 0.121050
H10   H     H_    0.861397 0.939036 0.939953 0.110846
H11   H     H_    0.364181 0.566664 0.944630 0.120387
H12   H     H_    0.636651 0.434805 0.056479 0.120174
C37   C     C_2   0.148943 0.938767 0.932476 -0.115206
C38   C     C_2   0.849420 0.063251 0.066085 -0.122543
C39   C     C_2   0.351055 0.438856 0.067824 -0.120268
C40   C     C_2   0.649466 0.561953 0.932758 -0.118769
C41   C     C_2   0.995296 0.967078 0.964413 -0.081818
C42   C     C_2   0.002319 0.036503 0.032833 -0.043874
C43   C     C_2   0.503754 0.465326 0.034186 -0.049286
C44   C     C_2   0.497033 0.536014 0.966824 -0.048554
H13   H     H_    0.716394 0.033719 0.042031 0.064257
H14   H     H_    0.282141 0.967281 0.957437 0.078075
H15   H     H_    0.781754 0.531118 0.955606 0.062789
H16   H     H_    0.218729 0.469532 0.044825 0.062794
N1    N     N_R   0.916714 0.280619 0.481845 0.083787
O21   O     O_R   0.817921 0.355706 0.494813 -0.378024
O22   O     O_R   0.057240 0.296777 0.443864 -0.368466
N2    N     N_R   0.068363 0.721033 0.527225 0.065718
O23   O     O_R   0.188842 0.652909 0.525039 -0.389682
O24   O     O_R   0.915760 0.696948 0.552998 -0.370307
N3    N     N_R   0.513165 0.783897 0.516411 0.071466
O25   O     O_R   0.425363 0.854172 0.477226 -0.375465
O26   O     O_R   0.608409 0.808133 0.583254 -0.313176
N4    N     N_R   0.421029 0.220891 0.473329 0.082384
O27   O     O_R   0.315541 0.145547 0.475994 -0.359259
O28   O     O_R   0.577542 0.205802 0.447665 -0.362198
N5    N     N_R   0.188323 0.043234 0.717954 0.055934
O29   O     O_R   0.349489 0.029309 0.694226 -0.329773
O30   O     O_R   0.181637 0.062651 0.793543 -0.414345
N6    N     N_R   0.953233 0.976148 0.268467 0.030951
O31   O     O_R   0.778945 0.976718 0.241866 -0.390421
O32   O     O_R   0.073115 0.981001 0.216960 -0.382255
N7    N     N_R   0.505453 0.522656 0.270810 0.038940
O33   O     O_R   0.626480 0.513838 0.220140 -0.376882
O34   O     O_R   0.331852 0.526022 0.243255 -0.407390
N8    N     N_R   0.513953 0.475735 0.730629 0.035422
O35   O     O_R   0.400064 0.481404 0.784641 -0.383508
O36   O     O_R   0.689865 0.474656 0.754066 -0.399011

loop_
_geom_bond_atom_site_label_1
_geom_bond_atom_site_label_2
_geom_bond_distance
_ccdc_geom_bond_type
O1    C5    1.337554 A    
C12   C32   1.452290 A    
C27   C31   1.435670 A    
O13   V1    2.001781 S    
O3    C7    1.335062 A    
C6    C40   1.492818 S    
O15   V3    2.003884 S    
N5    O29   1.301668 A    
C29   C34   1.442495 A    
C41   C42   1.489313 S    
C31   C36   1.433421 A    
C22   C26   1.438435 A    
C32   C35   1.434968 A    
C9    N1    1.440913 S    
O20   V1    1.749485 S    
O9    C4    1.349486 A    
C10   C14   1.388304 A    
H12   C43   1.086460 S    
O10   C3    1.345643 A    
O16   V4    2.003886 S    
O4    C8    1.337419 A    
O11   C2    1.340758 A    
C39   H16   1.086635 S    
O6    C2    1.350958 A    
N8    O35   1.301157 A    
C23   N7    1.418941 S    
H4    C19   1.083886 S    
C14   C18   1.359888 A    
C10   C30   1.447077 A    
C25   C33   1.424437 A    
O16   C8    1.352185 A    
C27   C35   1.440108 A    
O2    C6    1.338060 A    
C28   C36   1.438583 A    
O14   V2    2.001780 S    
O5    C1    1.347728 A    
O4    V1    2.072372 S    
O11   V3    1.993479 S    
O9    V1    1.993086 S    
C30   C33   1.430130 A    
O7    C3    1.342273 A    
C24   N8    1.419403 S    
O18   V3    1.745248 S    
O8    C4    1.342998 A    
O12   V4    1.993478 S    
O19   V2    1.749485 S    
H1    C18   1.084104 S    
H9    C42   1.086449 S    
C4    C34   1.488807 S    
C7    C37   1.493865 S    
H3    C20   1.084045 S    
C40   H15   1.086630 S    
C11   N3    1.443559 S    
H11   C44   1.086483 S    
N5    O30   1.300118 A    
O5    V1    2.054995 S    
N1    O22   1.288544 A    
C11   C15   1.389914 A    
O7    V3    2.060263 S    
O8    V4    2.060262 S    
N3    O25   1.300273 A    
C25   C29   1.431300 A    
C19   C23   1.387950 A    
C26   C34   1.443299 A    
N1    O21   1.297970 A    
O1    V4    2.076489 S    
O13   C5    1.351812 A    
C28   C32   1.435538 A    
C10   N2    1.424045 S    
O2    V3    2.076487 S    
O3    V2    2.072370 S    
O15   C7    1.352942 A    
N3    O26   1.291002 A    
O10   V2    1.993087 S    
C1    C35   1.486421 S    
C17   C21   1.389417 A    
C11   C31   1.456300 A    
N6    O32   1.300778 A    
C3    C33   1.484453 S    
N7    O34   1.300543 A    
H2    C17   1.082925 S    
O12   C1    1.344119 A    
N4    O28   1.286112 A    
C2    C36   1.480307 S    
O6    V2    2.054994 S    
N2    O24   1.285004 A    
C16   H8    1.079947 S    
C39   C43   1.356729 D    
C38   H13   1.086567 S    
C37   H14   1.086658 S    
C26   C30   1.436055 A    
C18   C22   1.387444 A    
C37   C41   1.357896 D    
O14   C6    1.351427 A    
C40   C44   1.356783 D    
C12   N4    1.437058 S    
C13   H5    1.083183 S    
C5    C39   1.492540 S    
C22   N6    1.414876 S    
C8    C38   1.494355 S    
N8    O36   1.300866 A    
O17   V4    1.745248 S    
C21   C25   1.429424 A    
N6    O31   1.300541 A    
C23   C27   1.436548 A    
C9    C13   1.400353 A    
N4    O27   1.296122 A    
C21   N5    1.436580 S    
C43   C44   1.488097 S    
C16   C20   1.361228 A    
C12   C16   1.388603 A    
N2    O23   1.294304 A    
C15   H7    1.083721 S    
C38   C42   1.357966 D    
N7    O33   1.301185 A    
C14   H6    1.083965 S    
C13   C17   1.372647 A    
C20   C24   1.386615 A    
C15   C19   1.364646 A    
C9    C29   1.453157 A    
C24   C28   1.437751 A    
H10   C41   1.086403 S    
