data_mof_unit_33538.cif
_audit_creation_date              2013-03-05T16:46:59-0500
_audit_creation_method            fapswitch 2.2
_symmetry_space_group_name_H-M    P1
_symmetry_Int_Tables_number       1
_space_group_crystal_system       triclinic
_cell_length_a                    14.965944
_cell_length_b                    9.186289
_cell_length_c                    8.099151
_cell_angle_alpha                 90.007361
_cell_angle_beta                  89.950309
_cell_angle_gamma                 90.000789
_cell_volume                      1113.48289277

loop_
_atom_site_label
_atom_site_type_symbol
_atom_site_description
_atom_site_fract_x
_atom_site_fract_y
_atom_site_fract_z
_atom_type_partial_charge
O1    O     O_R   0.500000 0.285350 0.636850 -0.610218
O2    O     O_R   0.500000 0.714650 0.363150 -0.610134
O3    O     O_R   0.500000 0.714650 0.636850 -0.610154
O4    O     O_R   0.500000 0.285350 0.363150 -0.610204
C1    C     C_R   0.500005 0.217525 0.499993 0.942797
C2    C     C_R   0.499983 0.782476 0.500006 0.943081
O5    O     O_R   0.367850 0.500000 0.636890 -0.606296
O6    O     O_R   0.632150 0.500000 0.363110 -0.606275
O7    O     O_R   0.632150 0.500000 0.636890 -0.606325
O8    O     O_R   0.367850 0.500000 0.363110 -0.606315
C3    C     C_R   0.326606 0.499972 0.500072 0.927099
C4    C     C_R   0.673394 0.499911 0.499927 0.927136
Zn1   Zn    Zn3+2 0.500000 0.500000 0.682780 1.063667
Zn2   Zn    Zn3+2 0.500000 0.500000 0.317220 1.063687
N1    N     N_1   0.500000 0.500000 0.073640 -0.010220
N2    N     N_1   0.500000 0.500000 0.926360 -0.010230
C5    C     C_R   0.813790 0.631648 0.519540 0.155118
C6    C     C_R   0.186144 0.368613 0.520422 0.154872
C7    C     C_R   0.813861 0.368592 0.479557 0.154827
C8    C     C_R   0.186206 0.631602 0.480161 0.155001
C9    C     C_R   0.768600 0.500044 0.499747 -0.190142
C10   C     C_R   0.231402 0.500071 0.500238 -0.190066
C11   C     C_R   0.906586 0.367070 0.499018 -0.058471
C12   C     C_R   0.093419 0.633135 0.499172 -0.058209
C13   C     C_R   0.906578 0.633160 0.500537 -0.058303
C14   C     C_R   0.093420 0.367078 0.500924 -0.058546
C15   C     C_R   0.953252 0.500112 0.499906 -0.071911
C16   C     C_R   0.046747 0.500108 0.499963 -0.071881
C17   C     C_R   0.954115 0.236967 0.513759 0.403836
C18   C     C_R   0.045866 0.763227 0.513997 0.404701
C19   C     C_R   0.954145 0.763234 0.485576 0.404796
C20   C     C_R   0.045905 0.236973 0.486078 0.403921
C21   C     C_1   0.499995 0.064641 0.499989 -0.103751
C22   C     C_1   0.499986 0.935362 0.500007 -0.103762
Cl1   Cl    Cl    0.912227 0.105553 0.651607 -0.431239
Cl2   Cl    Cl    0.086957 0.893105 0.654388 -0.430588
Cl3   Cl    Cl    0.913134 0.892996 0.344983 -0.430364
Cl4   Cl    Cl    0.087733 0.105844 0.347789 -0.431097
I1    I     I_    0.742278 0.817501 0.609219 -0.132721
I2    I     I_    0.257156 0.183553 0.612975 -0.132231
I3    I     I_    0.742871 0.183685 0.386554 -0.132208
I4    I     I_    0.257636 0.817198 0.389740 -0.132679

loop_
_geom_bond_atom_site_label_1
_geom_bond_atom_site_label_2
_geom_bond_distance
_ccdc_geom_bond_type
O3    Zn1   2.006665 S    
C13   C19   1.396104 A    
C8    I4    2.141229 S    
C14   C20   1.395952 A    
C11   C15   1.407646 A    
C13   C15   1.407756 A    
C17   Cl1   1.759520 S    
C3    C10   1.424810 S    
C14   C16   1.407630 A    
C6    C14   1.396875 A    
C18   Cl2   1.759366 S    
O6    C4    1.268892 A    
O3    C2    1.271519 A    
C5    C13   1.397102 A    
C21   C22   1.187595 T    
C7    I3    2.140660 S    
C6    C10   1.394156 A    
O5    C3    1.268896 A    
O2    C2    1.271465 A    
C2    C22   1.404462 S    
O1    C1    1.271470 A    
C11   C17   1.396011 A    
C7    C9    1.394112 A    
C8    C10   1.394332 A    
C17   C20   1.391707 A    
C20   Cl4   1.759490 S    
O4    Zn2   2.006666 S    
C18   C19   1.392062 A    
O2    Zn2   2.006571 S    
O7    C4    1.268989 A    
C12   C18   1.396038 A    
O1    Zn1   2.006572 S    
O8    C3    1.268985 A    
N1    N2    1.192842 T    
C19   Cl3   1.759500 S    
O5    Zn1   2.012686 S    
C5    I1    2.141544 S    
Zn1   N2    1.972791 S    
C15   C16   1.399247 A    
C6    I2    2.140828 S    
C7    C11   1.396844 A    
O7    Zn1   2.012051 S    
O6    Zn2   2.012685 S    
Zn2   N1    1.972791 S    
C4    C9    1.424851 S    
C8    C12   1.397083 A    
C5    C9    1.394544 A    
C12   C16   1.407563 A    
O8    Zn2   2.012053 S    
O4    C1    1.271508 A    
C1    C21   1.404433 S    
