data_mof_unit_49829.cif
_audit_creation_date              2012-12-10T19:43:16-0500
_audit_creation_method            fapswitch 2.2
_symmetry_space_group_name_H-M    P1
_symmetry_Int_Tables_number       1
_space_group_crystal_system       triclinic
_cell_length_a                    18.361797
_cell_length_b                    18.281206
_cell_length_c                    18.391824
_cell_angle_alpha                 119.751298
_cell_angle_beta                  89.563505
_cell_angle_gamma                 60.412692
_cell_volume                      4392.31104519

loop_
_atom_site_label
_atom_site_type_symbol
_atom_type_description
_atom_site_fract_x
_atom_site_fract_y
_atom_site_fract_z
_atom_type_partial_charge
C1    C     C_R   0.860374 0.779586 0.639762 0.555729
C2    C     C_R   0.416312 0.210896 0.636898 -0.027722
C3    C     C_R   0.363360 0.210559 0.583602 0.397734
C4    C     C_R   0.139992 0.220340 0.360322 0.523818
C5    C     C_R   0.295802 0.302583 0.597651 -0.065220
C6    C     C_R   0.223228 0.051066 0.338770 0.021535
C7    C     C_R   0.195609 0.109225 0.304269 -0.022077
C8    C     C_R   0.224672 0.055426 0.210939 -0.073577
C9    C     C_R   0.279647 0.947616 0.156164 0.432563
C10   C     C_R   0.305603 0.891117 0.193942 0.042986
C11   C     C_R   0.275803 0.947216 0.285946 -0.089893
C12   C     C_R   0.255203 0.676607 0.848089 0.232945
C13   C     C_3   0.283093 0.936592 0.361142 -0.176186
C14   C     C_3   0.223827 0.055168 0.422040 0.113286
C15   C     C_R   0.216946 0.571718 0.340706 -0.062023
C16   C     C_R   0.860321 0.500214 0.640366 0.537413
C17   C     C_R   0.188167 0.507427 0.303454 0.016453
C18   C     C_R   0.204032 0.453292 0.210870 0.384375
C19   C     C_R   0.258101 0.453379 0.157228 -0.101772
C20   C     C_R   0.296340 0.507607 0.195158 -0.066925
C21   C     C_R   0.269700 0.572229 0.287475 0.058137
C22   C     C_3   0.324748 0.582278 0.346187 0.297754
C23   C     C_R   0.262063 0.582892 0.791954 -0.063397
C24   C     C_3   0.267240 0.580940 0.404468 -0.147437
C25   C     C_R   0.837032 0.949520 0.721471 -0.035484
C26   C     C_R   0.803961 0.890404 0.697677 -0.009596
C27   C     C_R   0.711637 0.942367 0.733148 -0.072274
C28   C     C_R   0.139359 0.500753 0.359920 0.534661
C29   C     C_R   0.654950 0.050298 0.790517 0.218951
C30   C     C_R   0.691950 0.108497 0.809405 0.009638
C31   C     C_R   0.783654 0.053115 0.773863 -0.057062
C32   C     C_3   0.858328 0.063547 0.765653 0.337406
C33   C     C_3   0.919216 0.945197 0.706171 0.365040
C34   C     C_R   0.210561 0.581566 0.735563 -0.043870
C35   C     C_R   0.712933 0.561881 0.338740 -0.066682
C36   C     C_R   0.805229 0.502912 0.303582 0.036233
C37   C     C_R   0.843322 0.444822 0.209956 0.385250
C38   C     C_R   0.789085 0.444648 0.156365 -0.097048
C39   C     C_R   0.696147 0.501897 0.194625 -0.023424
C40   C     C_R   0.860150 0.500539 0.360032 0.541649
C41   C     C_R   0.661384 0.560180 0.286526 -0.006945
C42   C     C_3   0.577997 0.623854 0.361348 0.319637
C43   C     C_3   0.636123 0.626049 0.421534 0.117149
C44   C     C_R   0.732804 0.593139 0.772297 -0.019150
C45   C     C_R   0.317085 0.493089 0.790810 0.029164
C46   C     C_R   0.806498 0.501372 0.699282 0.012889
C47   C     C_R   0.832640 0.409201 0.688579 -0.111067
C48   C     C_R   0.778315 0.409332 0.742550 -0.120733
C49   C     C_R   0.697230 0.501609 0.807460 0.034539
C50   C     C_R   0.679549 0.593448 0.825273 0.033842
C51   C     C_3   0.598785 0.692236 0.847866 0.564553
C52   C     C_R   0.143391 0.497834 0.636825 0.502952
C53   C     C_3   0.659607 0.692607 0.789345 0.156113
C54   C     C_R   0.359337 0.500469 0.139718 0.517221
C55   C     C_R   0.639915 0.500347 0.860460 0.534367
C56   C     C_R   0.331490 0.398611 0.722817 -0.002658
C57   C     C_R   0.360702 0.779705 0.139535 0.547389
C58   C     C_R   0.639121 0.220029 0.861597 0.547433
C59   C     C_R   0.639938 0.500000 0.139733 0.530968
C60   C     C_R   0.362388 0.498363 0.857342 0.495383
C61   C     C_R   0.159045 0.673014 0.738313 0.204367
C62   C     C_R   0.125464 0.766797 0.819332 -0.105510
C63   C     C_R   0.172434 0.768014 0.878472 0.209632
C64   C     C_R   0.277507 0.398265 0.668075 -0.039290
C65   C     C_R   0.210770 0.492162 0.681193 0.022644
C66   C     C_R   0.402013 0.303147 0.704492 -0.124054
F1    F     F_    0.380036 0.120083 0.515370 -0.623043
F2    F     F_    0.307857 0.900180 0.067117 -0.487590
F3    F     F_    0.171582 0.396152 0.171194 -0.545812
F4    F     F_    0.312301 0.676723 0.387482 -0.529191
F5    F     F_    0.851671 0.106589 0.719643 -0.524152
F6    F     F_    0.955807 0.904697 0.618275 -0.495219
F7    F     F_    0.932451 0.387299 0.169523 -0.548158
F8    F     F_    0.545196 0.567738 0.354627 -0.588205
F9    F     F_    0.538198 0.677337 0.810160 -0.578739
H1    H     H_    0.251731 0.898969 0.364139 0.223925
H2    H     H_    0.967038 0.910488 0.734631 0.097772
H3    H     H_    0.820232 0.398786 0.085080 0.185941
H4    H     H_    0.528104 0.698515 0.372105 0.181056
H5    H     H_    0.076175 0.838211 0.828038 0.139160
H6    H     H_    0.641094 0.584903 0.451900 0.146444
H7    H     H_    0.892238 0.336694 0.635785 0.218025
H8    H     H_    0.797461 0.336928 0.730569 0.194800
H9    H     H_    0.643445 0.682851 0.728359 0.129126
H10   H     H_    0.450118 0.296919 0.738417 0.172685
H11   H     H_    0.470664 0.138998 0.624074 0.196814
H12   H     H_    0.352015 0.902652 0.363111 0.161324
H13   H     H_    0.261947 0.296201 0.549458 0.155440
H14   H     H_    0.205990 0.096238 0.179900 0.208349
H15   H     H_    0.111332 0.234458 0.601664 0.349653
H16   H     H_    0.320290 0.529293 0.574877 0.361314
H17   H     H_    0.442075 0.220208 0.968395 0.376524
H18   H     H_    0.639493 0.731548 0.603273 0.347765
H19   H     H_    0.589023 0.856601 0.076620 0.369310
H20   H     H_    0.762053 0.816807 0.925347 0.372618
H21   H     H_    0.017263 0.000837 0.980111 0.346202
H22   H     H_    0.370112 0.753839 0.769815 0.411383
H23   H     H_    0.258232 0.089262 0.459630 0.168746
H24   H     H_    0.272989 0.407424 0.085962 0.185613
H25   H     H_    0.395639 0.515517 0.313964 0.152039
H26   H     H_    0.304329 0.510822 0.404019 0.138446
H27   H     H_    0.225666 0.654916 0.471054 0.271676
H28   H     H_    0.683368 0.898728 0.716449 0.242731
H29   H     H_    0.869834 0.099895 0.829562 0.085178
O1    O     O_3   0.000000 0.500000 0.500000 -0.502079
O2    O     O_R   0.676550 0.268320 0.884150 -0.524073
O3    O     O_R   0.555150 0.560600 0.176460 -0.507177
O4    O     O_R   0.944950 0.731580 0.615800 -0.498065
O5    O     O_R   0.384220 0.439220 0.884170 -0.544585
O6    O     O_R   0.676580 0.439170 0.055020 -0.551008
O7    O     O_R   0.384230 0.560650 0.884170 -0.498679
O8    O     O_R   0.384260 0.731500 0.055040 -0.421508
O9    O     O_R   0.555100 0.268330 0.884160 -0.475124
O10   O     O_R   0.384250 0.560620 0.176470 -0.491072
O11   O     O_R   0.676570 0.439190 0.884150 -0.539592
O12   O     O_R   0.944910 0.439280 0.615800 -0.497838
O13   O     O_R   0.115780 0.268410 0.444920 -0.509837
O14   O     O_R   0.823470 0.560720 0.615800 -0.529094
O15   O     O_R   0.115800 0.439290 0.323490 -0.460397
O16   O     O_R   0.823460 0.560740 0.444930 -0.525312
O17   O     O_R   0.115830 0.560690 0.615790 -0.478854
O18   O     O_R   0.944900 0.439310 0.323490 -0.454161
O19   O     O_R   0.115810 0.439260 0.615790 -0.559939
O20   O     O_2   0.058999 0.096839 0.433054 -0.213141
O21   O     O_2   0.127840 0.052008 0.531124 -0.192569
O22   O     O_3   0.068637 0.232685 0.569387 -0.480428
O23   O     O_R   0.115820 0.560710 0.444920 -0.496130
O24   O     O_2   0.107563 0.714899 0.619564 -0.210406
O25   O     O_2   0.224418 0.733868 0.665170 -0.199734
O26   O     O_3   0.265829 0.548693 0.558253 -0.537582
O27   O     O_2   0.486204 0.160733 0.798829 -0.266429
O28   O     O_2   0.527699 0.022502 0.816255 -0.187918
O29   O     O_3   0.506885 0.187392 0.948131 -0.488525
O30   O     O_2   0.639365 0.784682 0.450396 -0.227669
O31   O     O_2   0.511430 0.827696 0.546490 -0.208930
O32   O     O_3   0.661850 0.752905 0.573746 -0.448373
O33   O     O_2   0.479220 0.891870 0.982457 -0.153447
O34   O     O_R   0.823500 0.731590 0.615800 -0.481209
O35   O     O_2   0.503854 0.763264 0.007160 -0.234375
O36   O     O_3   0.623923 0.798657 0.013381 -0.481760
O37   O     O_2   0.736279 0.776129 0.768720 -0.305007
O38   O     O_2   0.601692 0.893113 0.897277 -0.166123
O39   O     O_3   0.749152 0.764258 0.902483 -0.469322
O40   O     O_2   0.168500 0.868329 0.045756 -0.213390
O41   O     O_2   0.183927 0.928948 0.958015 -0.149163
O42   O     O_3   0.029229 0.970416 0.014293 -0.497175
O43   O     O_2   0.372255 0.722761 0.898973 -0.082643
O44   O     O_2   0.424873 0.572527 0.746674 -0.263951
O45   O     O_R   0.115770 0.268420 0.323490 -0.536304
O46   O     O_3   0.317260 0.754287 0.782252 -0.429791
O47   O     O_3   0.500040 0.499910 0.999960 -0.500197
O48   O     O_R   0.384230 0.439200 0.055040 -0.537740
O49   O     O_R   0.555130 0.560630 0.884160 -0.443114
O50   O     O_R   0.384270 0.731490 0.176470 -0.559201
S1    S     S_3+6 0.117120 0.107626 0.489001 0.064821
S2    S     S_3+6 0.188233 0.670445 0.644364 0.055364
S3    S     S_3+6 0.540984 0.104783 0.837045 0.087405
S4    S     S_3+6 0.610039 0.752325 0.498743 0.054458
S5    S     S_3+6 0.548291 0.790104 0.965629 0.157756
S6    S     S_3+6 0.685239 0.786072 0.840845 0.066596
S7    S     S_3+6 0.140300 0.885785 0.976237 0.104654
S8    S     S_3+6 0.346519 0.679069 0.818779 0.151046
Zn1   Zn    Zn3+2 0.043370 0.413240 0.543370 0.985490
Zn2   Zn    Zn3+2 0.869870 0.586760 0.543380 1.022371
Zn3   Zn    Zn3+2 0.043360 0.413260 0.369880 1.060390
Zn4   Zn    Zn3+2 0.043390 0.586740 0.543370 1.052961
Zn5   Zn    Zn3+2 0.456670 0.586670 0.956580 1.108046
Zn6   Zn    Zn3+2 0.456680 0.586650 0.130080 1.010433
Zn7   Zn    Zn3+2 0.630180 0.413150 0.956570 0.987106
Zn8   Zn    Zn3+2 0.456650 0.413170 0.956580 0.998574

loop_
_geom_bond_atom_site_label_1
_geom_bond_atom_site_label_2
_ccdc_geom_bond_type
C25   C31   A    
C45   C60   S    
H20   O39   S    
C23   C45   A    
C14   S1    S    
C27   C29   A    
H19   O36   S    
C41   C42   S    
O12   Zn1   S    
C35   C36   A    
O11   Zn7   S    
H18   O32   S    
C66   H10   S    
C7    C8    A    
C39   C41   A    
H16   O26   S    
O13   Zn1   S    
C4    O45   A    
C12   C23   A    
O14   Zn2   S    
C26   C27   A    
C37   C38   A    
O47   Zn8   S    
O41   S7    D    
C53   H9    S    
C62   H5    S    
C36   C37   A    
C51   F9    S    
C18   C19   A    
O36   S5    S    
C30   C31   A    
O40   S7    D    
C52   O19   A    
O47   Zn5   S    
C57   O8    A    
O47   Zn6   S    
C30   C58   S    
C59   O6    A    
O19   Zn1   S    
O1    Zn4   S    
C15   C17   A    
C24   H26   S    
C47   H7    S    
C27   H28   S    
O27   S3    D    
C37   F7    S    
C60   O5    A    
C33   F6    S    
C46   C47   A    
C5    H13   S    
C44   C53   S    
H17   O29   S    
C45   C56   A    
C8    C9    A    
O24   S2    D    
C58   O9    A    
H22   O46   S    
C32   H29   S    
C29   C30   A    
C35   C43   S    
C9    C10   A    
O15   Zn3   S    
C24   H27   S    
C28   O23   A    
O32   S4    S    
O22   S1    S    
C43   S4    S    
C18   F3    S    
O35   S5    D    
C42   H4    S    
O18   Zn3   S    
C13   C14   S    
O49   Zn5   S    
O50   Zn6   S    
C4    C7    S    
C16   O12   A    
C34   C65   A    
C44   C46   A    
C14   H23   S    
C32   F5    S    
O46   S8    S    
O42   S7    S    
C42   F8    S    
C22   H25   S    
O33   S5    D    
C1    O34   A    
O39   S6    S    
C10   C57   S    
O45   Zn3   S    
C20   C54   S    
C16   C46   S    
C6    C11   A    
C12   C63   A    
C19   H24   S    
C54   O48   A    
C38   H3    S    
C50   C51   S    
C25   C26   A    
C49   C55   S    
O8    Zn5   S    
O43   S8    D    
C34   C61   A    
C59   O3    A    
C5    C64   A    
C58   O2    A    
C62   C63   A    
O17   Zn4   S    
C16   O14   A    
C6    C14   S    
O48   Zn8   S    
C52   O17   A    
O37   S6    D    
C47   C48   A    
C13   H1    S    
C36   C40   S    
C23   C34   A    
C39   C59   S    
C13   H12   S    
O1    Zn1   S    
C17   C18   A    
H15   O22   S    
O1    Zn2   S    
C6    C7    A    
C48   C49   A    
O30   S4    D    
C1    C26   S    
C43   H6    S    
O2    Zn7   S    
C22   C24   S    
C4    O13   A    
O7    Zn5   S    
C42   C43   S    
C61   S2    S    
C3    C5    A    
C40   O18   A    
O5    Zn8   S    
C44   C50   A    
C55   O49   A    
O4    Zn4   S    
O3    Zn6   S    
C15   C24   S    
C53   S6    S    
C40   O16   A    
C17   C28   S    
C31   C32   S    
C3    F1    S    
O38   S6    D    
C2    C66   A    
C28   O15   A    
O25   S2    D    
C29   S3    S    
O10   Zn6   S    
O9    Zn8   S    
H21   O42   S    
C57   O50   A    
O28   S3    D    
O47   Zn7   S    
C48   H8    S    
O44   S8    D    
C64   C65   A    
C19   C20   A    
C2    C3    A    
C9    F2    S    
C60   O7    A    
C63   S7    S    
C32   C33   S    
C11   C13   S    
C33   H2    S    
C56   C64   A    
C38   C39   A    
C55   O11   A    
O23   Zn4   S    
C56   C66   A    
C54   O10   A    
C51   S5    S    
O1    Zn3   S    
C2    H11   S    
O29   S3    S    
C61   C62   A    
C35   C41   A    
C10   C11   A    
O16   Zn2   S    
C1    O4    A    
C12   S8    S    
O34   Zn2   S    
O6    Zn7   S    
C15   C21   A    
C20   C21   A    
C49   C50   A    
O20   S1    D    
O31   S4    D    
O26   S2    S    
C8    H14   S    
C51   C53   S    
C21   C22   S    
C22   F4    S    
C52   C65   S    
O21   S1    D    
C25   C33   S    
