data_mof_unit_58546.cif
_audit_creation_date              2012-12-11T15:53:30-0500
_audit_creation_method            fapswitch 2.2
_symmetry_space_group_name_H-M    P1
_symmetry_Int_Tables_number       1
_space_group_crystal_system       triclinic
_cell_length_a                    6.919529
_cell_length_b                    14.575272
_cell_length_c                    15.984452
_cell_angle_alpha                 90.342428
_cell_angle_beta                  90.215253
_cell_angle_gamma                 90.340664
_cell_volume                      1612.02731994

loop_
_atom_site_label
_atom_site_type_symbol
_atom_type_description
_atom_site_fract_x
_atom_site_fract_y
_atom_site_fract_z
_atom_type_partial_charge
O1    O     O_R   0.361600 0.167310 0.164620 -0.525317
O2    O     O_R   0.638400 0.832690 0.835380 -0.525332
O3    O     O_R   0.691080 0.157570 0.338750 -0.555983
O4    O     O_R   0.308920 0.842430 0.661250 -0.555986
O5    O     O_R   0.861410 0.336420 0.339360 -0.557647
O6    O     O_R   0.138590 0.663580 0.660640 -0.557650
C1    C     C_R   0.521960 0.135225 0.367532 0.703004
C2    C     C_R   0.478040 0.864775 0.632468 0.702995
O7    O     O_R   0.691320 0.156280 0.165240 -0.525235
O8    O     O_R   0.308680 0.843720 0.834760 -0.525231
O9    O     O_R   0.861640 0.335130 0.164600 -0.538414
O10   O     O_R   0.138360 0.664870 0.835400 -0.538404
C3    C     C_R   0.520760 0.135198 0.135063 0.696118
C4    C     C_R   0.479239 0.864803 0.864936 0.696120
O11   O     O_R   0.361370 0.168600 0.339370 -0.535829
O12   O     O_R   0.638630 0.831400 0.660630 -0.535832
O13   O     O_3   0.527990 0.310540 0.251980 -0.371930
O14   O     O_3   0.472010 0.689460 0.748020 -0.371917
V1    V     V_3+5 0.802830 0.240980 0.251990 1.500435
V2    V     V_3+5 0.197170 0.759020 0.748010 1.500466
O15   O     O_R   0.191360 0.346160 0.165220 -0.539044
O16   O     O_R   0.808640 0.653840 0.834780 -0.539028
C5    C     C_R   0.023356 0.365755 0.134152 0.731714
C6    C     C_R   0.976646 0.634234 0.865840 0.731685
O17   O     O_R   0.191130 0.347440 0.338740 -0.511256
O18   O     O_R   0.808870 0.652560 0.661260 -0.511259
C7    C     C_R   0.022655 0.369345 0.367616 0.796258
C8    C     C_R   0.977345 0.630655 0.632384 0.796241
V3    V     V_3+5 0.302840 0.262750 0.251990 1.557555
V4    V     V_3+5 0.697160 0.737250 0.748010 1.557599
O19   O     O_3   0.027820 0.193180 0.251990 -0.361920
O20   O     O_3   0.972180 0.806820 0.748010 -0.361932
C9    C     C_3   0.821074 0.469664 0.479181 -0.270299
C10   C     C_3   0.178926 0.530335 0.520820 -0.270292
C11   C     C_3   0.918393 0.460777 0.566312 -0.026475
C12   C     C_3   0.081607 0.539222 0.433688 -0.026442
C13   C     C_3   0.987444 0.561404 0.562473 -0.034423
C14   C     C_3   0.012556 0.438595 0.437527 -0.034427
C15   C     C_3   0.892609 0.570597 0.475460 -0.012877
C16   C     C_3   0.107391 0.429403 0.524540 -0.012885
C17   C     C_R   0.838449 0.559213 0.997436 0.020437
C18   C     C_R   0.161540 0.440754 0.002538 0.020456
C19   C     C_R   0.854755 0.491568 0.059553 -0.057579
C20   C     C_R   0.145228 0.508403 0.940422 -0.057311
H1    H     H_    0.743940 0.486496 0.107066 0.163408
H2    H     H_    0.256029 0.513478 0.892904 0.163486
C21   C     C_R   0.014468 0.432717 0.063932 -0.171686
C22   C     C_R   0.985530 0.567261 0.936050 -0.171712
C23   C     C_R   0.679370 0.024970 0.466902 -0.165109
C24   C     C_R   0.320630 0.975030 0.533098 -0.165106
H3    H     H_    0.820041 0.043025 0.442306 0.119353
H4    H     H_    0.179959 0.956975 0.557694 0.119353
C25   C     C_R   0.668548 0.959743 0.530610 -0.103905
C26   C     C_R   0.331452 0.040257 0.469390 -0.103906
H5    H     H_    0.801332 0.929488 0.553130 0.128215
H6    H     H_    0.198668 0.070512 0.446870 0.128216
C27   C     C_R   0.489043 0.933934 0.564606 -0.037404
C28   C     C_R   0.510957 0.066066 0.435394 -0.037408
C29   C     C_R   0.652719 0.001451 0.057205 -0.189272
C30   C     C_R   0.347281 0.998553 0.942791 -0.189244
H7    H     H_    0.771573 0.001432 0.101646 0.154091
H8    H     H_    0.228432 0.998572 0.898347 0.154090
C31   C     C_R   0.651094 0.936264 0.992370 0.012331
C32   C     C_R   0.348900 0.063739 0.007627 0.012352
C33   C     C_R   0.494872 0.933763 0.934074 -0.087706
C34   C     C_R   0.505125 0.066239 0.065924 -0.087681
C35   C     C_2   0.825119 0.412875 0.638500 0.329688
H9    H     H_    0.778851 0.342006 0.631527 0.066198
O21   O     O_2   0.800956 0.452657 0.704968 -0.526621
C36   C     C_2   0.174881 0.587124 0.361501 0.329622
H10   H     H_    0.221149 0.657994 0.368473 0.066190
O22   O     O_2   0.199045 0.547343 0.295033 -0.526652
H11   H     H_    0.673098 0.445424 0.462801 0.143564
H12   H     H_    0.326902 0.554576 0.537200 0.143563
C37   C     C_2   0.769516 0.647402 0.443998 0.300175
H13   H     H_    0.707317 0.643072 0.381707 0.075524
O23   O     O_2   0.738692 0.714673 0.487582 -0.543769
C38   C     C_2   0.230484 0.352597 0.556002 0.300183
H14   H     H_    0.292682 0.356927 0.618293 0.075555
O24   O     O_2   0.261309 0.285327 0.512417 -0.543766
C39   C     C_2   0.671922 0.623158 0.001494 0.388132
H15   H     H_    0.673497 0.687435 0.967981 0.032744
O25   O     O_2   0.530453 0.605478 0.044113 -0.524676
C40   C     C_2   0.328049 0.376780 0.998457 0.387986
H16   H     H_    0.326589 0.312550 0.032070 0.032789
O26   O     O_2   0.469386 0.394365 0.955661 -0.524550
C41   C     C_2   0.813343 0.870912 0.991429 0.340050
H17   H     H_    0.838749 0.827807 0.045407 0.032398
O27   O     O_2   0.928450 0.869859 0.933834 -0.517253
C42   C     C_2   0.186633 0.129083 0.008567 0.339985
H18   H     H_    0.161152 0.172147 0.954568 0.032506
O28   O     O_2   0.071577 0.130163 0.066182 -0.517248

loop_
_geom_bond_atom_site_label_1
_geom_bond_atom_site_label_2
_ccdc_geom_bond_type
C14   C16   S    
C41   H17   S    
C31   C33   A    
C10   C13   S    
O13   V3    S    
C32   C42   S    
O4    C2    A    
V1    O19   S    
C39   H15   S    
O9    V1    S    
C24   C26   A    
C10   C16   S    
C11   C13   S    
C40   O26   D    
O3    C1    A    
C29   C34   A    
C26   C28   A    
C38   O24   D    
C7    C14   S    
O12   V4    S    
C30   H8    S    
O7    C3    A    
C9    C11   S    
O5    C7    A    
O7    V1    S    
O6    C8    A    
O8    V2    S    
C23   H3    S    
C24   H4    S    
O3    V1    S    
C36   H10   S    
O14   V4    S    
C15   C37   S    
C1    C28   S    
C10   C12   S    
C1    O11   A    
C2    O12   A    
C17   C19   A    
C18   C20   A    
C39   O25   D    
C12   C36   S    
O11   V3    S    
C3    C34   S    
C25   H5    S    
O17   V3    S    
C26   H6    S    
C29   H7    S    
C5    C21   S    
C35   H9    S    
C6    C22   S    
C18   C40   S    
C40   H16   S    
O8    C4    A    
C25   C27   A    
C38   H14   S    
C20   H2    S    
O15   V3    S    
C23   C28   A    
C35   O21   D    
C32   C34   A    
C37   H13   S    
C2    C27   S    
C37   O23   D    
C42   O28   D    
C11   C35   S    
C17   C39   S    
O10   V2    S    
O1    V3    S    
C9    C15   S    
C19   H1    S    
C10   H12   S    
C16   C38   S    
C9    H11   S    
C30   C33   A    
O18   V4    S    
O15   C5    A    
C17   C22   A    
O16   C6    A    
O1    C3    A    
V2    O20   S    
O16   V4    S    
C31   C41   S    
C24   C27   A    
O18   C8    A    
C12   C15   S    
O5    V1    S    
O17   C7    A    
O6    V2    S    
O10   C6    A    
C29   C31   A    
C9    C14   S    
O2    V4    S    
C30   C32   A    
C12   C14   S    
C11   C16   S    
V3    O19   S    
V4    O20   S    
C42   H18   S    
C8    C13   S    
C23   C25   A    
O9    C5    A    
O13   V1    S    
C4    C33   S    
O14   V2    S    
C18   C21   A    
O2    C4    A    
O4    V2    S    
C13   C15   S    
C41   O27   D    
C36   O22   D    
C19   C21   A    
C20   C22   A    
