data_mof_unit_27951.cif
_audit_creation_date              2013-03-05T16:03:51-0500
_audit_creation_method            fapswitch 2.2
_symmetry_space_group_name_H-M    P1
_symmetry_Int_Tables_number       1
_space_group_crystal_system       triclinic
_cell_length_a                    6.927005
_cell_length_b                    17.665754
_cell_length_c                    19.512246
_cell_angle_alpha                 109.089607
_cell_angle_beta                  90.410485
_cell_angle_gamma                 90.523961
_cell_volume                      2256.19849044

loop_
_atom_site_label
_atom_site_type_symbol
_atom_site_description
_atom_site_fract_x
_atom_site_fract_y
_atom_site_fract_z
_atom_type_partial_charge
O1    O     O_R   0.505700 0.440210 0.561730 -0.600306
O2    O     O_R   0.169350 0.406300 0.412660 -0.572461
O3    O     O_R   0.005650 0.559790 0.438270 -0.606312
C1    C     C_R   0.338140 0.382862 0.385062 0.951412
O4    O     O_R   0.175560 0.430650 0.559600 -0.577013
O5    O     O_R   0.011900 0.584320 0.586250 -0.599927
C2    C     C_R   0.344909 0.415546 0.581181 1.093090
O6    O     O_R   0.499450 0.415680 0.413750 -0.600051
O7    O     O_3   0.341370 0.550390 0.508570 -0.282731
V1    V     V_3+5 0.063940 0.490650 0.498410 1.206136
O8    O     O_R   0.682570 0.593700 0.587340 -0.585768
C3    C     C_R   0.852653 0.616514 0.615065 0.936356
O9    O     O_R   0.676370 0.569350 0.440400 -0.602732
C4    C     C_R   0.845208 0.584395 0.418832 0.926707
V2    V     V_3+5 0.564750 0.509350 0.501590 1.185580
O10   O     O_3   0.837190 0.449610 0.491430 -0.257528
C5    C     C_R   0.036922 0.679124 0.283435 -0.106229
H1    H     H_    0.167978 0.676276 0.252872 0.109494
C6    C     C_R   0.025770 0.634151 0.330516 -0.070755
H2    H     H_    0.149266 0.598974 0.335306 0.124829
C7    C     C_R   0.856603 0.633288 0.369715 -0.145891
C8    C     C_R   0.699212 0.679104 0.361028 -0.115210
H3    H     H_    0.567179 0.680256 0.390740 0.137984
C9    C     C_R   0.711295 0.725090 0.314700 -0.128727
H4    H     H_    0.588594 0.761072 0.310947 0.104944
C10   C     C_R   0.880196 0.725617 0.274927 0.089021
C11   C     C_R   0.728389 0.786282 0.187015 -0.131899
H5    H     H_    0.590475 0.759621 0.192423 0.107527
C12   C     C_R   0.739837 0.832041 0.140575 -0.144673
H6    H     H_    0.609983 0.840103 0.112613 0.137971
C13   C     C_R   0.916586 0.866030 0.129661 -0.133671
C14   C     C_R   0.081525 0.853394 0.166712 -0.123992
H7    H     H_    0.219640 0.879304 0.160149 0.122121
C15   C     C_R   0.069609 0.808560 0.213992 -0.133546
H8    H     H_    0.198958 0.802139 0.242945 0.097146
C16   C     C_R   0.892867 0.774083 0.224789 0.114095
C17   C     C_R   0.779503 0.905388 0.752744 -0.209778
C18   C     C_R   0.709205 0.918098 0.690413 -0.289539
C19   C     C_R   0.690664 0.854104 0.625387 0.600783
C20   C     C_R   0.743079 0.777423 0.623692 -0.222275
C21   C     C_R   0.812509 0.762630 0.686520 0.023846
C22   C     C_R   0.831267 0.827929 0.752373 0.128057
C23   C     C_R   0.867491 0.684634 0.684069 -0.243464
C24   C     C_R   0.941963 0.672084 0.747452 0.112202
C25   C     C_R   0.959907 0.737321 0.813381 0.021415
C26   C     C_R   0.904736 0.815299 0.815849 -0.251485
C27   C     C_R   0.996011 0.594805 0.746888 -0.153440
C28   C     C_R   0.066676 0.582128 0.809174 -0.234054
C29   C     C_R   0.083483 0.645986 0.874357 0.591526
C30   C     C_R   0.029424 0.722537 0.876201 -0.220290
H9    H     H_    0.794384 0.957345 0.800919 0.137914
H10   H     H_    0.670695 0.978208 0.692839 0.150150
H11   H     H_    0.729967 0.729904 0.572135 0.134436
H12   H     H_    0.983242 0.542962 0.698554 0.140494
H13   H     H_    0.106990 0.522150 0.806562 0.145516
H14   H     H_    0.041625 0.769991 0.927831 0.140529
C31   C     C_R   0.525575 0.235672 0.382155 -0.089662
C32   C     C_R   0.625911 0.167815 0.382470 -0.049086
C33   C     C_R   0.658199 0.106391 0.317902 -0.127842
C34   C     C_R   0.590563 0.112357 0.252489 -0.183661
C35   C     C_R   0.490403 0.181013 0.250181 0.114691
C36   C     C_R   0.456720 0.244105 0.316531 0.100388
C37   C     C_R   0.420538 0.186708 0.183545 -0.294839
C38   C     C_R   0.317794 0.256085 0.183608 0.131620
C39   C     C_R   0.283178 0.318959 0.249929 0.027586
C40   C     C_R   0.352794 0.313239 0.316628 -0.261539
C41   C     C_R   0.251569 0.264948 0.117918 -0.183683
C42   C     C_R   0.151589 0.332789 0.117391 -0.294204
C43   C     C_R   0.116440 0.394572 0.182328 0.594133
C44   C     C_R   0.183013 0.387616 0.247635 -0.235734
H15   H     H_    0.500977 0.280814 0.434114 0.133774
H16   H     H_    0.677534 0.162620 0.433228 0.164857
H17   H     H_    0.735047 0.053507 0.318495 0.132864
H18   H     H_    0.617508 0.062331 0.204052 0.125417
H19   H     H_    0.278413 0.220122 0.065952 0.127291
H20   H     H_    0.102842 0.337314 0.066023 0.132950
H21   H     H_    0.155428 0.437167 0.296375 0.137064
C45   C     C_R   0.498781 0.346035 0.739066 0.491761
C46   C     C_R   0.491872 0.388071 0.689193 0.453157
C47   C     C_R   0.356793 0.366643 0.630717 -0.544493
C48   C     C_R   0.229730 0.300778 0.622804 0.338084
C49   C     C_R   0.241899 0.257708 0.671833 -0.240233
H22   H     H_    0.148609 0.205886 0.663927 0.203714
C50   C     C_R   0.377853 0.277932 0.728744 -0.219082
C51   C     C_R   0.232723 0.215810 0.814603 -0.136797
H23   H     H_    0.098115 0.244713 0.810216 0.188348
C52   C     C_R   0.243195 0.169988 0.860940 -0.170511
H24   H     H_    0.115531 0.164083 0.890613 0.147110
C53   C     C_R   0.416772 0.133529 0.869896 -0.210340
C54   C     C_R   0.578712 0.142704 0.830188 -0.228998
H25   H     H_    0.713091 0.113893 0.835114 0.151806
C55   C     C_R   0.568962 0.186532 0.781846 0.534249
C56   C     C_R   0.394378 0.225643 0.775129 -0.017394
O11   O     O_R   0.273230 0.084330 0.086440 -0.589123
O12   O     O_R   0.596660 0.069390 0.940470 -0.605119
O13   O     O_R   0.760270 0.915710 0.913690 -0.587488
C57   C     C_R   0.427444 0.084518 0.919006 0.956241
O14   O     O_R   0.603330 0.093680 0.087390 -0.590313
O15   O     O_R   0.766990 0.940160 0.061660 -0.601441
C58   C     C_R   0.434692 0.117033 0.115137 0.932230
O16   O     O_R   0.266510 0.059870 0.938470 -0.599162
O17   O     O_3   0.431050 0.949630 0.991510 -0.268047
V3    V     V_3+5 0.708490 0.009340 0.001580 1.158724
O18   O     O_R   0.096270 0.930570 0.059390 -0.597056
C59   C     C_R   0.927500 0.915367 0.080894 0.923586
O19   O     O_R   0.089600 0.906290 0.912460 -0.589884
C60   C     C_R   0.919463 0.883419 0.884860 0.937192
V4    V     V_3+5 0.207670 0.990600 0.998190 1.166331
O20   O     O_3   0.935250 0.050360 0.008480 -0.273750
O21   O     O_3   0.623348 0.864521 0.562400 -0.760438
H26   H     H_    0.592823 0.921868 0.572487 0.318491
O22   O     O_3   0.018925 0.462833 0.183840 -0.768459
H27   H     H_    0.981916 0.458752 0.133548 0.317196
O23   O     O_3   0.627430 0.373447 0.796621 -0.709325
H28   H     H_    0.595846 0.348937 0.834109 0.316287
O24   O     O_3   0.612158 0.453575 0.701381 -0.713581
H29   H     H_    0.708881 0.438255 0.662184 0.328757
N1    N     N_R   0.092876 0.274416 0.563787 0.246012
O25   O     O_R   0.145521 0.266598 0.497968 -0.431839
O26   O     O_R   0.924333 0.246916 0.573919 -0.429757
O27   O     O_3   0.732261 0.188615 0.742255 -0.769713
H30   H     H_    0.699142 0.209037 0.702182 0.341248
O28   O     O_3   0.151079 0.635582 0.937314 -0.748350
H31   H     H_    0.183009 0.578345 0.927089 0.320245

loop_
_geom_bond_atom_site_label_1
_geom_bond_atom_site_label_2
_geom_bond_distance
_ccdc_geom_bond_type
C28   H13   1.083309 S    
O15   V3    1.992841 S    
C52   H24   1.083189 S    
C11   C12   1.399934 A    
C21   C23   1.418655 A    
C21   C22   1.422676 A    
C6    H2    1.083173 S    
C1    O6    1.290326 A    
C48   C49   1.406183 A    
C54   H25   1.083584 S    
C31   C36   1.416566 A    
C51   H23   1.083325 S    
O24   H29   0.991143 S    
O11   V4    2.005780 S    
C17   C18   1.392432 A    
C5    C10   1.408432 A    
C4    C7    1.487294 S    
C7    C8    1.405599 A    
C6    C7    1.406607 A    
C9    C10   1.410238 A    
C3    C23   1.485766 S    
C43   C44   1.395223 A    
O5    C3    1.291363 A    
C18   C19   1.400417 A    
C17   H9    1.081316 S    
C43   O22   1.379583 S    
C18   H10   1.083270 S    
O19   C60   1.296959 A    
C39   C44   1.415946 A    
C29   O28   1.379517 S    
V4    O20   2.149191 S    
C15   H8    1.082284 S    
C22   C26   1.420069 A    
C17   C22   1.415474 A    
C35   C37   1.418567 A    
N1    O25   1.301164 A    
O22   H27   0.991799 S    
O17   V3    2.160238 S    
O21   H26   0.991900 S    
O8    V2    2.003353 S    
C19   O21   1.379541 S    
C27   C28   1.392230 A    
C42   C43   1.400249 A    
O17   V4    1.701999 S    
O1    V2    1.992844 S    
O7    V1    2.160284 S    
C33   H17   1.082755 S    
C24   C27   1.415493 A    
O16   V4    1.987919 S    
C33   C34   1.392849 A    
O9    C4    1.300041 A    
C44   H21   1.080891 S    
C13   C59   1.487664 S    
C45   O23   1.382709 S    
C51   C56   1.404859 A    
O18   C59   1.299962 A    
O12   V3    1.994094 S    
O23   H28   0.989005 S    
C51   C52   1.398879 A    
O15   C59   1.295898 A    
V2    O10   2.149304 S    
C36   C40   1.422820 A    
C41   C42   1.392547 A    
C38   C41   1.414932 A    
O28   H31   0.991916 S    
C9    H4    1.082252 S    
C19   C20   1.395633 A    
O4    C2    1.302601 A    
C45   C46   1.404768 A    
C37   C58   1.495246 S    
C32   C33   1.388885 A    
C25   C26   1.418626 A    
C48   N1    1.437754 S    
C49   H22   1.083916 S    
C30   H14   1.081608 S    
C37   C38   1.422531 A    
C53   C57   1.488676 S    
C34   C35   1.416014 A    
C14   C15   1.401105 A    
O2    C1    1.304034 A    
C23   C24   1.420264 A    
C12   H6    1.083145 S    
C54   C55   1.404093 A    
C13   C14   1.405777 A    
O11   C58   1.290677 A    
C26   C60   1.485819 S    
C5    H1    1.082259 S    
C31   H15   1.081194 S    
O27   H30   0.988748 S    
O3    C4    1.295600 A    
C27   H12   1.080930 S    
C10   C16   1.498512 S    
C20   C21   1.416279 A    
O13   C60   1.291654 A    
C29   C30   1.395694 A    
O6    V2    2.000134 S    
C49   C50   1.402505 A    
C52   C53   1.405651 A    
C8    C9    1.401518 A    
C41   H19   1.081663 S    
O2    V1    1.989901 S    
O18   V4    1.993146 S    
C24   C25   1.422625 A    
C28   C29   1.400283 A    
O1    C2    1.296069 A    
C47   C48   1.419230 A    
O5    V1    1.992595 S    
O8    C3    1.297202 A    
O12   C57   1.301030 A    
C11   C16   1.408602 A    
C42   H20   1.083088 S    
O14   C58   1.303716 A    
V3    O20   1.709646 S    
C38   C39   1.426522 A    
O9    V2    1.993199 S    
O7    V2    1.702184 S    
O4    V1    1.994084 S    
C12   C13   1.406702 A    
O3    V1    1.992896 S    
V1    O10   1.709618 S    
C55   O27   1.381319 S    
C14   H7    1.083192 S    
C1    C40   1.495348 S    
C32   H16   1.082669 S    
C31   C32   1.392863 A    
O19   V4    2.003474 S    
C25   C30   1.416259 A    
C34   H18   1.080881 S    
C55   C56   1.424539 A    
C5    C6    1.399432 A    
C15   C16   1.410045 A    
C50   C56   1.494276 S    
C35   C36   1.427589 A    
N1    O26   1.301505 A    
C20   H11   1.081613 S    
C46   C47   1.419994 A    
C45   C50   1.417868 A    
C39   C40   1.419320 A    
O13   V3    1.992434 S    
C11   H5    1.082288 S    
C8    H3    1.083161 S    
C53   C54   1.405776 A    
C46   O24   1.374556 S    
C57   O16   1.296899 A    
O14   V3    1.989860 S    
C2    C47   1.494554 S    
