data_mof_unit_31543.cif
_audit_creation_date              2012-12-11T14:14:36-0500
_audit_creation_method            fapswitch 2.2
_symmetry_space_group_name_H-M    P1
_symmetry_Int_Tables_number       1
_space_group_crystal_system       triclinic
_cell_length_a                    24.439928
_cell_length_b                    17.272069
_cell_length_c                    15.572173
_cell_angle_alpha                 90.179726
_cell_angle_beta                  128.863768
_cell_angle_gamma                 90.143621
_cell_volume                      5118.24371138

loop_
_atom_site_label
_atom_site_type_symbol
_atom_type_description
_atom_site_fract_x
_atom_site_fract_y
_atom_site_fract_z
_atom_type_partial_charge
C1    C     C_R   0.349230 0.361546 0.241051 -0.113240
C2    C     C_R   0.664895 0.387661 0.793774 -0.107389
C3    C     C_R   0.849232 0.861544 0.241053 -0.113282
C4    C     C_R   0.164898 0.887668 0.793781 -0.107389
C5    C     C_R   0.405664 0.634362 0.595295 -0.072778
C6    C     C_R   0.589947 0.641537 0.408851 -0.051485
C7    C     C_R   0.905674 0.134372 0.595297 -0.072857
C8    C     C_R   0.089924 0.141520 0.408814 -0.051658
C9    C     C_R   0.349442 0.673334 0.505030 0.161036
C10   C     C_R   0.637532 0.687051 0.500643 0.143966
C11   C     C_R   0.849465 0.173357 0.505033 0.160987
C12   C     C_R   0.137492 0.187061 0.500562 0.143840
C13   C     C_R   0.369581 0.664699 0.178343 0.137995
C14   C     C_R   0.646713 0.626295 0.863329 0.154079
C15   C     C_R   0.869552 0.164656 0.178281 0.137928
C16   C     C_R   0.146707 0.126310 0.863318 0.154145
C17   C     C_2   0.648448 0.799628 0.415610 0.617998
C18   C     C_2   0.348958 0.794988 0.587850 0.609197
C19   C     C_2   0.148467 0.299565 0.415446 0.618080
C20   C     C_2   0.848974 0.294992 0.587892 0.609202
C21   C     C_2   0.665415 0.762900 0.505308 -0.332318
C22   C     C_2   0.315140 0.740980 0.506847 -0.372838
C23   C     C_2   0.165315 0.262937 0.505140 -0.332896
C24   C     C_2   0.815170 0.241014 0.506845 -0.372723
C25   C     C_2   0.203622 0.347781 0.429137 -0.310337
C26   C     C_2   0.806413 0.349193 0.596507 -0.272810
C27   C     C_2   0.703604 0.847793 0.429179 -0.311194
C28   C     C_2   0.306411 0.849198 0.596486 -0.272761
C29   C     C_2   0.270495 0.323661 0.497268 -0.217595
C30   C     C_2   0.745730 0.375667 0.505275 -0.241853
C31   C     C_2   0.770476 0.823639 0.497217 -0.216948
C32   C     C_2   0.245724 0.875665 0.505258 -0.241874
C33   C     C_2   0.688204 0.330802 0.963001 -0.228235
C34   C     C_2   0.356845 0.245019 0.148621 -0.217626
C35   C     C_2   0.188212 0.830822 0.963018 -0.228182
C36   C     C_2   0.856849 0.745018 0.148622 -0.217637
C37   C     C_2   0.757854 0.335091 0.024805 -0.110935
C38   C     C_2   0.303342 0.206608 0.131839 -0.107659
C39   C     C_2   0.257862 0.835114 0.024824 -0.110980
C40   C     C_2   0.803349 0.706602 0.131843 -0.107650
C41   C     C_2   0.341533 0.733092 0.109685 -0.190335
C42   C     C_2   0.692092 0.653710 0.977592 -0.216425
C43   C     C_2   0.841495 0.233040 0.109608 -0.190194
C44   C     C_2   0.192082 0.153734 0.977576 -0.216388
C45   C     C_R   0.615376 0.401465 0.408253 0.488718
C46   C     C_R   0.391800 0.383018 0.592970 0.520459
C47   C     C_R   0.115374 0.901467 0.408249 0.488715
C48   C     C_R   0.891787 0.883021 0.592955 0.520424
C49   C     C_2   0.298955 0.779486 0.111923 -0.117243
C50   C     C_2   0.761958 0.654079 0.037946 -0.110481
C51   C     C_2   0.798944 0.279452 0.111885 -0.117237
C52   C     C_2   0.261949 0.154088 0.037941 -0.110548
C53   C     C_R   0.688257 0.399641 0.592101 -0.211601
C54   C     C_R   0.315765 0.386628 0.408552 -0.234442
C55   C     C_R   0.188257 0.899643 0.592097 -0.211605
C56   C     C_R   0.815756 0.886642 0.408540 -0.234330
C57   C     C_R   0.575245 0.387434 0.797231 -0.154387
C58   C     C_R   0.441197 0.358627 0.243061 -0.142264
C59   C     C_R   0.075247 0.887440 0.797236 -0.154383
C60   C     C_R   0.941198 0.858628 0.243062 -0.142255
C61   C     C_R   0.382028 0.317895 0.210266 0.128009
C62   C     C_R   0.643832 0.364217 0.853736 0.132552
C63   C     C_R   0.882030 0.817894 0.210268 0.128027
C64   C     C_R   0.143837 0.864227 0.853746 0.132536
C65   C     C_R   0.684904 0.387805 0.501322 0.040882
C66   C     C_R   0.325091 0.359731 0.500155 0.026859
C67   C     C_R   0.184902 0.887807 0.501315 0.040882
C68   C     C_R   0.825073 0.859741 0.500130 0.026729
C69   C     C_R   0.328945 0.634310 0.411064 -0.170594
C70   C     C_R   0.660586 0.644125 0.592244 -0.166874
C71   C     C_R   0.828960 0.134329 0.411065 -0.170534
C72   C     C_R   0.160560 0.144150 0.592201 -0.166772
C73   C     C_R   0.431518 0.628413 0.218274 -0.113687
C74   C     C_R   0.576146 0.608530 0.801340 -0.157685
C75   C     C_R   0.931497 0.128384 0.218230 -0.113712
C76   C     C_R   0.076143 0.108536 0.801334 -0.157839
C77   C     C_R   0.667399 0.605501 0.801588 -0.131182
C78   C     C_R   0.341382 0.627868 0.221502 -0.136733
C79   C     C_R   0.167396 0.105513 0.801581 -0.131223
C80   C     C_R   0.841366 0.127841 0.221467 -0.136771
H1    H     H_    0.300294 0.348980 0.224820 0.090447
H2    H     H_    0.717051 0.386350 0.817770 0.084241
H3    H     H_    0.800297 0.848975 0.224825 0.090429
H4    H     H_    0.217054 0.886360 0.817778 0.084262
H5    H     H_    0.711545 0.780929 0.586776 0.123475
H6    H     H_    0.259085 0.744787 0.439528 0.117758
H7    H     H_    0.211357 0.281077 0.586625 0.123592
H8    H     H_    0.759124 0.244847 0.439483 0.117722
H9    H     H_    0.188960 0.397239 0.376007 0.152574
H10   H     H_    0.818994 0.353577 0.676626 0.156188
H11   H     H_    0.688951 0.897294 0.376119 0.152637
H12   H     H_    0.319004 0.853591 0.676613 0.156165
H13   H     H_    0.284688 0.271864 0.546011 0.131446
H14   H     H_    0.737907 0.374152 0.428956 0.149283
H15   H     H_    0.784680 0.771809 0.545901 0.131356
H16   H     H_    0.237893 0.874133 0.428934 0.149290
H17   H     H_    0.285532 0.768004 0.165330 0.138629
H18   H     H_    0.787256 0.627252 0.007978 0.126675
H19   H     H_    0.785538 0.267983 0.165319 0.138624
H20   H     H_    0.287248 0.127248 0.007982 0.126681
H21   H     H_    0.783347 0.368138 0.999449 0.129651
H22   H     H_    0.282320 0.223955 0.173057 0.126494
H23   H     H_    0.283353 0.868157 0.999462 0.129617
H24   H     H_    0.782329 0.723945 0.173064 0.126515
H25   H     H_    0.354401 0.744655 0.055543 0.131472
H26   H     H_    0.667492 0.681397 0.008421 0.132374
H27   H     H_    0.854344 0.244590 0.055438 0.131532
H28   H     H_    0.167480 0.181434 0.008394 0.132497
H29   H     H_    0.663460 0.295424 0.987798 0.142529
H30   H     H_    0.377152 0.227560 0.106255 0.131636
H31   H     H_    0.163469 0.795449 0.987822 0.142511
H32   H     H_    0.877156 0.727562 0.106255 0.131636
H33   H     H_    0.735367 0.405943 0.676673 0.123636
H34   H     H_    0.267021 0.387375 0.324889 0.129747
H35   H     H_    0.235369 0.905942 0.676669 0.123659
H36   H     H_    0.767014 0.887394 0.324876 0.129644
H37   H     H_    0.547509 0.389794 0.830117 0.142694
H38   H     H_    0.478832 0.341318 0.232363 0.108943
H39   H     H_    0.047510 0.889802 0.830121 0.142684
H40   H     H_    0.978834 0.841319 0.232365 0.108936
H41   H     H_    0.283140 0.646358 0.327741 0.100192
H42   H     H_    0.699304 0.661668 0.677293 0.117294
H43   H     H_    0.783164 0.146389 0.327741 0.100197
H44   H     H_    0.199264 0.161725 0.677239 0.117292
H45   H     H_    0.461145 0.636781 0.189201 0.092547
H46   H     H_    0.546440 0.607080 0.831253 0.108226
H47   H     H_    0.961111 0.136735 0.189132 0.092583
H48   H     H_    0.046438 0.107088 0.831250 0.108284
H49   H     H_    0.720446 0.601887 0.829551 0.084976
H50   H     H_    0.289501 0.635648 0.196648 0.091932
H51   H     H_    0.220443 0.101910 0.829539 0.085000
H52   H     H_    0.789482 0.135610 0.196608 0.091949
H53   H     H_    0.431757 0.645284 0.681387 0.144808
H54   H     H_    0.567677 0.653582 0.325331 0.120870
H55   H     H_    0.931767 0.145290 0.681388 0.144881
H56   H     H_    0.067628 0.153522 0.325286 0.120773
N1    N     N_R   0.389060 0.424180 0.294540 -0.045905
N2    N     N_R   0.610940 0.424180 0.705460 -0.045220
N3    N     N_R   0.889060 0.924180 0.294540 -0.045902
N4    N     N_R   0.110940 0.924180 0.705460 -0.045218
N5    N     N_R   0.579670 0.423790 0.443360 -0.085951
N6    N     N_R   0.420330 0.423790 0.556640 -0.087134
N7    N     N_R   0.079670 0.923790 0.443360 -0.085945
N8    N     N_R   0.920330 0.923790 0.556640 -0.087129
N9    N     N_R   0.625470 0.423490 0.556600 -0.071911
N10   N     N_R   0.374530 0.423490 0.443400 -0.068968
N11   N     N_R   0.125470 0.923490 0.556600 -0.071909
N12   N     N_R   0.874530 0.923490 0.443400 -0.068975
N13   N     N_R   0.555250 0.423100 0.705420 -0.043696
N14   N     N_R   0.444750 0.423100 0.294580 -0.040045
N15   N     N_R   0.055250 0.923100 0.705420 -0.043689
N16   N     N_R   0.944750 0.923100 0.294580 -0.040041
N17   N     N_R   0.375210 0.577180 0.443400 -0.041381
N18   N     N_R   0.624790 0.577180 0.556600 -0.045096
N19   N     N_R   0.875210 0.077180 0.443400 -0.041382
N20   N     N_R   0.124790 0.077180 0.556600 -0.045088
N21   N     N_R   0.445430 0.577570 0.294580 -0.043940
N22   N     N_R   0.554570 0.577570 0.705420 -0.045907
N23   N     N_R   0.945430 0.077570 0.294580 -0.043946
N24   N     N_R   0.054570 0.077570 0.705420 -0.045903
N25   N     N_R   0.611620 0.576500 0.705460 -0.043090
N26   N     N_R   0.388380 0.576500 0.294540 -0.043366
N27   N     N_R   0.111620 0.076500 0.705460 -0.043089
N28   N     N_R   0.888380 0.076500 0.294540 -0.043358
N29   N     N_R   0.421010 0.576890 0.556640 -0.056532
N30   N     N_R   0.578990 0.576890 0.443360 -0.049402
N31   N     N_R   0.921010 0.076890 0.556640 -0.056523
N32   N     N_R   0.078990 0.076890 0.443360 -0.049384
Ni1   Ni    Ni4+2 0.383200 0.500680 0.370150 0.203704
Ni2   Ni    Ni4+2 0.616800 0.500680 0.629850 0.199041
Ni3   Ni    Ni4+2 0.883200 0.000680 0.370150 0.203690
Ni4   Ni    Ni4+2 0.116800 0.000680 0.629850 0.199053
Ni5   Ni    Ni4+2 0.512440 0.500680 0.370150 0.253366
Ni6   Ni    Ni4+2 0.487560 0.500680 0.629850 0.238289
Ni7   Ni    Ni4+2 0.012440 0.000680 0.370150 0.253326
Ni8   Ni    Ni4+2 0.987560 0.000680 0.629850 0.238289
O1    O     O_3   0.594224 0.424579 0.306362 -0.674377
C81   C     C_3   0.601977 0.364612 0.252629 0.146223
H57   H     H_    0.549150 0.341960 0.183189 0.105099
H58   H     H_    0.632647 0.313873 0.305846 0.078113
C82   C     C_3   0.635024 0.398789 0.203941 -0.220245
H59   H     H_    0.595379 0.434278 0.130675 0.191278
H60   H     H_    0.679517 0.437731 0.265036 0.201002
C83   C     C_3   0.661920 0.335900 0.170268 -1.090129
H61   H     H_    0.700975 0.298914 0.241846 0.266392
H62   H     H_    0.688224 0.363855 0.140759 0.283486
H63   H     H_    0.617611 0.299414 0.103187 0.269064
O2    O     O_3   0.414081 0.391266 0.699181 -0.679171
C84   C     C_3   0.415270 0.319224 0.743651 0.164928
H64   H     H_    0.470168 0.306999 0.817234 0.103408
H65   H     H_    0.398926 0.268516 0.687694 0.071037
C85   C     C_3   0.371068 0.324981 0.781997 -0.230531
H66   H     H_    0.396952 0.365825 0.853026 0.196252
H67   H     H_    0.318465 0.348525 0.714773 0.204656
C86   C     C_3   0.362394 0.246333 0.816711 -1.081828
H68   H     H_    0.334678 0.205228 0.745889 0.269369
H69   H     H_    0.330817 0.252924 0.845141 0.273462
H70   H     H_    0.414562 0.222386 0.885304 0.271984
O3    O     O_3   0.094220 0.924589 0.306360 -0.674404
C87   C     C_3   0.101968 0.864627 0.252615 0.146235
H71   H     H_    0.049138 0.841988 0.183163 0.105096
H72   H     H_    0.132626 0.813878 0.305819 0.078113
C88   C     C_3   0.135028 0.898805 0.203947 -0.220286
H73   H     H_    0.095386 0.934289 0.130672 0.191253
H74   H     H_    0.179514 0.937752 0.265046 0.201001
C89   C     C_3   0.161940 0.835917 0.170301 -1.090132
H75   H     H_    0.200994 0.798937 0.241888 0.266390
H76   H     H_    0.188251 0.863873 0.140803 0.283484
H77   H     H_    0.117639 0.799424 0.103218 0.269059
O4    O     O_3   0.914069 0.891257 0.699166 -0.679169
C90   C     C_3   0.915266 0.819208 0.743627 0.164919
H78   H     H_    0.970170 0.806973 0.817185 0.103405
H79   H     H_    0.898901 0.768509 0.687650 0.071024
C91   C     C_3   0.871092 0.824960 0.782023 -0.230497
H80   H     H_    0.896992 0.865799 0.853059 0.196249
H81   H     H_    0.818486 0.848509 0.714821 0.204650
C92   C     C_3   0.862430 0.746309 0.816745 -1.081883
H82   H     H_    0.834707 0.705205 0.745922 0.269361
H83   H     H_    0.830865 0.752895 0.845195 0.273465
H84   H     H_    0.914602 0.722364 0.885324 0.271987
O5    O     O_3   0.581011 0.791644 0.315133 -0.667326
C93   C     C_3   0.580756 0.786136 0.223995 0.158854
H85   H     H_    0.546945 0.735922 0.172942 0.113485
H86   H     H_    0.633131 0.774022 0.246460 0.090177
C94   C     C_3   0.548289 0.858977 0.153188 -0.268910
H87   H     H_    0.493762 0.865635 0.123973 0.205161
H88   H     H_    0.578985 0.910937 0.202998 0.188672
C95   C     C_3   0.546509 0.854365 0.053516 -1.030607
H89   H     H_    0.600684 0.849379 0.080882 0.262839
H90   H     H_    0.522273 0.907667 0.003468 0.270567
H91   H     H_    0.514855 0.803568 0.001057 0.275172
O6    O     O_3   0.419680 0.787956 0.676754 -0.676957
C96   C     C_3   0.458658 0.843954 0.668904 0.170670
H92   H     H_    0.505276 0.859674 0.754277 0.137411
H93   H     H_    0.429365 0.898898 0.628890 0.086329
C97   C     C_3   0.484215 0.809776 0.608651 -0.299992
H94   H     H_    0.512765 0.754951 0.649099 0.219156
H95   H     H_    0.438368 0.796664 0.521630 0.200675
C98   C     C_3   0.533151 0.865624 0.609878 -0.982721
H96   H     H_    0.505468 0.920550 0.568349 0.265147
H97   H     H_    0.550396 0.839067 0.565370 0.281333
H98   H     H_    0.580376 0.878287 0.696058 0.263579
O7    O     O_3   0.081189 0.291399 0.314738 -0.667223
C99   C     C_3   0.081470 0.284817 0.224226 0.158741
H99   H     H_    0.047774 0.234398 0.173708 0.113396
H100  H     H_    0.134024 0.272408 0.247517 0.090360
C100  C     C_3   0.049244 0.357149 0.152278 -0.269201
H101  H     H_    0.994591 0.364126 0.122376 0.205260
H102  H     H_    0.079860 0.409326 0.201435 0.188627
C101  C     C_3   0.047996 0.351294 0.053221 -1.030498
H103  H     H_    0.102308 0.345962 0.081259 0.262642
H104  H     H_    0.023932 0.404243 0.002304 0.270735
H105  H     H_    0.016436 0.300254 0.001396 0.275245
O8    O     O_3   0.919677 0.287919 0.676858 -0.676906
C102  C     C_3   0.958718 0.343920 0.669152 0.170620
H106  H     H_    0.005268 0.359664 0.754573 0.137391
H107  H     H_    0.929428 0.398855 0.629044 0.086242
C103  C     C_3   0.984424 0.309719 0.609121 -0.299748
H108  H     H_    0.012993 0.254920 0.649685 0.219111
H109  H     H_    0.938646 0.296552 0.522067 0.200663
C104  C     C_3   0.033397 0.365583 0.610464 -0.982711
H110  H     H_    0.005687 0.420473 0.568779 0.265150
H111  H     H_    0.050775 0.338992 0.566155 0.281218
H112  H     H_    0.080544 0.378326 0.696688 0.263568

loop_
_geom_bond_atom_site_label_1
_geom_bond_atom_site_label_2
_ccdc_geom_bond_type
N32   Ni7   S    
C15   C75   A    
C88   H73   S    
C6    N30   A    
C72   N20   A    
C73   N21   A    
C8    H56   S    
N17   Ni1   S    
N6    N10   A    
C19   C23   D    
C98   H96   S    
N7    Ni7   S    
N8    N12   A    
C94   C95   S    
C95   H90   S    
C81   H57   S    
C35   H31   S    
C57   C62   A    
N6    Ni6   S    
C82   H59   S    
C99   H99   S    
C92   H84   S    
C7    C11   A    
N21   Ni5   S    
C88   H74   S    
C12   C23   S    
C48   N8    A    
C59   C64   A    
O5    C93   S    
C11   C71   A    
C41   H25   S    
C60   C63   A    
C80   H52   S    
C14   C74   A    
C71   H43   S    
C9    C69   A    
C46   C66   A    
O4    C90   S    
C104  H110  S    
C37   C51   S    
C91   H81   S    
C9    C22   S    
C100  C101  S    
C40   H24   S    
N20   N32   A    
C101  H104  S    
O7    C99   S    
C16   C76   A    
C47   N7    A    
N3    N16   A    
C58   H38   S    
N12   Ni3   S    
C97   H94   S    
N18   Ni2   S    
N13   Ni6   S    
C60   N16   A    
C14   C77   A    
C41   C49   D    
C84   H65   S    
C80   N28   A    
C8    N32   A    
N22   N25   A    
C13   C78   A    
N16   Ni7   S    
N22   Ni6   S    
C20   C24   D    
N19   N31   A    
C33   C62   S    
C57   N13   A    
C36   H32   S    
N3    Ni3   S    
C35   C64   S    
C69   H41   S    
C5    N29   A    
C23   H7    S    
C36   C63   S    
C53   C65   A    
C96   H92   S    
C16   C44   S    
C17   C27   S    
N1    Ni1   S    
C19   O7    S    
C14   C42   S    
C86   H70   S    
C102  H107  S    
C44   C52   D    
C58   C61   A    
C100  H102  S    
C12   C72   A    
C102  C103  S    
C79   H51   S    
O3    C87   S    
N4    Ni4   S    
N23   Ni7   S    
C72   H44   S    
C25   C29   D    
N24   Ni8   S    
C47   O3    S    
C31   C68   S    
C47   C67   A    
C95   H89   S    
C29   H13   S    
C53   H33   S    
C44   H28   S    
N2    N13   A    
C77   N25   A    
C11   C24   S    
C88   C89   S    
C21   H5    S    
C50   H18   S    
C74   N22   A    
C27   C31   D    
C2    N2    A    
N24   N27   A    
C36   C40   D    
C18   C28   S    
C46   N6    A    
C82   H60   S    
C79   N27   A    
C104  H111  S    
C89   H75   S    
C87   H71   S    
C28   H12   S    
C43   H27   S    
N21   N26   A    
C93   C94   S    
N29   Ni6   S    
C56   C68   A    
C52   H20   S    
C34   C61   S    
C33   C37   D    
C86   H68   S    
O2    C84   S    
C34   C38   D    
C56   N12   A    
C84   C85   S    
C103  H109  S    
N31   Ni8   S    
C85   C86   S    
C90   H78   S    
C7    H55   S    
O8    C102  S    
C4    N4    A    
C51   H19   S    
C96   H93   S    
C70   H42   S    
C55   N11   A    
C15   C80   A    
C4    H4    S    
C28   C32   D    
C26   H10   S    
C8    C12   A    
C71   N19   A    
N8    Ni8   S    
C53   N9    A    
C94   H87   S    
C56   H36   S    
C98   H97   S    
C77   H49   S    
C48   C68   A    
C27   H11   S    
N27   Ni4   S    
C24   H8    S    
N4    N15   A    
C32   H16   S    
C20   O8    S    
C42   C50   D    
C32   C67   S    
N25   Ni2   S    
C10   C70   A    
C31   H15   S    
C90   H79   S    
C13   C73   A    
N7    N11   A    
C59   N15   A    
N5    Ni5   S    
C45   C65   A    
C30   C65   S    
C76   H48   S    
N1    N14   A    
C2    H2    S    
C103  C104  S    
C3    N3    A    
N20   Ni4   S    
C102  H106  S    
C70   N18   A    
C1    N1    A    
N11   Ni4   S    
C78   N26   A    
C57   H37   S    
C82   C83   S    
C75   N23   A    
C91   H80   S    
C99   H100  S    
C7    N31   A    
N9    Ni2   S    
C76   N24   A    
N30   Ni5   S    
C59   H39   S    
N15   Ni8   S    
N17   N29   A    
C93   H86   S    
C18   C22   D    
C25   H9    S    
C38   H22   S    
C48   O4    S    
C91   C92   S    
C1    C61   A    
C10   C21   S    
C6    C10   A    
C104  H112  S    
C81   H58   S    
C100  H101  S    
C39   C49   S    
C39   H23   S    
C13   C41   S    
C54   C66   A    
C33   H29   S    
C3    C63   A    
C5    H53   S    
C92   H83   S    
C4    C64   A    
C45   N5    A    
C83   H62   S    
C97   C98   S    
C54   N10   A    
C16   C79   A    
C83   H63   S    
C85   H66   S    
C103  H108  S    
C101  H103  S    
C15   C43   S    
C55   C67   A    
C6    H54   S    
C99   C100  S    
C18   O6    S    
C37   H21   S    
C45   O1    S    
C55   H35   S    
C89   H77   S    
C43   C51   D    
C74   H46   S    
N26   Ni1   S    
C20   C26   S    
C101  H105  S    
C87   C88   S    
C73   H45   S    
C35   C39   D    
C54   H34   S    
C92   H82   S    
N5    N9    A    
C94   H88   S    
C97   H95   S    
C60   H40   S    
C98   H98   S    
C75   H47   S    
C22   H6    S    
C78   H50   S    
C84   H64   S    
C19   C25   S    
C96   C97   S    
C17   C21   D    
C81   C82   S    
C69   N17   A    
C49   H17   S    
C29   C66   S    
C42   H26   S    
C17   O5    S    
N19   Ni3   S    
C40   C50   S    
N14   Ni5   S    
C3    H3    S    
C87   H72   S    
O1    C81   S    
N10   Ni1   S    
C30   H14   S    
C2    C62   A    
C38   C52   S    
N23   N28   A    
N18   N30   A    
N28   Ni3   S    
C83   H61   S    
C5    C9    A    
C34   H30   S    
C46   O2    S    
C90   C91   S    
C89   H76   S    
C1    H1    S    
C93   H85   S    
C95   H91   S    
C58   N14   A    
O6    C96   S    
N2    Ni2   S    
C86   H69   S    
C26   C30   D    
C85   H67   S    
