data_mof_unit_54797.cif
_audit_creation_date              2012-12-10T18:21:54-0500
_audit_creation_method            fapswitch 2.2
_symmetry_space_group_name_H-M    P1
_symmetry_Int_Tables_number       1
_space_group_crystal_system       triclinic
_cell_length_a                    19.312699
_cell_length_b                    10.64701
_cell_length_c                    9.451758
_cell_angle_alpha                 90.834428
_cell_angle_beta                  90.293963
_cell_angle_gamma                 90.237219
_cell_volume                      1943.24516061

loop_
_atom_site_label
_atom_site_type_symbol
_atom_type_description
_atom_site_fract_x
_atom_site_fract_y
_atom_site_fract_z
_atom_type_partial_charge
C1    C     C_R   0.500545 0.259906 0.498798 0.785572
C2    C     C_R   0.500118 0.740204 0.501374 0.791296
C3    C     C_3   0.530358 0.047546 0.620038 -0.267477
C4    C     C_3   0.471649 0.953103 0.380591 -0.267354
C5    C     C_3   0.566058 0.959607 0.511183 0.005016
C6    C     C_3   0.435905 0.040812 0.489855 0.006942
C7    C     C_3   0.500732 0.876726 0.504686 -0.074763
C8    C     C_3   0.501049 0.123576 0.496271 -0.072462
C9    C     C_3   0.464762 0.963422 0.612865 0.021184
C10   C     C_3   0.537305 0.037151 0.388463 0.018991
C11   C     C_3   0.499935 0.614396 0.052304 -0.193913
C12   C     C_3   0.499977 0.385781 0.947739 -0.180581
C13   C     C_3   0.445702 0.557603 0.949136 -0.188404
C14   C     C_3   0.554465 0.442997 0.050500 -0.196247
C15   C     C_3   0.553369 0.556219 0.952480 0.603139
C16   C     C_3   0.446457 0.444364 0.047258 0.628927
C17   C     C_R   0.367720 0.498294 0.499747 0.773846
C18   C     C_R   0.632389 0.497052 0.500229 0.775977
C19   C     C_R   0.255310 0.546876 0.612902 -0.209588
C20   C     C_R   0.744657 0.475444 0.373478 -0.232995
C21   C     C_R   0.183250 0.543246 0.614195 -0.167008
C22   C     C_R   0.816730 0.470681 0.373941 -0.178199
C23   C     C_R   0.146616 0.486941 0.501131 0.054012
C24   C     C_R   0.853753 0.479876 0.501975 0.068037
C25   C     C_R   0.183527 0.433464 0.387831 -0.177397
C26   C     C_R   0.817282 0.491072 0.629662 -0.183945
C27   C     C_R   0.255695 0.436041 0.388043 -0.170825
C28   C     C_R   0.745209 0.494438 0.629157 -0.184297
C29   C     C_R   0.291931 0.494597 0.499473 -0.025706
C30   C     C_R   0.708329 0.489033 0.500947 -0.010741
C31   C     C_R   0.929998 0.479571 0.502287 0.401957
C32   C     C_R   0.070408 0.483373 0.501808 0.403071
Cu1   Cu    Cu3+1 0.500020 0.499990 0.643150 0.970681
Cu2   Cu    Cu3+1 0.499980 0.500010 0.356850 0.968900
H1    H     H_    0.282750 0.591080 0.699780 0.134625
H2    H     H_    0.717504 0.470706 0.273066 0.135555
H3    H     H_    0.156392 0.585206 0.703240 0.153846
H4    H     H_    0.843367 0.462101 0.273762 0.149476
H5    H     H_    0.156744 0.386666 0.301024 0.151885
H6    H     H_    0.844338 0.497013 0.730181 0.150251
H7    H     H_    0.283280 0.387884 0.304371 0.189150
H8    H     H_    0.718441 0.501888 0.729189 0.173370
H9    H     H_    0.554655 0.092072 0.714607 0.130529
H10   H     H_    0.447870 0.910054 0.284479 0.133556
H11   H     H_    0.402589 0.610021 0.900381 0.142476
H12   H     H_    0.600351 0.397010 0.097584 0.144483
H13   H     H_    0.499869 0.710277 0.100005 0.135766
H14   H     H_    0.498945 0.289910 0.900123 0.136479
N1    N     N_R   0.034420 0.450163 0.383263 -0.244594
N2    N     N_R   0.966003 0.512231 0.620984 -0.245911
N3    N     N_R   0.965554 0.448542 0.383417 -0.244090
N4    N     N_R   0.034852 0.514263 0.620698 -0.244860
N5    N     N_3   0.500050 0.499970 0.858290 -0.189798
N6    N     N_3   0.499950 0.500030 0.141710 -0.189960
O1    O     O_R   0.500030 0.316850 0.620870 -0.601707
O2    O     O_R   0.499970 0.683150 0.379130 -0.600127
O3    O     O_R   0.500000 0.316860 0.379090 -0.549595
O4    O     O_R   0.500000 0.683140 0.620910 -0.549031
O5    O     O_R   0.400160 0.499980 0.620930 -0.598272
O6    O     O_R   0.599840 0.500020 0.379070 -0.601101
O7    O     O_R   0.400130 0.499990 0.379150 -0.536261
O8    O     O_R   0.599870 0.500010 0.620850 -0.534726
O9    O     O_3   0.609989 0.618633 0.890878 -0.592857
C33   C     C_3   0.654877 0.665919 0.997225 -0.003204
H15   H     H_    0.682296 0.587175 0.049255 0.131818
H16   H     H_    0.626265 0.721992 0.078146 0.139839
C34   C     C_3   0.708026 0.752062 0.928508 -0.299910
H17   H     H_    0.738477 0.698320 0.849071 0.222526
H18   H     H_    0.680311 0.828110 0.873190 0.230979
C35   C     C_3   0.757516 0.810586 0.037094 -0.928032
H19   H     H_    0.728351 0.866565 0.116710 0.275149
H20   H     H_    0.794304 0.874029 0.982960 0.256003
H21   H     H_    0.787516 0.736119 0.090645 0.251223
O10   O     O_3   0.389906 0.380993 0.108155 -0.601535
C36   C     C_3   0.337145 0.356862 0.006908 0.004055
H22   H     H_    0.312091 0.266960 0.036690 0.182895
H23   H     H_    0.357121 0.341483 0.897516 0.122053
C37   C     C_3   0.283137 0.462956 0.009033 -0.366278
H24   H     H_    0.283638 0.513273 0.112527 0.239648
H25   H     H_    0.296185 0.533219 0.928567 0.187013
C38   C     C_3   0.209990 0.414542 0.978836 -0.891380
H26   H     H_    0.206897 0.372131 0.871296 0.255327
H27   H     H_    0.172897 0.493818 0.985028 0.257840
H28   H     H_    0.194860 0.343265 0.057590 0.250748
C39   C     C_R   0.639857 0.914736 0.518144 0.118661
C40   C     C_R   0.685939 0.962423 0.621368 -0.163954
C41   C     C_R   0.754929 0.923254 0.623620 -0.148164
C42   C     C_R   0.778704 0.837825 0.521715 -0.082286
C43   C     C_R   0.733602 0.792349 0.416913 -0.131305
C44   C     C_R   0.664383 0.829940 0.415251 -0.151676
H29   H     H_    0.669230 0.030755 0.699355 0.110146
H30   H     H_    0.790019 0.959691 0.704037 0.133475
H31   H     H_    0.832154 0.807678 0.523168 0.135148
H32   H     H_    0.752403 0.728246 0.336568 0.144079
H33   H     H_    0.630192 0.794306 0.332799 0.128001
C45   C     C_R   0.361907 0.084654 0.485525 0.107307
C46   C     C_R   0.315902 0.039867 0.380636 -0.145029
C47   C     C_R   0.245757 0.071213 0.386122 -0.149501
C48   C     C_R   0.220901 0.145912 0.497220 -0.096787
C49   C     C_R   0.266448 0.191594 0.601247 -0.116265
C50   C     C_R   0.336759 0.162098 0.595005 -0.147201
H34   H     H_    0.333449 0.978098 0.296776 0.109962
H35   H     H_    0.210482 0.035933 0.305407 0.129661
H36   H     H_    0.166443 0.169051 0.502290 0.133859
H37   H     H_    0.247287 0.249907 0.686642 0.133083
H38   H     H_    0.371220 0.196602 0.677637 0.129999
C51   C     C_R   0.421217 0.929331 0.738792 0.133480
C52   C     C_R   0.433300 0.987732 0.870968 -0.162604
C53   C     C_R   0.388332 0.967839 0.983589 -0.169320
C54   C     C_R   0.330706 0.889707 0.965650 -0.122940
C55   C     C_R   0.317755 0.832189 0.834426 -0.157211
C56   C     C_R   0.363025 0.850993 0.721329 -0.109948
H39   H     H_    0.475894 0.052390 0.886573 0.121925
H40   H     H_    0.397463 0.015683 0.083631 0.134460
H41   H     H_    0.295418 0.875461 0.052598 0.122294
H42   H     H_    0.271740 0.775273 0.820284 0.123022
H43   H     H_    0.351623 0.807896 0.619299 0.111885
C57   C     C_R   0.581678 0.075985 0.266129 0.127337
C58   C     C_R   0.637837 0.158201 0.288812 -0.099460
C59   C     C_R   0.682388 0.186871 0.177520 -0.154043
C60   C     C_R   0.670914 0.134484 0.043018 -0.127889
C61   C     C_R   0.615399 0.052134 0.020249 -0.155572
C62   C     C_R   0.571155 0.022421 0.131232 -0.164069
H44   H     H_    0.647735 0.198264 0.392993 0.111219
H45   H     H_    0.726116 0.248875 0.195569 0.133734
H46   H     H_    0.705473 0.156437 0.956967 0.126349
H47   H     H_    0.607200 0.009207 0.917374 0.122823
H48   H     H_    0.529979 0.955268 0.112075 0.122333

loop_
_geom_bond_atom_site_label_1
_geom_bond_atom_site_label_2
_ccdc_geom_bond_type
Cu1   O1    S    
C41   C42   A    
Cu2   O2    S    
Cu1   O4    S    
C27   C29   A    
C1    C8    S    
C17   C29   S    
C51   C56   A    
C11   H13   S    
C2    C7    S    
C12   H14   S    
C6    C9    S    
C46   C47   A    
C44   H33   S    
C14   H12   S    
C20   C30   A    
C58   H44   S    
C3    H9    S    
C49   H37   S    
C3    C9    S    
C15   N5    S    
C19   C21   A    
C24   C26   A    
C40   H29   S    
C56   H43   S    
C37   H25   S    
C11   C13   S    
C47   H35   S    
C22   H4    S    
C43   H32   S    
C52   C53   A    
C61   H47   S    
C57   C58   A    
C32   N4    A    
C17   O7    A    
C54   C55   A    
C11   C15   S    
C12   C16   S    
Cu1   O8    S    
N1    N3    A    
Cu2   O3    S    
N2    N4    A    
C51   C52   A    
C55   H42   S    
C18   C30   S    
C46   H34   S    
C5    C39   S    
C48   H36   S    
Cu1   O5    S    
C45   C50   A    
Cu2   O6    S    
C4    C7    S    
C38   H27   S    
C38   H26   S    
C13   N5    S    
Cu1   N5    S    
O10   C36   S    
C34   H17   S    
C33   C34   S    
C4    C6    S    
C3    C8    S    
C31   N3    A    
C5    C7    S    
C59   H45   S    
C18   O8    A    
C6    C8    S    
C4    H10   S    
C39   C40   A    
Cu2   O7    S    
C34   H18   S    
C33   H16   S    
C52   H39   S    
C36   H22   S    
C10   C57   S    
C1    O3    A    
C27   H7    S    
C48   C49   A    
C58   C59   A    
C45   C46   A    
C35   H21   S    
Cu1   Cu2   S    
C36   H23   S    
C60   C61   A    
C35   H19   S    
C11   N6    S    
C53   H40   S    
C17   O5    A    
C18   O6    A    
C14   N6    S    
C12   C14   S    
Cu2   N6    S    
C6    C45   S    
C21   C23   A    
C16   O10   S    
C9    C51   S    
C31   N2    A    
C4    C10   S    
C19   C29   A    
C38   H28   S    
C59   C60   A    
C50   H38   S    
C7    C9    S    
C42   H31   S    
C55   C56   A    
C40   C41   A    
C12   N5    S    
C20   C22   A    
C3    C5    S    
C35   H20   S    
C39   C44   A    
C2    O4    A    
C25   C27   A    
C26   C28   A    
C34   C35   S    
C23   C32   S    
C28   C30   A    
C1    O1    A    
C24   C31   S    
C60   H46   S    
C19   H1    S    
C53   C54   A    
C33   H15   S    
C13   H11   S    
C37   H24   S    
C37   C38   S    
C26   H6    S    
C62   H48   S    
C28   H8    S    
C49   C50   A    
C22   C24   A    
C57   C62   A    
C23   C25   A    
C36   C37   S    
C16   N6    S    
C32   N1    A    
O9    C33   S    
C20   H2    S    
C5    C10   S    
C21   H3    S    
C42   C43   A    
C8    C10   S    
C47   C48   A    
C13   C16   S    
C61   C62   A    
C15   O9    S    
C14   C15   S    
C2    O2    A    
C43   C44   A    
C41   H30   S    
C54   H41   S    
C25   H5    S    
