data_mof_unit_39658.cif
_audit_creation_date              2013-03-05T16:46:58-0500
_audit_creation_method            fapswitch 2.2
_symmetry_space_group_name_H-M    P1
_symmetry_Int_Tables_number       1
_space_group_crystal_system       triclinic
_cell_length_a                    14.964722
_cell_length_b                    9.134412
_cell_length_c                    8.107135
_cell_angle_alpha                 89.999984
_cell_angle_beta                  89.999929
_cell_angle_gamma                 90.253618
_cell_volume                      1108.18533779

loop_
_atom_site_label
_atom_site_type_symbol
_atom_site_description
_atom_site_fract_x
_atom_site_fract_y
_atom_site_fract_z
_atom_type_partial_charge
O1    O     O_R   0.500000 0.285350 0.636850 -0.614348
O2    O     O_R   0.500000 0.714650 0.363150 -0.612042
O3    O     O_R   0.500000 0.714650 0.636850 -0.614348
O4    O     O_R   0.500000 0.285350 0.363150 -0.612042
C1    C     C_R   0.499844 0.217642 0.499998 0.936612
C2    C     C_R   0.500156 0.782358 0.499998 0.936612
O5    O     O_R   0.367850 0.500000 0.636890 -0.611520
O6    O     O_R   0.632150 0.500000 0.363110 -0.608183
O7    O     O_R   0.632150 0.500000 0.636890 -0.611519
O8    O     O_R   0.367850 0.500000 0.363110 -0.608182
C3    C     C_R   0.326852 0.499991 0.499973 0.954671
C4    C     C_R   0.673147 0.500009 0.499973 0.954670
Zn1   Zn    Zn3+2 0.500000 0.500000 0.682780 1.060264
Zn2   Zn    Zn3+2 0.500000 0.500000 0.317220 1.060935
N1    N     N_1   0.500000 0.500000 0.073640 -0.012977
N2    N     N_1   0.500000 0.500000 0.926360 -0.012474
C5    C     C_R   0.812692 0.631429 0.494201 0.427197
C6    C     C_R   0.187308 0.368571 0.494202 0.427197
C7    C     C_R   0.813492 0.363064 0.494959 0.390559
C8    C     C_R   0.186508 0.636936 0.494959 0.390559
C9    C     C_R   0.768163 0.497330 0.499592 -0.238870
C10   C     C_R   0.231837 0.502670 0.499593 -0.238871
C11   C     C_R   0.906612 0.365340 0.482718 -0.045430
C12   C     C_R   0.093387 0.634660 0.482718 -0.045430
C13   C     C_R   0.906397 0.633012 0.497599 -0.124025
C14   C     C_R   0.093603 0.366988 0.497600 -0.124025
C15   C     C_R   0.953108 0.499651 0.488863 -0.114705
C16   C     C_R   0.046892 0.500348 0.488863 -0.114705
C17   C     C_R   0.954771 0.235124 0.471831 0.481163
C18   C     C_R   0.045229 0.764876 0.471830 0.481163
C19   C     C_R   0.954560 0.763858 0.511577 0.335631
C20   C     C_R   0.045439 0.236141 0.511577 0.335632
C21   C     C_1   0.499947 0.064763 0.499996 -0.105593
C22   C     C_1   0.500053 0.935237 0.499996 -0.105593
Cl1   Cl    Cl    0.913350 0.097192 0.339929 -0.438221
Cl2   Cl    Cl    0.086651 0.902808 0.339930 -0.438221
Cl3   Cl    Cl    0.914457 0.896407 0.651284 -0.405447
Cl4   Cl    Cl    0.085542 0.103593 0.651285 -0.405446
O9    O     O_3   0.762392 0.757437 0.478324 -0.707647
H1    H     H_    0.796621 0.828892 0.411259 0.396903
O10   O     O_3   0.237608 0.242563 0.478325 -0.707647
H2    H     H_    0.203379 0.171108 0.411260 0.396903
O11   O     O_3   0.769982 0.229203 0.509976 -0.667551
H3    H     H_    0.705399 0.242150 0.530085 0.322971
O12   O     O_3   0.230018 0.770797 0.509976 -0.667552
H4    H     H_    0.294600 0.757849 0.530091 0.322972

loop_
_geom_bond_atom_site_label_1
_geom_bond_atom_site_label_2
_geom_bond_distance
_ccdc_geom_bond_type
O3    Zn1   1.995745 S    
C13   C19   1.397579 A    
C7    C11   1.397108 A    
O11   H3    0.987751 S    
C14   C20   1.397580 A    
C11   C15   1.408629 A    
C13   C15   1.408942 A    
O10   H2    0.990476 S    
C17   Cl1   1.763012 S    
C3    C10   1.422198 S    
C14   C16   1.408942 A    
C8    O12   1.388099 S    
C6    C14   1.402553 A    
C18   Cl2   1.763013 S    
O6    C4    1.267889 A    
O3    C2    1.270213 A    
C5    C13   1.402552 A    
C21   C22   1.183151 T    
O12   H4    0.987748 S    
O5    C3    1.268271 A    
O2    C2    1.270186 A    
C2    C22   1.396467 S    
O1    C1    1.270212 A    
C11   C17   1.396258 A    
C7    C9    1.404666 A    
C8    C10   1.404666 A    
C17   C20   1.394559 A    
C20   Cl4   1.765034 S    
C1    C21   1.396467 S    
O4    Zn2   1.995746 S    
C18   C19   1.394559 A    
O2    Zn2   1.995746 S    
O7    C4    1.268271 A    
C12   C18   1.396257 A    
Zn1   N2    1.974736 S    
O1    Zn1   1.995746 S    
O8    C3    1.267889 A    
N1    N2    1.194018 T    
C19   Cl3   1.765036 S    
O5    Zn1   2.012279 S    
C5    O9    1.384072 S    
C6    O10   1.384072 S    
O9    H1    0.990476 S    
C8    C12   1.397109 A    
Zn2   N1    1.974736 S    
O7    Zn1   2.012277 S    
O6    Zn2   2.012278 S    
C6    C10   1.392530 A    
C4    C9    1.422198 S    
C5    C9    1.392531 A    
C12   C16   1.408628 A    
O8    Zn2   2.012278 S    
O4    C1    1.270186 A    
C15   C16   1.403436 A    
C7    O11   1.388099 S    
