data_mof_unit_38782.cif
_audit_creation_date              2012-12-11T17:03:24-0500
_audit_creation_method            fapswitch 2.2
_symmetry_space_group_name_H-M    P1
_symmetry_Int_Tables_number       1
_space_group_crystal_system       triclinic
_cell_length_a                    16.723908
_cell_length_b                    7.198529
_cell_length_c                    15.148773
_cell_angle_alpha                 89.439302
_cell_angle_beta                  94.511168
_cell_angle_gamma                 89.257234
_cell_volume                      1817.81403107

loop_
_atom_site_label
_atom_site_type_symbol
_atom_type_description
_atom_site_fract_x
_atom_site_fract_y
_atom_site_fract_z
_atom_type_partial_charge
O1    O     O_R   0.413460 0.494300 0.415980 -0.528048
O2    O     O_R   0.586540 0.994300 0.584020 -0.548623
O3    O     O_R   0.577100 0.822370 0.413730 -0.527621
O4    O     O_R   0.422900 0.322370 0.586270 -0.538426
C1    C     C_R   0.603542 0.655276 0.393569 0.696129
C2    C     C_R   0.396117 0.155811 0.605996 0.680255
O5    O     O_R   0.413490 0.823910 0.405510 -0.512862
O6    O     O_R   0.586510 0.323910 0.594490 -0.542412
O7    O     O_R   0.421770 0.995890 0.575740 -0.540764
O8    O     O_R   0.578230 0.495890 0.424260 -0.529157
C3    C     C_R   0.385982 0.656667 0.383549 0.729500
C4    C     C_R   0.614185 0.154086 0.616522 0.762654
O9    O     O_3   0.502910 0.661350 0.555860 -0.396205
O10   O     O_3   0.497090 0.161350 0.444140 -0.339839
V1    V     V_3+5 0.499460 0.935550 0.489640 1.465727
V2    V     V_3+5 0.500540 0.435550 0.510360 1.422633
C5    C     C_R   0.678002 0.077290 0.770084 -0.079986
C6    C     C_R   0.283315 0.484270 0.288814 -0.117471
C7    C     C_R   0.684336 0.145346 0.683549 -0.266987
C8    C     C_R   0.315925 0.649026 0.317377 -0.256913
C9    C     C_R   0.758687 0.225333 0.665039 0.388941
C10   C     C_R   0.283474 0.803385 0.268700 0.376842
C11   C     C_R   0.826336 0.215682 0.729125 0.361747
C12   C     C_R   0.206081 0.789226 0.222015 0.383332
C13   C     C_R   0.819426 0.129595 0.813130 -0.244052
C14   C     C_R   0.182352 0.619649 0.184446 -0.212229
C15   C     C_R   0.743410 0.072663 0.832448 -0.065018
C16   C     C_R   0.228193 0.470898 0.217618 -0.165078
C17   C     C_3   0.717573 0.901748 0.877630 -0.043134
C18   C     C_3   0.235846 0.269790 0.211504 0.015394
C19   C     C_3   0.644087 0.902279 0.808984 0.606376
C20   C     C_3   0.301630 0.284745 0.291840 0.696170
H1    H     H_    0.760553 0.783807 0.871793 0.118907
H2    H     H_    0.176284 0.226727 0.228381 0.186149
C21   C     C_1   0.165816 0.119894 0.831318 -0.186811
C22   C     C_1   0.833934 0.620861 0.168369 -0.189950
C23   C     C_1   0.218484 0.128357 0.779849 0.005455
C24   C     C_1   0.781096 0.628789 0.219643 0.007408
C25   C     C_1   0.280633 0.138778 0.719422 -0.000149
C26   C     C_1   0.718808 0.638134 0.279915 0.009868
C27   C     C_1   0.333322 0.147215 0.667986 -0.200056
C28   C     C_1   0.666098 0.646021 0.331344 -0.188318
O11   O     O_R   0.921840 0.772560 0.075830 -0.531750
O12   O     O_R   0.078160 0.272560 0.924170 -0.540885
O13   O     O_R   0.086520 0.441250 0.094510 -0.542086
O14   O     O_R   0.913480 0.941250 0.905490 -0.545106
C29   C     C_R   0.113731 0.608644 0.116731 0.741011
C30   C     C_R   0.887604 0.112013 0.881717 0.765040
O15   O     O_R   0.922920 0.442940 0.086290 -0.534146
O16   O     O_R   0.077080 0.942940 0.913710 -0.535360
O17   O     O_R   0.913440 0.271120 0.915960 -0.545608
O18   O     O_R   0.086560 0.771120 0.084040 -0.505601
C31   C     C_R   0.896745 0.611606 0.106435 0.708664
C32   C     C_R   0.103198 0.111192 0.893524 0.712681
O19   O     O_3   0.997130 0.604020 0.944190 -0.391732
O20   O     O_3   0.002870 0.104020 0.055810 -0.357970
V3    V     V_3+5 0.000530 0.329760 0.010360 1.413106
V4    V     V_3+5 0.999470 0.829760 0.989640 1.426238
O21   O     O_3   0.769507 0.282929 0.579372 -0.537574
C33   C     C_3   0.762521 0.478275 0.573631 -0.172951
H3    H     H_    0.807726 0.548044 0.618741 0.121701
H4    H     H_    0.701679 0.527825 0.587053 0.134585
H5    H     H_    0.772844 0.522287 0.505133 0.153390
O22   O     O_3   0.335678 0.929717 0.238296 -0.522104
C34   C     C_3   0.382761 0.847171 0.175237 -0.178950
H6    H     H_    0.346168 0.765285 0.125210 0.094262
H7    H     H_    0.431636 0.760401 0.208723 0.111914
H8    H     H_    0.411907 0.958342 0.138801 0.154256
O23   O     O_3   0.901073 0.261088 0.702561 -0.546254
C35   C     C_3   0.925736 0.434499 0.737447 -0.181167
H9    H     H_    0.980111 0.413112 0.783284 0.170170
H10   H     H_    0.879484 0.511869 0.772423 0.098916
H11   H     H_    0.943330 0.524122 0.682423 0.143253
O24   O     O_3   0.150925 0.931457 0.222235 -0.558877
C36   C     C_3   0.104468 0.906198 0.295183 -0.280748
H12   H     H_    0.142516 0.901132 0.358904 0.123174
H13   H     H_    0.067683 0.778733 0.287813 0.137346
H14   H     H_    0.062571 0.026381 0.297827 0.166459
C37   C     C_3   0.700718 0.938447 0.974008 -0.673789
H15   H     H_    0.663122 0.065626 0.979694 0.230019
H16   H     H_    0.669506 0.817606 0.000831 0.213278
H17   H     H_    0.758324 0.956725 0.014485 0.187854
C38   C     C_3   0.257583 0.210384 0.118540 -0.611058
H18   H     H_    0.240114 0.064738 0.106184 0.220860
H19   H     H_    0.321733 0.220850 0.108128 0.190761
H20   H     H_    0.223915 0.295461 0.066258 0.178504
O25   O     O_3   0.571665 0.927729 0.851035 -0.543419
C39   C     C_3   0.509271 0.001414 0.792500 -0.206365
H21   H     H_    0.495439 0.909420 0.735263 0.143226
H22   H     H_    0.522750 0.144361 0.770364 0.112584
H23   H     H_    0.454205 0.011339 0.828574 0.154075
O26   O     O_3   0.383338 0.235471 0.278843 -0.492319
C40   C     C_3   0.425788 0.353719 0.223943 -0.146316
H24   H     H_    0.467488 0.441126 0.265334 0.126921
H25   H     H_    0.387601 0.443604 0.177801 0.088239
H26   H     H_    0.463305 0.266234 0.183241 0.127807
C41   C     C_3   0.645098 0.727929 0.750899 -0.797980
H27   H     H_    0.597618 0.733937 0.696086 0.227430
H28   H     H_    0.703775 0.712792 0.721908 0.156967
H29   H     H_    0.635535 0.602471 0.791801 0.205769
C42   C     C_3   0.275149 0.203245 0.379321 -0.692898
H30   H     H_    0.307133 0.270129 0.437079 0.192513
H31   H     H_    0.209838 0.225497 0.384748 0.135992
H32   H     H_    0.288449 0.053396 0.385902 0.210670

loop_
_geom_bond_atom_site_label_1
_geom_bond_atom_site_label_2
_ccdc_geom_bond_type
C18   C20   S    
C1    C28   S    
C40   H24   S    
C15   C17   S    
C11   O23   S    
O1    C3    A    
O25   C39   S    
O2    C4    A    
C2    O7    A    
C41   H27   S    
C25   C27   T    
O5    C3    A    
O13   V3    S    
O16   C32   A    
C33   H5    S    
C21   C23   T    
C12   C14   A    
C9    O21   S    
C17   H1    S    
O15   V3    S    
O20   V3    S    
C33   H4    S    
O6    V2    S    
C18   C38   S    
C22   C31   S    
O11   V4    S    
O11   C31   A    
C30   O17   A    
C34   H7    S    
C2    C27   S    
C35   H9    S    
O17   V3    S    
C6    C8    A    
C26   C28   T    
O21   C33   S    
C42   H31   S    
O14   V4    S    
C21   C32   S    
C17   C19   S    
C41   H28   S    
O13   C29   A    
O14   C30   A    
C3    C8    S    
C19   O25   S    
O24   C36   S    
C18   H2    S    
C5    C15   A    
C42   H30   S    
C6    C16   A    
O4    C2    A    
C37   H16   S    
C33   H3    S    
O16   V4    S    
O4    V2    S    
C36   H12   S    
C38   H18   S    
C17   C37   S    
C39   H23   S    
O12   V3    S    
O6    C4    A    
C34   H8    S    
C38   H20   S    
C35   H11   S    
O1    V2    S    
O2    V1    S    
C36   H13   S    
C13   C30   S    
O18   V4    S    
C14   C29   S    
C38   H19   S    
C39   H22   S    
C40   H26   S    
O9    V1    S    
C13   C15   A    
C5    C19   S    
O10   V2    S    
O9    V2    S    
C6    C20   S    
C22   C24   T    
C41   H29   S    
O3    V1    S    
C7    C9    A    
C20   C42   S    
C8    C10   A    
O3    C1    A    
C37   H17   S    
C29   O18   A    
C42   H32   S    
C14   C16   A    
O22   C34   S    
C9    C11   A    
O7    V1    S    
C16   C18   S    
C23   C25   S    
O8    V2    S    
C24   C26   S    
C12   O24   S    
C20   O26   S    
O15   C31   A    
C4    C7    S    
O5    V1    S    
O26   C40   S    
C5    C7    A    
C10   C12   A    
C19   C41   S    
O23   C35   S    
C36   H14   S    
C10   O22   S    
C37   H15   S    
O12   C32   A    
C1    O8    A    
C11   C13   A    
C39   H21   S    
C40   H25   S    
C34   H6    S    
O19   V4    S    
O10   V1    S    
C35   H10   S    
