data_mof_unit_22947.cif
_audit_creation_date              2012-12-10T17:33:13-0500
_audit_creation_method            fapswitch 2.2
_symmetry_space_group_name_H-M    P1
_symmetry_Int_Tables_number       1
_space_group_crystal_system       triclinic
_cell_length_a                    12.038769
_cell_length_b                    12.792685
_cell_length_c                    13.578387
_cell_angle_alpha                 91.52044
_cell_angle_beta                  78.285298
_cell_angle_gamma                 96.641935
_cell_volume                      2033.87200072

loop_
_atom_site_label
_atom_site_type_symbol
_atom_type_description
_atom_site_fract_x
_atom_site_fract_y
_atom_site_fract_z
_atom_type_partial_charge
C1    C     C_R   0.526343 0.701234 0.496135 0.867663
C2    C     C_R   0.150728 0.475389 0.446670 -0.187487
C3    C     C_R   0.967260 0.510717 0.549107 -0.027012
C4    C     C_R   0.030821 0.473263 0.458167 -0.041491
C5    C     C_R   0.479358 0.501859 0.687188 0.887312
C6    C     C_R   0.520306 0.496662 0.312884 0.897436
C7    C     C_1   0.534359 0.486237 0.208021 -0.184667
C8    C     C_1   0.463617 0.505890 0.792496 -0.180215
C9    C     C_2   0.537754 0.470510 0.016407 -0.180251
C10   C     C_2   0.454386 0.511099 0.985331 -0.169602
C11   C     C_1   0.455092 0.509123 0.881208 0.009001
C12   C     C_R   0.473610 0.298609 0.504984 0.870687
C13   C     C_1   0.540315 0.477367 0.119853 -0.004407
C14   C     C_R   0.450017 0.184851 0.515434 -0.131162
C15   C     C_R   0.550685 0.814887 0.490084 -0.134729
C16   C     C_R   0.616578 0.973965 0.568498 -0.240819
C17   C     C_R   0.373973 0.019851 0.452509 -0.282112
C18   C     C_R   0.630171 0.869668 0.542372 0.045044
C19   C     C_R   0.365477 0.126036 0.470972 0.139567
C20   C     C_R   0.482398 0.869748 0.441663 0.032882
C21   C     C_R   0.522975 0.132388 0.561692 0.017175
C22   C     C_3   0.578368 0.186427 0.644785 -0.392165
C23   C     C_R   0.465074 0.972575 0.474118 0.084564
C24   C     C_3   0.707816 0.220140 0.611088 -0.288465
C25   C     C_3   0.771381 0.211447 0.696554 -0.964759
C26   C     C_3   0.438053 0.821381 0.350249 -0.430761
C27   C     C_3   0.535598 0.787843 0.268147 -0.333073
C28   C     C_3   0.492187 0.748796 0.174062 -0.891278
C29   C     C_3   0.262476 0.168798 0.444609 -0.391691
C30   C     C_3   0.157604 0.152417 0.531363 -0.362229
C31   C     C_3   0.164447 0.229424 0.618291 -0.773473
C32   C     C_3   0.729647 0.818222 0.567490 -0.365293
C33   C     C_3   0.827999 0.895012 0.594029 -0.376699
C34   C     C_R   0.534412 0.026229 0.536291 0.088004
C35   C     C_3   0.933504 0.839909 0.595353 -0.915813
C36   C     C_3   0.215214 0.721771 0.655598 -0.316531
C37   C     C_3   0.834932 0.528833 0.250254 -0.326661
C38   C     C_3   0.033751 0.384772 0.285202 -0.394083
C39   C     C_3   0.060550 0.273762 0.304763 -0.375257
C40   C     C_3   0.952602 0.196744 0.334672 -0.815931
C41   C     C_3   0.963103 0.570663 0.732219 -0.411107
C42   C     C_3   0.910791 0.467665 0.786743 -0.330022
C43   C     C_3   0.858012 0.487783 0.896640 -0.906176
C44   C     C_R   0.973180 0.436600 0.380746 -0.002907
C45   C     C_R   0.026090 0.549166 0.625783 -0.067973
C46   C     C_R   0.856370 0.450748 0.391775 0.619134
C47   C     C_R   0.147356 0.561712 0.603440 0.623187
C48   C     C_R   0.847230 0.510356 0.559577 -0.195732
H1    H     H_    0.388728 0.548155 0.036788 0.156023
H2    H     H_    0.746285 0.172565 0.546242 0.210736
H3    H     H_    0.722390 0.303211 0.586680 0.256185
H4    H     H_    0.535755 0.256562 0.674697 0.178603
H5    H     H_    0.561061 0.132091 0.710098 0.196277
H6    H     H_    0.424346 0.681708 0.192897 0.263990
H7    H     H_    0.457282 0.813059 0.140764 0.257786
H8    H     H_    0.563657 0.722203 0.117398 0.256109
H9    H     H_    0.601855 0.856007 0.247506 0.224504
H10   H     H_    0.576248 0.723939 0.295625 0.206777
H11   H     H_    0.372079 0.753792 0.372871 0.222198
H12   H     H_    0.603259 0.433435 0.964943 0.161248
H13   H     H_    0.397165 0.878335 0.313505 0.200648
H14   H     H_    0.239672 0.219811 0.651434 0.256908
H15   H     H_    0.169621 0.311537 0.592082 0.268100
H16   H     H_    0.086343 0.213931 0.677783 0.218409
H17   H     H_    0.079449 0.162541 0.502757 0.211646
H18   H     H_    0.147293 0.070538 0.560051 0.217173
H19   H     H_    0.279190 0.250870 0.417912 0.211405
H20   H     H_    0.239766 0.124820 0.378344 0.150083
H21   H     H_    0.913291 0.778889 0.654446 0.259810
H22   H     H_    0.963913 0.803012 0.521254 0.260597
H23   H     H_    0.669467 0.013517 0.615696 0.170770
H24   H     H_    0.003069 0.898052 0.612332 0.244129
H25   H     H_    0.852625 0.959225 0.537438 0.229218
H26   H     H_    0.800447 0.929735 0.669725 0.219014
H27   H     H_    0.696898 0.761181 0.629865 0.202627
H28   H     H_    0.768081 0.774908 0.499389 0.226421
H29   H     H_    0.132577 0.752249 0.687229 0.140452
H30   H     H_    0.242155 0.744342 0.574848 0.168354
H31   H     H_    0.280040 0.761469 0.695751 0.193440
H32   H     H_    0.804723 0.598964 0.293373 0.167398
H33   H     H_    0.792819 0.518726 0.184606 0.198826
H34   H     H_    0.306894 0.974134 0.422600 0.137275
H35   H     H_    0.928325 0.544366 0.220410 0.126379
H36   H     H_    0.900553 0.221491 0.406753 0.253479
H37   H     H_    0.900858 0.192814 0.275319 0.268493
H38   H     H_    0.976555 0.117018 0.344720 0.225259
H39   H     H_    0.113718 0.244210 0.235241 0.208169
H40   H     H_    0.110357 0.276181 0.364764 0.220761
H41   H     H_    0.982423 0.377101 0.225682 0.237643
H42   H     H_    0.113245 0.434882 0.251455 0.151654
H43   H     H_    0.924607 0.522965 0.937341 0.263791
H44   H     H_    0.791306 0.541972 0.901763 0.263582
H45   H     H_    0.201851 0.443553 0.380715 0.168973
H46   H     H_    0.818360 0.412219 0.933346 0.250252
H47   H     H_    0.843357 0.428153 0.749537 0.229904
H48   H     H_    0.977808 0.413984 0.783639 0.230131
H49   H     H_    0.021428 0.612526 0.777528 0.241612
H50   H     H_    0.895884 0.622626 0.731448 0.180949
H51   H     H_    0.796041 0.538486 0.627444 0.180440
H52   H     H_    0.733347 0.257561 0.762773 0.270685
H53   H     H_    0.767070 0.128119 0.719156 0.257602
H54   H     H_    0.862547 0.242552 0.671257 0.256416
N1    N     N_R   0.206090 0.519450 0.517820 -0.151864
N2    N     N_R   0.793910 0.480550 0.482180 -0.161151
O1    O     O_R   0.421240 0.658850 0.504760 -0.594388
O2    O     O_3   0.805499 0.436338 0.309469 -0.585149
O3    O     O_R   0.578760 0.341150 0.495240 -0.595476
O4    O     O_R   0.609960 0.646370 0.493320 -0.643602
O5    O     O_R   0.390040 0.353630 0.506680 -0.627074
O6    O     O_R   0.392060 0.507120 0.646890 -0.545012
O7    O     O_R   0.607940 0.492880 0.353110 -0.551457
O8    O     O_R   0.580780 0.494630 0.635450 -0.636558
O9    O     O_R   0.419220 0.505370 0.364550 -0.631103
O10   O     O_3   0.208031 0.612027 0.670396 -0.589422
Zn1   Zn    Zn3+2 0.373990 0.508340 0.507630 0.951098
Zn2   Zn    Zn3+2 0.626010 0.491660 0.492370 0.942226

loop_
_geom_bond_atom_site_label_1
_geom_bond_atom_site_label_2
_ccdc_geom_bond_type
C47   O10   S    
C15   C18   A    
C6    O7    A    
C40   H36   S    
N1    Zn1   S    
C39   H39   S    
C36   O10   S    
C32   H27   S    
C28   H8    S    
C38   H41   S    
C26   C27   S    
C17   C23   A    
C42   H48   S    
C14   C21   A    
C26   H13   S    
C36   H29   S    
C30   C31   S    
C25   H54   S    
C5    O6    A    
C48   N2    A    
C3    C48   A    
C43   H46   S    
C17   H34   S    
C41   C42   S    
C40   H38   S    
C9    C13   S    
C16   C34   A    
C29   H19   S    
C35   H22   S    
O7    Zn2   S    
C1    C15   S    
C9    C10   D    
C24   H3    S    
N2    Zn2   S    
C21   C22   S    
C31   H14   S    
C37   H33   S    
C16   H23   S    
C39   H40   S    
C31   H16   S    
C12   O5    A    
C28   H7    S    
C44   C46   A    
C22   H5    S    
C45   C47   A    
C24   H2    S    
C15   C20   A    
C37   H32   S    
C47   N1    A    
C42   H47   S    
C31   H15   S    
C24   C25   S    
C27   H9    S    
C39   C40   S    
C28   H6    S    
C17   C19   A    
C21   C34   A    
C4    C44   A    
C46   N2    A    
C3    C45   A    
C43   H43   S    
C40   H37   S    
C2    C4    A    
C6    O9    A    
C38   C44   S    
C29   C30   S    
C5    C8    S    
C29   H20   S    
C25   H52   S    
C20   C23   A    
C23   C34   A    
C30   H18   S    
C33   H25   S    
C12   C14   S    
C35   H24   S    
C41   H49   S    
C18   C32   S    
C42   C43   S    
C3    C4    A    
C19   C29   S    
O8    Zn2   S    
C22   H4    S    
C26   H11   S    
C48   H51   S    
C14   C19   A    
O1    Zn1   S    
C2    H45   S    
C36   H31   S    
C32   H28   S    
C12   O3    A    
C6    C7    S    
C5    O8    A    
C38   H42   S    
C43   H44   S    
C9    H12   S    
C32   C33   S    
O4    Zn2   S    
C37   O2    S    
C36   H30   S    
C25   H53   S    
C38   C39   S    
C20   C26   S    
C2    N1    A    
C27   H10   S    
C8    C11   T    
C46   O2    S    
C33   C35   S    
C22   C24   S    
O3    Zn2   S    
C30   H17   S    
C10   C11   S    
O5    Zn1   S    
C1    O4    A    
C33   H26   S    
C7    C13   T    
C35   H21   S    
C16   C18   A    
C27   C28   S    
C41   C45   S    
C41   H50   S    
C37   H35   S    
C10   H1    S    
O6    Zn1   S    
C1    O1    A    
O9    Zn1   S    
