data_mof_unit_57788.cif
_audit_creation_date              2012-12-11T15:12:18-0500
_audit_creation_method            fapswitch 2.2
_symmetry_space_group_name_H-M    P1
_symmetry_Int_Tables_number       1
_space_group_crystal_system       triclinic
_cell_length_a                    30.863603
_cell_length_b                    22.394104
_cell_length_c                    17.950059
_cell_angle_alpha                 89.999953
_cell_angle_beta                  124.086184
_cell_angle_gamma                 90.000034
_cell_volume                      10274.93449

loop_
_atom_site_label
_atom_site_type_symbol
_atom_type_description
_atom_site_fract_x
_atom_site_fract_y
_atom_site_fract_z
_atom_type_partial_charge
C1    C     C_R   0.542565 0.591028 0.736670 -0.128478
C2    C     C_R   0.230940 0.657247 0.433423 0.148243
C3    C     C_R   0.360141 0.194978 0.110839 -0.138179
C4    C     C_R   0.818744 0.193095 0.954303 -0.140864
C5    C     C_R   0.139858 0.694974 0.889153 -0.138181
C6    C     C_R   0.181256 0.193095 0.045696 -0.140863
C7    C     C_R   0.860142 0.694975 0.110847 -0.138181
C8    C     C_R   0.237462 0.655292 0.931902 -0.141067
C9    C     C_R   0.709857 0.198345 0.863113 -0.138864
C10   C     C_R   0.762538 0.655291 0.068098 -0.141067
C11   C     C_R   0.290143 0.198344 0.136887 -0.138861
C12   C     C_R   0.737461 0.155292 0.931905 -0.141068
C13   C     C_R   0.252133 0.287767 0.425208 0.130697
C14   C     C_R   0.209858 0.698344 0.863110 -0.138866
C15   C     C_R   0.262539 0.155292 0.068094 -0.141065
C16   C     C_R   0.790142 0.698344 0.136890 -0.138866
C17   C     C_R   0.734508 0.221823 0.822689 0.324854
C18   C     C_R   0.208216 0.619490 0.953711 0.325888
C19   C     C_R   0.265492 0.221822 0.177310 0.324853
C20   C     C_R   0.791784 0.619490 0.046289 0.325889
C21   C     C_R   0.234510 0.721823 0.822688 0.324854
C22   C     C_R   0.708215 0.119492 0.953716 0.325890
C23   C     C_R   0.765490 0.721823 0.177312 0.324854
C24   C     C_R   0.769060 0.657244 0.566576 0.148242
C25   C     C_R   0.291784 0.119492 0.046283 0.325889
C26   C     C_R   0.789151 0.223727 0.872106 0.530817
C27   C     C_R   0.160786 0.641187 0.936949 0.527744
C28   C     C_R   0.210849 0.223728 0.127893 0.530817
C29   C     C_R   0.839214 0.641187 0.063051 0.527744
C30   C     C_R   0.289153 0.723728 0.872106 0.530818
C31   C     C_R   0.660786 0.141190 0.936955 0.527742
C32   C     C_R   0.710847 0.723728 0.127894 0.530817
C33   C     C_R   0.339213 0.141191 0.063043 0.527743
C34   C     C_R   0.594386 0.576244 0.421574 -0.080444
C35   C     C_R   0.247872 0.787778 0.574790 0.130694
C36   C     C_R   0.408447 0.412723 0.577620 -0.142685
C37   C     C_R   0.405614 0.576244 0.578426 -0.080445
C38   C     C_R   0.591551 0.412718 0.422380 -0.142694
C39   C     C_R   0.094387 0.076244 0.421575 -0.080445
C40   C     C_R   0.908447 0.912725 0.577620 -0.142687
C41   C     C_R   0.905614 0.076242 0.578426 -0.080444
C42   C     C_R   0.091553 0.912725 0.422379 -0.142686
C43   C     C_R   0.386190 0.594911 0.267037 0.573285
C44   C     C_R   0.611229 0.399614 0.725305 0.567417
C45   C     C_R   0.613810 0.594911 0.732964 0.573295
C46   C     C_R   0.730934 0.157226 0.433433 0.148242
C47   C     C_R   0.388771 0.399613 0.274697 0.567419
C48   C     C_R   0.886190 0.094911 0.267037 0.573293
C49   C     C_R   0.111229 0.899612 0.725302 0.567424
C50   C     C_R   0.113810 0.094911 0.732963 0.573293
C51   C     C_R   0.888771 0.899612 0.274698 0.567425
C52   C     C_R   0.593123 0.614339 0.781622 -0.054833
C53   C     C_R   0.414945 0.366439 0.244507 -0.052219
C54   C     C_R   0.406877 0.614339 0.218378 -0.054828
C55   C     C_R   0.585055 0.366439 0.755494 -0.052225
C56   C     C_R   0.093123 0.114339 0.781621 -0.054831
C57   C     C_R   0.752128 0.787776 0.425210 0.130696
C58   C     C_R   0.914946 0.866437 0.244510 -0.052227
C59   C     C_R   0.906876 0.114339 0.218378 -0.054832
C60   C     C_R   0.085054 0.866437 0.755489 -0.052228
C61   C     C_R   0.644997 0.584844 0.492704 0.026368
C62   C     C_R   0.361640 0.392534 0.505213 0.049768
C63   C     C_R   0.355003 0.584845 0.507296 0.026369
C64   C     C_R   0.638356 0.392526 0.494788 0.049773
C65   C     C_R   0.144998 0.084843 0.492705 0.026370
C66   C     C_R   0.861638 0.892537 0.505213 0.049768
C67   C     C_R   0.855003 0.084841 0.507297 0.026367
C68   C     C_R   0.269063 0.157238 0.566577 0.148241
C69   C     C_R   0.138362 0.892538 0.494786 0.049769
C70   C     C_R   0.651066 0.312727 0.415376 -0.213521
C71   C     C_R   0.326678 0.632458 0.594816 -0.203526
C72   C     C_R   0.348926 0.312743 0.584631 -0.213525
C73   C     C_R   0.673322 0.632457 0.405184 -0.203526
C74   C     C_R   0.151080 0.812754 0.415367 -0.213525
C75   C     C_R   0.826677 0.132448 0.594820 -0.203529
C76   C     C_R   0.848922 0.812751 0.584632 -0.213525
C77   C     C_R   0.173325 0.132450 0.405186 -0.203530
C78   C     C_R   0.672240 0.350380 0.490551 0.112665
C79   C     C_R   0.725029 0.247564 0.501725 0.041182
C80   C     C_R   0.312685 0.604280 0.514607 0.106597
C81   C     C_R   0.327754 0.350391 0.509451 0.112659
C82   C     C_R   0.687315 0.604279 0.485393 0.106597
C83   C     C_R   0.172250 0.850400 0.490547 0.112658
C84   C     C_R   0.812684 0.104271 0.514611 0.106596
C85   C     C_R   0.827751 0.850398 0.509453 0.112660
C86   C     C_R   0.187317 0.104275 0.485395 0.106595
C87   C     C_R   0.721863 0.339877 0.567742 -0.185972
C88   C     C_R   0.262405 0.611512 0.436690 -0.250854
C89   C     C_R   0.278133 0.339884 0.432257 -0.185972
C90   C     C_R   0.250708 0.694616 0.509260 0.040268
C91   C     C_R   0.737595 0.611510 0.563309 -0.250854
C92   C     C_R   0.221872 0.839894 0.567742 -0.185978
C93   C     C_R   0.762402 0.111497 0.436698 -0.250859
C94   C     C_R   0.778129 0.839892 0.432258 -0.185980
C95   C     C_R   0.237597 0.111506 0.563311 -0.250856
C96   C     C_3   0.326434 0.660871 0.252978 -0.307917
C97   C     C_3   0.690486 0.426599 0.846995 -0.181122
C98   C     C_3   0.673567 0.660871 0.747023 -0.307922
C99   C     C_3   0.309514 0.426606 0.153016 -0.181142
C100  C     C_3   0.826434 0.160871 0.252979 -0.307915
C101  C     C_R   0.274967 0.247574 0.498281 0.041180
C102  C     C_3   0.190486 0.926596 0.846989 -0.181142
C103  C     C_3   0.173566 0.160872 0.747021 -0.307916
C104  C     C_3   0.809513 0.926596 0.153010 -0.181141
C105  C     C_3   0.812564 0.318216 0.864168 -0.254024
C106  C     C_3   0.158294 0.620549 0.058372 -0.185273
C107  C     C_3   0.187437 0.318217 0.135831 -0.254024
C108  C     C_3   0.841707 0.620549 0.941628 -0.185272
C109  C     C_3   0.312566 0.818218 0.864170 -0.254022
C110  C     C_3   0.658294 0.120553 0.058379 -0.185270
C111  C     C_3   0.687433 0.818217 0.135829 -0.254022
C112  C     C_R   0.463656 0.394493 0.282943 -0.149987
C113  C     C_R   0.749292 0.694614 0.490739 0.040268
C114  C     C_3   0.341703 0.120555 0.941617 -0.185274
C115  C     C_R   0.225039 0.747585 0.501718 0.041179
C116  C     C_R   0.750702 0.194597 0.509268 0.040267
C117  C     C_R   0.774962 0.747583 0.498282 0.041180
C118  C     C_R   0.249297 0.194605 0.490739 0.040270
C119  C     C_R   0.677312 0.261115 0.420485 0.128075
C120  C     C_R   0.298070 0.680928 0.591106 0.093186
C121  C     C_R   0.322681 0.261130 0.579523 0.128075
C122  C     C_R   0.701930 0.680927 0.408893 0.093186
C123  C     C_R   0.177325 0.761141 0.420474 0.128074
C124  C     C_R   0.457435 0.591028 0.263330 -0.128476
C125  C     C_R   0.798067 0.180915 0.591112 0.093186
C126  C     C_R   0.822676 0.761138 0.579524 0.128074
C127  C     C_R   0.201935 0.180918 0.408894 0.093187
C128  C     C_R   0.795403 0.274295 0.654921 -0.076517
C129  C     C_R   0.183122 0.670555 0.353069 -0.201384
C130  C     C_R   0.204597 0.274297 0.345079 -0.076515
C131  C     C_R   0.816879 0.670551 0.646930 -0.201384
C132  C     C_R   0.295407 0.774307 0.654921 -0.076522
C133  C     C_R   0.683112 0.170528 0.353082 -0.201384
C134  C     C_R   0.704593 0.774306 0.345079 -0.076521
C135  C     C_R   0.536344 0.394493 0.717056 -0.149981
C136  C     C_R   0.316882 0.170545 0.646930 -0.201385
C137  C     C_R   0.319653 0.720110 0.664285 -0.113979
C138  C     C_R   0.655987 0.222020 0.347014 -0.162933
C139  C     C_R   0.680347 0.720109 0.335715 -0.113981
C140  C     C_R   0.344005 0.222039 0.652999 -0.162933
C141  C     C_R   0.819650 0.220100 0.664287 -0.113993
C142  C     C_R   0.156001 0.722050 0.346999 -0.162931
C143  C     C_R   0.180352 0.220100 0.335716 -0.113991
C144  C     C_R   0.844001 0.722046 0.652999 -0.162931
C145  C     C_R   0.377821 0.640592 0.126521 -0.034581
C146  C     C_R   0.042565 0.091029 0.736670 -0.128479
C147  C     C_R   0.602504 0.307523 0.803590 -0.023980
C148  C     C_R   0.622179 0.640591 0.873479 -0.034581
C149  C     C_R   0.397496 0.307523 0.196410 -0.023976
C150  C     C_R   0.877820 0.140591 0.126520 -0.034581
C151  C     C_R   0.102503 0.807520 0.803584 -0.023979
C152  C     C_R   0.122179 0.140592 0.873479 -0.034582
C153  C     C_R   0.897497 0.807520 0.196416 -0.023979
C154  C     C_R   0.373135 0.701573 0.010524 -0.192059
C155  C     C_R   0.597909 0.223307 0.885065 -0.190925
C156  C     C_R   0.626865 0.701572 0.989476 -0.192060
C157  C     C_R   0.963657 0.894492 0.282946 -0.149980
C158  C     C_R   0.402090 0.223308 0.114933 -0.190926
C159  C     C_R   0.873134 0.201572 0.010522 -0.192061
C160  C     C_R   0.097908 0.723302 0.885058 -0.190924
C161  C     C_R   0.126866 0.201572 0.989476 -0.192060
C162  C     C_R   0.902092 0.723303 0.114942 -0.190924
C163  C     C_R   0.402306 0.677654 0.097017 0.469800
C164  C     C_R   0.580505 0.279885 0.846069 0.467083
C165  C     C_R   0.597694 0.677653 0.902983 0.469801
C166  C     C_R   0.419494 0.279886 0.153929 0.467077
C167  C     C_R   0.902305 0.177653 0.097016 0.469801
C168  C     C_R   0.957435 0.091028 0.263330 -0.128478
C169  C     C_R   0.080504 0.779881 0.846062 0.467084
C170  C     C_R   0.097695 0.177654 0.902983 0.469801
C171  C     C_R   0.919496 0.779881 0.153937 0.467085
C172  C     C_R   0.324165 0.628503 0.067321 -0.202688
C173  C     C_R   0.642406 0.276961 0.804078 -0.188161
C174  C     C_R   0.675835 0.628502 0.932679 -0.202689
C175  C     C_R   0.357594 0.276960 0.195922 -0.188149
C176  C     C_R   0.824164 0.128502 0.067322 -0.202689
C177  C     C_R   0.142405 0.776958 0.804073 -0.188160
C178  C     C_R   0.175835 0.128502 0.932678 -0.202689
C179  C     C_R   0.036343 0.894492 0.717054 -0.149981
C180  C     C_R   0.857594 0.776959 0.195927 -0.188159
C181  C     C_R   0.293295 0.655837 0.982415 0.090416
C182  C     C_R   0.662663 0.222039 0.847826 0.086910
C183  C     C_R   0.706705 0.655837 0.017585 0.090416
C184  C     C_R   0.337337 0.222038 0.152174 0.086902
C185  C     C_R   0.793294 0.155837 0.982417 0.090415
C186  C     C_R   0.162663 0.722037 0.847821 0.086908
C187  C     C_R   0.206706 0.155837 0.017583 0.090413
C188  C     C_R   0.837337 0.722037 0.152179 0.086908
C189  C     C_R   0.646175 0.575267 0.570005 -0.109884
C190  C     C_R   0.747864 0.287761 0.574793 0.130705
C191  C     C_R   0.357687 0.411762 0.428288 -0.060115
C192  C     C_R   0.353825 0.575267 0.429995 -0.109885
C193  C     C_R   0.642310 0.411757 0.571712 -0.060128
C194  C     C_R   0.146175 0.075266 0.570006 -0.109885
C195  C     C_R   0.857687 0.911764 0.428288 -0.060108
C196  C     C_R   0.853824 0.075265 0.429995 -0.109883
C197  C     C_R   0.142314 0.911765 0.571711 -0.060107
C198  C     C_R   0.318746 0.693095 0.954303 -0.140866
C199  C     C_R   0.639858 0.194978 0.889159 -0.138181
C200  C     C_R   0.681254 0.693095 0.045697 -0.140865
Cl1   Cl    Cl    0.534936 0.314947 0.861194 -0.676658
Cl2   Cl    Cl    0.223833 0.543542 0.984332 -0.649061
Cl3   Cl    Cl    0.300907 0.239877 0.293137 -0.632287
Cl4   Cl    Cl    0.776168 0.543541 0.015669 -0.649061
Cl5   Cl    Cl    0.199096 0.739880 0.706862 -0.632280
Cl6   Cl    Cl    0.723831 0.043543 0.984336 -0.649059
Cl7   Cl    Cl    0.800904 0.739880 0.293137 -0.632282
Cl8   Cl    Cl    0.276169 0.043543 0.015663 -0.649059
Cl9   Cl    Cl    0.468046 0.700707 0.167773 -0.669762
Cl10  Cl    Cl    0.465062 0.314949 0.138803 -0.676659
Cl11  Cl    Cl    0.531954 0.700706 0.832227 -0.669762
Cl12  Cl    Cl    0.034934 0.814941 0.861186 -0.676663
Cl13  Cl    Cl    0.968045 0.200706 0.167770 -0.669759
Cl14  Cl    Cl    0.965066 0.814942 0.138814 -0.676663
Cl15  Cl    Cl    0.031955 0.200707 0.832228 -0.669760
Cl16  Cl    Cl    0.699093 0.239879 0.706863 -0.632296
H1    H     H_    0.517658 0.589463 0.761257 0.177434
H2    H     H_    0.306198 0.600835 0.091097 0.228982
H3    H     H_    0.198942 0.602874 0.099368 0.169817
H4    H     H_    0.135600 0.597306 0.080473 0.177305
H5    H     H_    0.158233 0.669062 0.071941 0.107483
H6    H     H_    0.172490 0.323969 0.063539 0.144433
H7    H     H_    0.227628 0.336866 0.179275 0.184992
H8    H     H_    0.161561 0.344729 0.147821 0.173213
H9    H     H_    0.801059 0.602873 0.900633 0.169819
H10   H     H_    0.864400 0.597307 0.919528 0.177305
H11   H     H_    0.841766 0.669062 0.928059 0.107482
H12   H     H_    0.327512 0.823968 0.936462 0.144428
H13   H     H_    0.340061 0.298205 0.225729 0.229035
H14   H     H_    0.272376 0.836868 0.820725 0.184992
H15   H     H_    0.338445 0.844728 0.852185 0.173214
H16   H     H_    0.698942 0.102877 0.099374 0.169818
H17   H     H_    0.635601 0.097311 0.080480 0.177303
H18   H     H_    0.658235 0.169066 0.071948 0.107484
H19   H     H_    0.672488 0.823968 0.063537 0.144428
H20   H     H_    0.727624 0.836867 0.179275 0.184991
H21   H     H_    0.661555 0.844727 0.147816 0.173214
H22   H     H_    0.301056 0.102878 0.900623 0.169820
H23   H     H_    0.364397 0.097314 0.919515 0.177303
H24   H     H_    0.693802 0.600835 0.908903 0.228983
H25   H     H_    0.341762 0.169068 0.928048 0.107483
H26   H     H_    0.159939 0.798204 0.774268 0.229037
H27   H     H_    0.806198 0.100834 0.091098 0.228985
H28   H     H_    0.840061 0.798205 0.225732 0.229036
H29   H     H_    0.193802 0.100834 0.908901 0.228985
H30   H     H_    0.392864 0.730174 0.989784 0.209049
H31   H     H_    0.580463 0.203220 0.917210 0.202613
H32   H     H_    0.607136 0.730173 0.010216 0.209049
H33   H     H_    0.494811 0.381790 0.276273 0.192575
H34   H     H_    0.419535 0.203221 0.082786 0.202613
H35   H     H_    0.892862 0.230173 0.989782 0.209049
H36   H     H_    0.080462 0.703215 0.917202 0.202613
H37   H     H_    0.107138 0.230174 0.010216 0.209049
H38   H     H_    0.919538 0.703215 0.082798 0.202613
H39   H     H_    0.680739 0.570866 0.637417 0.151319
H40   H     H_    0.324040 0.408644 0.359942 0.162698
H41   H     H_    0.319261 0.570867 0.362583 0.151318
H42   H     H_    0.675957 0.408637 0.640058 0.162709
H43   H     H_    0.180739 0.070865 0.637417 0.151319
H44   H     H_    0.482342 0.589463 0.238743 0.177434
H45   H     H_    0.824039 0.908647 0.359943 0.162697
H46   H     H_    0.819260 0.070864 0.362584 0.151316
H47   H     H_    0.175961 0.908648 0.640057 0.162696
H48   H     H_    0.579980 0.571565 0.351425 0.102740
H49   H     H_    0.421534 0.412250 0.647453 0.116533
H50   H     H_    0.420019 0.571565 0.648575 0.102740
H51   H     H_    0.578465 0.412244 0.352548 0.116538
H52   H     H_    0.079981 0.071565 0.351426 0.102739
H53   H     H_    0.921533 0.912254 0.647453 0.116532
H54   H     H_    0.920020 0.071561 0.648575 0.102737
H55   H     H_    0.505188 0.381790 0.723725 0.192576
H56   H     H_    0.078467 0.912254 0.352547 0.116532
H57   H     H_    0.612615 0.320962 0.355148 0.147866
H58   H     H_    0.364289 0.624714 0.656855 0.133376
H59   H     H_    0.387375 0.320981 0.644863 0.147865
H60   H     H_    0.635710 0.624714 0.343145 0.133376
H61   H     H_    0.112631 0.820992 0.355135 0.147865
H62   H     H_    0.864291 0.124709 0.656857 0.133375
H63   H     H_    0.887371 0.820989 0.644864 0.147865
H64   H     H_    0.135714 0.124706 0.343149 0.133374
H65   H     H_    0.738672 0.369968 0.624719 0.111640
H66   H     H_    0.017658 0.089463 0.761257 0.177434
H67   H     H_    0.250392 0.587020 0.375962 0.118507
H68   H     H_    0.261326 0.369971 0.375276 0.111640
H69   H     H_    0.749608 0.587018 0.624037 0.118508
H70   H     H_    0.238678 0.869980 0.624723 0.111641
H71   H     H_    0.750390 0.087006 0.375969 0.118508
H72   H     H_    0.761323 0.869979 0.375277 0.111640
H73   H     H_    0.249609 0.087016 0.624040 0.118507
H74   H     H_    0.813830 0.305848 0.709854 0.155164
H75   H     H_    0.167538 0.642153 0.294491 0.135448
H76   H     H_    0.186170 0.305848 0.290143 0.155169
H77   H     H_    0.994812 0.881788 0.276279 0.192578
H78   H     H_    0.832463 0.642149 0.705507 0.135449
H79   H     H_    0.313833 0.805857 0.709858 0.155164
H80   H     H_    0.667528 0.142125 0.294507 0.135451
H81   H     H_    0.686167 0.805856 0.290143 0.155162
H82   H     H_    0.332465 0.142145 0.705508 0.135448
H83   H     H_    0.356744 0.710477 0.726729 0.163799
H84   H     H_    0.619096 0.232009 0.284440 0.161888
H85   H     H_    0.643256 0.710477 0.273271 0.163799
H86   H     H_    0.380893 0.232033 0.715574 0.161890
H87   H     H_    0.856744 0.210471 0.726729 0.163798
H88   H     H_    0.982342 0.089463 0.238743 0.177434
H89   H     H_    0.119112 0.732043 0.284423 0.161891
H90   H     H_    0.143260 0.210468 0.273272 0.163798
H91   H     H_    0.880889 0.732040 0.715575 0.161891
H92   H     H_    0.328736 0.690522 0.205667 0.162448
H93   H     H_    0.354223 0.676424 0.323429 0.164468
H94   H     H_    0.286331 0.664911 0.237430 0.170501
H95   H     H_    0.686908 0.399203 0.894998 0.150518
H96   H     H_    0.676124 0.472869 0.843321 0.175948
H97   H     H_    0.732686 0.429580 0.873737 0.197638
H98   H     H_    0.671264 0.690522 0.794333 0.162449
H99   H     H_    0.005188 0.881788 0.723721 0.192578
H100  H     H_    0.645778 0.676423 0.676571 0.164467
H101  H     H_    0.713669 0.664910 0.762571 0.170502
H102  H     H_    0.313093 0.399221 0.105007 0.150534
H103  H     H_    0.323875 0.472878 0.156704 0.175952
H104  H     H_    0.267314 0.429584 0.126274 0.197633
H105  H     H_    0.828736 0.190523 0.205669 0.162447
H106  H     H_    0.854223 0.176423 0.323431 0.164467
H107  H     H_    0.786332 0.164911 0.237432 0.170501
H108  H     H_    0.186908 0.899202 0.894993 0.150520
H109  H     H_    0.176126 0.972867 0.843315 0.175951
H110  H     H_    0.659940 0.298207 0.774273 0.229031
H111  H     H_    0.232686 0.929576 0.873730 0.197634
H112  H     H_    0.171264 0.190523 0.794331 0.162449
H113  H     H_    0.145777 0.176424 0.676570 0.164468
H114  H     H_    0.213668 0.164912 0.762568 0.170500
H115  H     H_    0.813091 0.899202 0.105006 0.150520
H116  H     H_    0.823874 0.972867 0.156685 0.175951
H117  H     H_    0.767314 0.929576 0.126269 0.197634
H118  H     H_    0.827511 0.323968 0.936460 0.144431
H119  H     H_    0.772374 0.336866 0.820724 0.184991
H120  H     H_    0.838441 0.344727 0.852179 0.173215
N1    N     N_R   0.532970 0.559900 0.665210 -0.087423
N2    N     N_R   0.402100 0.440070 0.454470 -0.047758
N3    N     N_R   0.402100 0.559930 0.454470 -0.042771
N4    N     N_R   0.597900 0.440070 0.545530 -0.047758
N5    N     N_R   0.097900 0.059930 0.545530 -0.042772
N6    N     N_R   0.902100 0.940070 0.454470 -0.047758
N7    N     N_R   0.902100 0.059930 0.454470 -0.042771
N8    N     N_R   0.097900 0.940070 0.545530 -0.047758
N9    N     N_R   0.567170 0.559950 0.454460 -0.045055
N10   N     N_R   0.432830 0.440050 0.545540 -0.044505
N11   N     N_R   0.432830 0.559950 0.545540 -0.045054
N12   N     N_R   0.467030 0.440100 0.334790 -0.085981
N13   N     N_R   0.567170 0.440050 0.454460 -0.044504
N14   N     N_R   0.067170 0.059950 0.454460 -0.045054
N15   N     N_R   0.932830 0.940050 0.545540 -0.044506
N16   N     N_R   0.932830 0.059950 0.545540 -0.045055
N17   N     N_R   0.067170 0.940050 0.454460 -0.044506
N18   N     N_R   0.421470 0.559970 0.334770 -0.100176
N19   N     N_R   0.578530 0.440030 0.665230 -0.098694
N20   N     N_R   0.578530 0.559970 0.665230 -0.100175
N21   N     N_R   0.421470 0.440030 0.334770 -0.098698
N22   N     N_R   0.921470 0.059970 0.334770 -0.100175
N23   N     N_R   0.467030 0.559900 0.334790 -0.087422
N24   N     N_R   0.078530 0.940030 0.665230 -0.098696
N25   N     N_R   0.078530 0.059970 0.665230 -0.100175
N26   N     N_R   0.921470 0.940030 0.334770 -0.098696
N27   N     N_R   0.532970 0.440100 0.665210 -0.085983
N28   N     N_R   0.032970 0.059900 0.665210 -0.087423
N29   N     N_R   0.967030 0.940100 0.334790 -0.085983
N30   N     N_R   0.967030 0.059900 0.334790 -0.087423
N31   N     N_R   0.032970 0.940100 0.665210 -0.085983
N32   N     N_R   0.597900 0.559930 0.545530 -0.042771
Ni1   Ni    Ni4+2 0.483030 0.500000 0.604430 0.209056
Ni2   Ni    Ni4+2 0.516970 0.500000 0.395570 0.209057
Ni3   Ni    Ni4+2 0.983030 0.000000 0.604430 0.209054
Ni4   Ni    Ni4+2 0.016970 0.000000 0.395570 0.209054
Ni5   Ni    Ni4+2 0.587400 0.500000 0.604430 0.252989
Ni6   Ni    Ni4+2 0.412600 0.500000 0.395570 0.252980
Ni7   Ni    Ni4+2 0.087400 0.000000 0.604430 0.252985
Ni8   Ni    Ni4+2 0.912600 0.000000 0.395570 0.252986
O1    O     O_3   0.335379 0.600551 0.242916 -0.647477
O2    O     O_3   0.134352 0.609320 0.965803 -0.566180
O3    O     O_3   0.186191 0.257892 0.157800 -0.603044
O4    O     O_3   0.865648 0.609320 0.034198 -0.566181
O5    O     O_3   0.313811 0.757893 0.842200 -0.603040
O6    O     O_3   0.634352 0.109323 0.965809 -0.566182
O7    O     O_3   0.686189 0.757892 0.157800 -0.603039
O8    O     O_3   0.365646 0.109325 0.034187 -0.566182
O9    O     O_3   0.664166 0.399807 0.761322 -0.678851
O10   O     O_3   0.664621 0.600551 0.757085 -0.647470
O11   O     O_3   0.335835 0.399804 0.238682 -0.678852
O12   O     O_3   0.835379 0.100551 0.242917 -0.647471
O13   O     O_3   0.164165 0.899804 0.761317 -0.678845
O14   O     O_3   0.164621 0.100552 0.757083 -0.647472
O15   O     O_3   0.835835 0.899804 0.238683 -0.678845
O16   O     O_3   0.813809 0.257891 0.842198 -0.603041

loop_
_geom_bond_atom_site_label_1
_geom_bond_atom_site_label_2
_ccdc_geom_bond_type
C69   C197  A    
C74   H61   S    
C175  H13   S    
C160  H36   S    
C29   O4    S    
C74   C83   A    
C136  C140  A    
C106  O2    S    
C66   C85   S    
C163  Cl9   S    
C172  H2    S    
C41   C67   A    
C111  H21   S    
C49   C60   A    
C98   H101  S    
C7    C29   A    
N3    Ni6   S    
C195  H45   S    
C122  C139  A    
C147  C164  A    
N10   Ni1   S    
C157  N29   A    
C2    C90   A    
C9    C182  A    
N29   Ni4   S    
C11   C15   A    
C113  C122  A    
C154  H30   S    
C10   C20   A    
C45   N20   A    
C3    C158  A    
C13   C130  A    
N16   Ni3   S    
C35   C115  A    
C117  C126  A    
C96   H93   S    
C47   C53   A    
C23   Cl7   S    
C194  N5    A    
C106  H3    S    
C153  C180  A    
C105  H118  S    
C70   H57   S    
C100  H105  S    
C61   C189  A    
C148  C165  A    
C39   C65   A    
C5    C186  A    
C36   C62   A    
C38   N13   A    
C37   C63   A    
C38   C64   A    
N25   N28   A    
C84   C93   A    
C68   C95   A    
C115  C123  A    
C176  C185  A    
C16   C188  A    
N14   Ni4   S    
C170  Cl15  S    
C132  C137  A    
C34   C61   A    
C148  C174  A    
C177  C186  A    
N11   Ni1   S    
C149  C175  A    
C60   C151  S    
C102  H108  S    
C58   C153  S    
C152  C170  A    
C109  H14   S    
C7    C188  A    
C43   C54   A    
C43   N18   A    
C107  O3    S    
N7    N16   A    
C19   Cl3   S    
C111  H20   S    
C98   H98   S    
C127  C143  A    
C99   H103  S    
N12   N21   A    
C54   C145  S    
C62   C81   S    
C173  C182  A    
C155  H31   S    
C91   H69   S    
C124  N23   A    
C191  N2    A    
C138  H84   S    
N22   Ni8   S    
C121  C140  A    
C140  H86   S    
C65   C194  A    
C141  H87   S    
C168  N30   A    
N26   Ni8   S    
C51   O15   S    
C182  C199  A    
N24   N31   A    
C34   H48   S    
C191  H40   S    
C61   C82   S    
C112  N12   A    
C159  H35   S    
N7    Ni8   S    
C80   C88   A    
C10   C16   A    
C166  Cl10  S    
C44   C55   A    
C77   H64   S    
C12   C185  A    
C159  C167  A    
C128  C190  A    
C37   H50   S    
C42   H56   S    
C86   C95   A    
C14   C21   A    
C4    C159  A    
C105  H120  S    
C197  H47   S    
C100  H107  S    
C168  H88   S    
C76   C85   A    
C33   O8    S    
C78   C87   A    
C72   H59   S    
C24   C131  A    
C162  H38   S    
C48   N22   A    
C98   O10   S    
C112  H33   S    
C60   C179  A    
C101  C118  A    
C109  O5    S    
C111  O7    S    
C154  C198  A    
C146  N28   A    
C75   C84   A    
C151  C177  A    
C63   C192  A    
C12   C22   A    
C2    C129  A    
C22   Cl6   S    
C194  H43   S    
C133  H80   S    
N27   Ni1   S    
C68   C118  A    
C5    C27   A    
C189  N32   A    
C172  C181  A    
C6    C28   A    
N15   Ni3   S    
C103  H113  S    
C25   Cl8   S    
N8    N17   A    
C77   C127  A    
C144  H91   S    
C114  H22   S    
C128  H74   S    
C145  C172  A    
C52   C148  S    
C53   C149  S    
C51   N26   A    
C63   C80   S    
N1    Ni1   S    
C162  C171  A    
C134  C139  A    
C48   O12   S    
C145  C163  A    
C45   C52   A    
C50   C56   A    
C13   C101  A    
C90   C120  A    
C38   H51   S    
C47   N21   A    
N5    N14   A    
C6    C161  A    
C5    C160  A    
C28   O3    S    
C189  H39   S    
C102  H111  S    
N8    Ni7   S    
C19   C28   A    
C87   C190  A    
C113  C117  A    
C30   C198  A    
C16   C23   A    
C116  C125  A    
C44   N19   A    
C137  H83   S    
C118  C127  A    
N2    Ni6   S    
C67   C196  A    
C104  H115  S    
C155  C199  A    
C48   C59   A    
C107  H8    S    
C3    C184  A    
C89   H68   S    
C119  C138  A    
C64   C78   S    
C11   C184  A    
C58   C157  A    
C62   C191  A    
C120  C137  A    
N3    N11   A    
C183  C200  A    
C151  C169  A    
C57   C94   A    
C107  H6    S    
C45   O10   S    
C35   C132  A    
C126  C144  A    
C74   C123  A    
C95   H73   S    
C9    C12   A    
C135  N27   A    
C139  H85   S    
C164  Cl1   S    
C59   C168  A    
C97   H96   S    
C50   O14   S    
C42   N17   A    
C167  Cl13  S    
C114  H23   S    
N31   Ni3   S    
C173  H110  S    
N12   Ni2   S    
C25   C33   A    
C8    C181  A    
C106  H4    S    
C88   H67   S    
C100  H106  S    
C72   C121  A    
C76   C126  A    
C36   H49   S    
C31   C199  A    
C66   C195  A    
C65   C86   S    
C11   C19   A    
C105  O16   S    
N28   Ni3   S    
C106  H5    S    
C108  H9    S    
C3    C33   A    
C73   H60   S    
C102  H109  S    
C157  H77   S    
C196  N7    A    
C180  C188  A    
N4    Ni5   S    
C193  N4    A    
C79   C119  A    
C111  H19   S    
C160  C169  A    
C100  O12   S    
C56   C152  S    
C17   Cl16  S    
C128  C141  A    
C72   C81   A    
C146  H66   S    
C99   O11   S    
N24   Ni7   S    
C81   C89   A    
C35   C92   A    
C97   O9    S    
C133  C138  A    
C40   C66   A    
C10   C183  A    
C109  H12   S    
N18   Ni6   S    
C26   O16   S    
C149  C166  A    
C75   H62   S    
C20   Cl4   S    
C92   H70   S    
C156  H32   S    
C93   H71   S    
C39   H52   S    
C94   H72   S    
C31   O6    S    
C169  Cl12  S    
C6    C187  A    
C101  C121  A    
C131  H78   S    
C75   C125  A    
C4    C185  A    
C104  O15   S    
C174  H24   S    
N19   Ni5   S    
C178  H29   S    
C18   Cl2   S    
C51   C58   A    
C90   C115  A    
C178  C187  A    
C32   O7    S    
C105  H119  S    
C103  H112  S    
C57   C134  A    
C17   C26   A    
N30   Ni4   S    
C73   C82   A    
C158  C166  A    
C57   C117  A    
C59   C150  S    
C54   C124  A    
C76   H63   S    
C158  H34   S    
C174  C183  A    
C50   N25   A    
C4    C26   A    
C147  C173  A    
C192  N3    A    
C129  C142  A    
C108  H11   S    
C21   C30   A    
C132  H79   S    
C46   C116  A    
C23   C32   A    
C32   C200  A    
C46   C133  A    
C109  H15   S    
C156  C165  A    
C108  O4    S    
C150  C167  A    
C123  C142  A    
N13   Ni2   S    
C56   C146  A    
C99   H104  S    
C1    C52   A    
C8    C18   A    
C15   C25   A    
N6    N15   A    
C82   C91   A    
C124  H44   S    
C73   C122  A    
C130  H76   S    
C195  N6    A    
C1    H1    S    
N20   Ni5   S    
C131  C144  A    
C110  H18   S    
C47   O11   S    
C175  C184  A    
N26   N29   A    
C150  C176  A    
C39   N14   A    
C70   C78   A    
C114  O8    S    
C161  H37   S    
C40   H53   S    
C83   C92   A    
C197  N8    A    
N9    N32   A    
C71   C120  A    
C110  O6    S    
N21   Ni6   S    
N32   Ni5   S    
C14   C186  A    
C40   N15   A    
C21   Cl5   S    
N18   N23   A    
C71   H58   S    
C36   N10   A    
N5    Ni7   S    
C49   O13   S    
N4    N13   A    
C79   C190  A    
C2    C88   A    
C177  H26   S    
C34   N9    A    
C24   C113  A    
C79   C116  A    
C97   H97   S    
C171  Cl14  S    
C156  C200  A    
C181  C198  A    
C104  H116  S    
C135  H55   S    
C71   C80   A    
C136  H82   S    
C193  H42   S    
C107  H7    S    
C20   C29   A    
C180  H28   S    
C7    C162  A    
C142  H89   S    
C179  N31   A    
C22   C31   A    
C154  C163  A    
C68   C136  A    
N23   Ni2   S    
C192  H41   S    
C143  H90   S    
C125  C141  A    
C37   N11   A    
C165  Cl11  S    
C15   C187  A    
C42   C69   A    
C134  H81   S    
C99   H102  S    
C87   H65   S    
C69   C83   S    
C85   C94   A    
N22   N30   A    
C55   C147  S    
C70   C119  A    
C64   C193  A    
C153  C171  A    
C49   N24   A    
C103  H114  S    
C41   H54   S    
N17   Ni4   S    
C130  C143  A    
C110  H16   S    
C96   O1    S    
C161  C170  A    
C53   C112  A    
C9    C17   A    
C103  O14   S    
C77   C86   A    
C97   H95   S    
C176  H27   S    
C41   N16   A    
C1    N1    A    
C24   C91   A    
N9    Ni2   S    
C8    C14   A    
C13   C89   A    
C18   C27   A    
N6    Ni8   S    
C110  H17   S    
N1    N20   A    
C155  C164  A    
N19   N27   A    
C43   O1    S    
N2    N10   A    
C196  H46   S    
C30   O5    S    
C104  H117  S    
C96   H92   S    
C46   C93   A    
C108  H10   S    
C55   C135  A    
C27   O2    S    
C152  C178  A    
C102  O13   S    
C179  H99   S    
C67   C84   S    
C114  H25   S    
C129  H75   S    
C96   H94   S    
N25   Ni7   S    
C98   H100  S    
C44   O9    S    
