data_mof_unit_15380.cif
_audit_creation_date              2012-10-26T18:29:29-0400
_audit_creation_method            fapswitch 2.2
_symmetry_space_group_name_H-M    P1
_symmetry_Int_Tables_number       1
_space_group_crystal_system       triclinic
_cell_length_a                    11.672815
_cell_length_b                    12.989465
_cell_length_c                    11.930716
_cell_angle_alpha                 99.818518
_cell_angle_beta                  94.149792
_cell_angle_gamma                 95.58992
_cell_volume                      1766.68878608

loop_
_atom_site_label
_atom_site_type_symbol
_atom_type_description
_atom_site_fract_x
_atom_site_fract_y
_atom_site_fract_z
_atom_type_partial_charge
C1    C     C_R   0.499057 0.299561 0.478476 0.567498
C2    C     C_R   0.448563 0.477409 0.968289 -0.083212
C3    C     C_R   0.284447 0.500267 0.499640 0.572455
C4    C     C_R   0.715553 0.499733 0.500360 0.572456
C5    C     C_1   0.162562 0.500174 0.499159 0.074333
C6    C     C_1   0.837438 0.499826 0.500841 0.074333
C7    C     C_1   0.059941 0.500059 0.499584 0.038623
C8    C     C_1   0.940059 0.499941 0.500416 0.038623
C9    C     C_R   0.501507 0.814166 0.533890 -0.040503
C10   C     C_R   0.498493 0.185834 0.466110 -0.040503
C11   C     C_R   0.495520 0.014194 0.346238 0.252547
C12   C     C_R   0.500942 0.700439 0.521524 0.567498
C13   C     C_R   0.504480 0.985806 0.653762 0.252547
C14   C     C_R   0.495440 0.123279 0.357808 -0.100080
C15   C     C_R   0.504560 0.876721 0.642192 -0.100081
C16   C     C_R   0.501359 0.139798 0.563809 -0.079778
C17   C     C_R   0.498641 0.860202 0.436191 -0.079779
C18   C     C_R   0.501453 0.031601 0.554842 0.038919
C19   C     C_R   0.498547 0.968399 0.445157 0.038919
C20   C     C_R   0.360346 0.441384 0.029675 -0.064529
C21   C     C_R   0.639654 0.558616 0.970325 -0.064528
C22   C     C_R   0.379250 0.431616 0.144045 0.343034
C23   C     C_R   0.620750 0.568384 0.855955 0.343033
C24   C     C_R   0.563022 0.533404 0.154691 0.348941
C25   C     C_R   0.436978 0.466596 0.845309 0.348941
C26   C     C_R   0.551437 0.522591 0.031711 -0.083212
Cu1   Cu    Cu3+1 0.508350 0.507730 0.615930 1.148965
Cu2   Cu    Cu3+1 0.491650 0.492270 0.384070 1.148965
H1    H     H_    0.496511 0.811403 0.352648 0.228476
H2    H     H_    0.766945 0.716071 0.385116 0.364711
H3    H     H_    0.869009 0.767675 0.896798 0.383276
H4    H     H_    0.130985 0.232332 0.103196 0.383278
H5    H     H_    0.503489 0.188597 0.647351 0.228476
H6    H     H_    0.506725 0.840902 0.717828 0.159145
H7    H     H_    0.493275 0.159098 0.282172 0.159145
H8    H     H_    0.274008 0.418312 0.989288 0.241280
H9    H     H_    0.725991 0.581688 0.010712 0.241282
H10   H     H_    0.490914 0.996130 0.180305 0.344883
H11   H     H_    0.509086 0.003870 0.819695 0.344883
H12   H     H_    0.233053 0.283932 0.614882 0.364710
N1    N     N_R   0.520920 0.519350 0.790130 -0.275622
N2    N     N_R   0.479080 0.480650 0.209870 -0.275622
O1    O     O_R   0.505930 0.354460 0.582000 -0.469381
O2    O     O_3   0.507208 0.048579 0.760138 -0.664419
O3    O     O_2   0.299351 0.285183 0.833429 -0.252055
O4    O     O_2   0.208635 0.435951 0.786590 -0.285383
O5    O     O_3   0.310694 0.323787 0.634931 -0.492476
O6    O     O_2   0.791365 0.564050 0.213410 -0.285381
O7    O     O_2   0.700648 0.714816 0.166570 -0.252057
O8    O     O_3   0.689306 0.676213 0.365069 -0.492477
O9    O     O_2   0.829146 0.574565 0.775346 -0.277527
O10   O     O_2   0.705346 0.701001 0.714918 -0.263974
O11   O     O_3   0.796284 0.736853 0.921826 -0.488954
O12   O     O_R   0.494070 0.645540 0.418000 -0.469381
O13   O     O_2   0.294654 0.298999 0.285082 -0.263968
O14   O     O_2   0.170854 0.425435 0.224654 -0.277531
O15   O     O_3   0.203716 0.263147 0.078174 -0.488957
O16   O     O_R   0.491820 0.341410 0.386200 -0.478185
O17   O     O_R   0.508180 0.658590 0.613800 -0.478185
O18   O     O_R   0.344250 0.506540 0.597900 -0.448826
O19   O     O_R   0.655750 0.493460 0.402100 -0.448826
O20   O     O_R   0.330140 0.493480 0.402100 -0.445368
O21   O     O_R   0.669860 0.506520 0.597900 -0.445368
O22   O     O_3   0.492792 0.951421 0.239862 -0.664418
S1    S     S_3+6 0.313406 0.377696 0.773023 0.049954
S2    S     S_3+6 0.686594 0.622304 0.226977 0.049954
S3    S     S_3+6 0.738052 0.644875 0.810083 0.053232
S4    S     S_3+6 0.261948 0.355125 0.189917 0.053232

loop_
_geom_bond_atom_site_label_1
_geom_bond_atom_site_label_2
_ccdc_geom_bond_type
H12   O5    S    
C10   C16   A    
C21   C26   A    
H11   O2    S    
Cu2   O16   S    
C16   H5    S    
C24   N2    A    
Cu1   N1    S    
C15   H6    S    
C23   N1    A    
C24   S2    S    
C3    C5    S    
C11   C19   A    
Cu2   O19   S    
C13   C15   A    
O13   S4    D    
C9    C15   A    
C21   H9    S    
C7    C8    S    
C2    C26   A    
O9    S3    D    
C1    O16   A    
C3    O18   A    
O8    S2    S    
C4    O21   A    
C22   S4    S    
C22   N2    A    
O10   S3    D    
Cu1   O21   S    
H4    O15   S    
C13   C18   A    
C4    C6    S    
C17   C19   A    
C20   C22   A    
C11   O22   S    
C2    C25   A    
H10   O22   S    
Cu1   O18   S    
C21   C23   A    
O5    S1    S    
O3    S1    D    
C17   H1    S    
O11   S3    S    
C9    C12   S    
C12   O12   A    
O7    S2    D    
O15   S4    S    
C2    C20   A    
C20   H8    S    
Cu1   O1    S    
C14   H7    S    
C25   S1    S    
O4    S1    D    
C16   C18   A    
C18   C19   A    
C10   C14   A    
C3    O20   A    
C23   S3    S    
C11   C14   A    
C5    C7    T    
O6    S2    D    
Cu2   O12   S    
C25   N1    A    
C6    C8    T    
Cu1   O17   S    
H2    O8    S    
O14   S4    D    
C12   O17   A    
C4    O19   A    
C1    O1    A    
C13   O2    S    
H3    O11   S    
C1    C10   S    
C24   C26   A    
C9    C17   A    
Cu1   Cu2   S    
Cu2   N2    S    
Cu2   O20   S    
