data_mof_unit_6932.cif
_audit_creation_date              2012-12-11T14:27:40-0500
_audit_creation_method            fapswitch 2.2
_symmetry_space_group_name_H-M    P1
_symmetry_Int_Tables_number       1
_space_group_crystal_system       triclinic
_cell_length_a                    6.927168
_cell_length_b                    14.739686
_cell_length_c                    16.143587
_cell_angle_alpha                 91.027868
_cell_angle_beta                  89.918825
_cell_angle_gamma                 89.986914
_cell_volume                      1648.06240375

loop_
_atom_site_label
_atom_site_type_symbol
_atom_type_description
_atom_site_fract_x
_atom_site_fract_y
_atom_site_fract_z
_atom_type_partial_charge
O1    O     O_R   0.494510 0.415970 0.413200 -0.544136
O2    O     O_R   0.823800 0.407430 0.586200 -0.520594
O3    O     O_R   0.994130 0.584030 0.586800 -0.534848
C1    C     C_R   0.654580 0.384134 0.612776 0.669604
O4    O     O_R   0.824220 0.405090 0.413820 -0.554689
O5    O     O_R   0.994560 0.581670 0.413190 -0.549902
C2    C     C_R   0.653860 0.378163 0.389197 0.589320
O6    O     O_R   0.494090 0.418330 0.586810 -0.521043
O7    O     O_3   0.660810 0.557940 0.500000 -0.375905
V1    V     V_3+5 0.935650 0.489250 0.500000 1.435451
O8    O     O_R   0.324270 0.592570 0.413800 -0.546824
C3    C     C_R   0.155660 0.617236 0.387793 0.593764
O9    O     O_R   0.323850 0.594910 0.586180 -0.544613
C4    C     C_R   0.154945 0.616962 0.614870 0.715859
V2    V     V_3+5 0.435660 0.510750 0.500000 1.419536
O10   O     O_3   0.160630 0.442060 0.500000 -0.360888
C5    C     C_3   0.060744 0.665818 0.771412 -0.214355
C6    C     C_3   0.233643 0.717243 0.809578 0.524331
H1    H     H_    0.002955 0.599557 0.791715 0.103272
C7    C     C_3   0.120765 0.806555 0.808324 -0.067657
C8    C     C_3   0.946698 0.756458 0.769125 -0.179545
C9    C     C_3   0.029513 0.775320 0.681689 -0.113713
C10   C     C_3   0.203344 0.826140 0.721612 -0.199525
C11   C     C_3   0.319423 0.736074 0.723503 -0.187255
C12   C     C_3   0.144442 0.685819 0.684718 -0.067298
C13   C     C_2   0.000977 0.698232 0.272738 -0.185056
C14   C     C_2   0.147780 0.693622 0.327730 0.350490
C15   C     C_2   0.981407 0.772720 0.211757 -0.185670
C16   C     C_2   0.129676 0.800485 0.163801 0.361079
H2    H     H_    0.838549 0.801303 0.203000 0.102851
C17   C     C_2   0.767664 0.202367 0.775387 -0.308213
C18   C     C_2   0.619319 0.190738 0.828293 0.339862
H3    H     H_    0.886368 0.154164 0.774568 0.114585
C19   C     C_2   0.786458 0.282990 0.721061 0.381644
C20   C     C_2   0.639025 0.307384 0.670570 0.259017
C21   C     C_2   0.770790 0.205302 0.214077 -0.154698
C22   C     C_2   0.616725 0.193935 0.163641 0.344654
H4    H     H_    0.890453 0.157741 0.211768 0.072744
C23   C     C_2   0.781822 0.282374 0.274893 -0.158755
C24   C     C_2   0.639013 0.298559 0.330252 0.352505
H5    H     H_    0.908474 0.325691 0.273457 0.060347
O11   O     O_R   0.771000 0.074870 0.906030 -0.557267
O12   O     O_R   0.440710 0.088040 0.078970 -0.545029
O13   O     O_R   0.270540 0.911420 0.079570 -0.517244
C25   C     C_R   0.609240 0.114451 0.104318 0.602909
O14   O     O_R   0.441280 0.085700 0.906600 -0.527497
O15   O     O_R   0.271110 0.909060 0.905960 -0.530923
C26   C     C_R   0.610562 0.110458 0.881736 0.633481
O16   O     O_R   0.770430 0.077230 0.079640 -0.550916
O17   O     O_3   0.604340 0.935220 0.992820 -0.354878
V3    V     V_3+5 0.329430 0.003850 0.992770 1.454619
O18   O     O_R   0.941400 0.898110 0.906530 -0.543622
C27   C     C_R   0.110385 0.875696 0.878123 0.708232
O19   O     O_R   0.940830 0.900450 0.078910 -0.554822
C28   C     C_R   0.110502 0.876533 0.105077 0.627716
V4    V     V_3+5 0.829450 0.982250 0.992700 1.417780
O20   O     O_3   0.104410 0.051000 0.992740 -0.378287
O21   O     O_3   0.338475 0.690724 0.879973 -0.569827
C29   C     C_3   0.432732 0.607748 0.862936 -0.308398
H6    H     H_    0.542108 0.614921 0.812995 0.141079
H7    H     H_    0.328127 0.553031 0.846719 0.130353
H8    H     H_    0.510218 0.586811 0.919564 0.161368
O22   O     O_3   0.307885 0.758343 0.170033 -0.536292
C30   C     C_3   0.332702 0.699051 0.101353 -0.244619
H9    H     H_    0.343841 0.737106 0.042724 0.180386
H10   H     H_    0.214179 0.648130 0.097193 0.126247
H11   H     H_    0.469976 0.661427 0.109240 0.152540
O23   O     O_3   0.475003 0.255714 0.834799 -0.524770
C31   C     C_3   0.498915 0.304808 0.909903 -0.275131
H12   H     H_    0.645336 0.335655 0.914382 0.119176
H13   H     H_    0.470954 0.261402 0.964221 0.141493
H14   H     H_    0.392544 0.361052 0.912057 0.144150
O24   O     O_3   0.965197 0.324731 0.712530 -0.548414
C32   C     C_3   0.039125 0.349673 0.791001 -0.153203
H15   H     H_    0.083660 0.289095 0.826248 0.175844
H16   H     H_    0.933533 0.391239 0.827328 0.074375
H17   H     H_    0.169564 0.392017 0.781853 0.173368
O25   O     O_3   0.465241 0.260764 0.672351 -0.518158
C33   C     C_3   0.465885 0.195007 0.607855 -0.191164
H18   H     H_    0.579298 0.142921 0.618083 0.108883
H19   H     H_    0.485942 0.226314 0.546253 0.109857
H20   H     H_    0.324172 0.159972 0.607291 0.166973
O26   O     O_3   0.487015 0.266536 0.159212 -0.556816
C34   C     C_3   0.292738 0.238885 0.152616 -0.190720
H21   H     H_    0.260128 0.178464 0.190618 0.143682
H22   H     H_    0.252901 0.227440 0.086683 0.137905
H23   H     H_    0.199944 0.295054 0.175965 0.130533
O27   O     O_3   0.499110 0.230537 0.338114 -0.554838
C35   C     C_3   0.314636 0.263465 0.359973 -0.178825
H24   H     H_    0.273644 0.324102 0.323887 0.138002
H25   H     H_    0.305116 0.276742 0.427709 0.145549
H26   H     H_    0.207060 0.209884 0.345165 0.132330
H27   H     H_    0.793539 0.765466 0.787889 0.137299
H28   H     H_    0.944743 0.798913 0.627892 0.111305
H29   H     H_    0.260565 0.892561 0.701493 0.119356
H30   H     H_    0.472610 0.727535 0.704634 0.111042
H31   H     H_    0.888708 0.646799 0.272568 0.075830
O28   O     O_3   0.267034 0.769577 0.336752 -0.541964
C36   C     C_3   0.464259 0.746229 0.341798 -0.093567
H32   H     H_    0.502756 0.686086 0.302314 0.128283
H33   H     H_    0.506187 0.736069 0.407338 0.120241
H34   H     H_    0.550764 0.804042 0.319083 0.149268

loop_
_geom_bond_atom_site_label_1
_geom_bond_atom_site_label_2
_ccdc_geom_bond_type
C16   O22   S    
C14   O28   S    
C18   C26   S    
O24   C32   S    
C19   O24   S    
C34   H23   S    
C1    O6    A    
C23   H5    S    
C13   C14   D    
C32   H16   S    
C6    C11   S    
C15   C16   D    
C34   H22   S    
C11   H30   S    
O5    C3    A    
V2    O10   S    
V4    O20   S    
C19   C20   D    
C31   H13   S    
O11   V4    S    
O8    V2    S    
C6    O21   S    
C17   C18   D    
O23   C31   S    
C32   H17   S    
C10   C11   S    
C17   H3    S    
V3    O20   S    
C35   H25   S    
O7    V1    S    
C18   O23   S    
C1    C20   S    
C29   H6    S    
O9    C4    A    
C9    H28   S    
O17   V3    S    
O14   C26   A    
O19   V4    S    
C29   H7    S    
C32   H15   S    
C3    C14   S    
C30   H11   S    
C11   C12   S    
C23   C24   D    
O4    C2    A    
O25   C33   S    
O15   V3    S    
C16   C28   S    
O21   C29   S    
O14   V3    S    
C9    C12   S    
C5    C8    S    
O22   C30   S    
C30   H10   S    
C31   H14   S    
O2    C1    A    
O26   C34   S    
C7    C10   S    
C25   O16   A    
C2    C24   S    
C7    C8    S    
C5    C6    S    
C17   C19   S    
O11   C26   A    
C34   H21   S    
C35   H26   S    
O12   C25   A    
O3    C4    A    
O1    V2    S    
O13   V3    S    
C36   H33   S    
O6    V2    S    
O9    V2    S    
C22   C25   S    
O2    V1    S    
O18   C27   A    
C33   H19   S    
O19   C28   A    
C21   C22   D    
C29   H8    S    
O1    C2    A    
C21   C23   S    
C7    C27   S    
O5    V1    S    
C33   H20   S    
O8    C3    A    
O16   V4    S    
C20   O25   S    
C13   C15   S    
C36   H32   S    
O15   C27   A    
C5    C12   S    
C30   H9    S    
C24   O27   S    
C15   H2    S    
O7    V2    S    
O4    V1    S    
O3    V1    S    
V1    O10   S    
O13   C28   A    
O12   V3    S    
C8    H27   S    
C21   H4    S    
C5    H1    S    
C10   H29   S    
C6    C7    S    
C4    C12   S    
C31   H12   S    
O17   V4    S    
C13   H31   S    
C33   H18   S    
C36   H34   S    
O27   C35   S    
O28   C36   S    
C9    C10   S    
C22   O26   S    
C35   H24   S    
C8    C9    S    
O18   V4    S    
