data_mof_unit_38998.cif
_audit_creation_date              2012-10-26T20:03:03-0400
_audit_creation_method            fapswitch 2.2
_symmetry_space_group_name_H-M    P1
_symmetry_Int_Tables_number       1
_space_group_crystal_system       triclinic
_cell_length_a                    10.72628
_cell_length_b                    12.349358
_cell_length_c                    13.2418
_cell_angle_alpha                 116.639174
_cell_angle_beta                  76.672408
_cell_angle_gamma                 101.610425
_cell_volume                      1515.92857837

loop_
_atom_site_label
_atom_site_type_symbol
_atom_type_description
_atom_site_fract_x
_atom_site_fract_y
_atom_site_fract_z
_atom_type_partial_charge
C1    C     C_R   0.509845 0.854949 0.286855 0.541111
C2    C     C_R   0.494601 0.567247 0.010132 -0.021218
C3    C     C_R   0.460254 0.648592 0.126234 0.001958
C4    C     C_R   0.740244 0.998100 0.497201 0.530569
C5    C     C_R   0.462684 0.439622 0.977553 0.032818
C6    C     C_R   0.390368 0.396552 0.059212 0.053500
C7    C     C_R   0.342834 0.478983 0.168259 -0.136847
C8    C     C_R   0.373805 0.603115 0.200138 -0.105169
C9    C     C_R   0.501041 0.353047 0.866416 -0.140684
C10   C     C_R   0.401845 0.187479 0.918660 -0.116802
C11   C     C_R   0.511967 0.773249 0.164343 -0.046133
C12   C     C_3   0.122536 0.996143 0.494312 0.061279
C13   C     C_R   0.708245 0.345855 0.326395 -0.149587
C14   C     C_R   0.324763 0.753351 0.649270 0.406867
C15   C     C_R   0.295407 0.654840 0.678272 -0.116154
C16   C     C_R   0.484396 0.145144 0.713447 0.563256
C17   C     C_R   0.362797 0.556142 0.622162 -0.201621
C18   C     C_R   0.463424 0.550838 0.532806 -0.012189
C19   C     C_R   0.495750 0.653261 0.503495 0.127946
C20   C     C_R   0.533344 0.446792 0.473054 0.006265
C21   C     C_R   0.637414 0.446406 0.385504 0.040375
C22   C     C_R   0.669964 0.546268 0.357971 -0.168690
C23   C     C_3   0.068652 0.108162 0.599258 -0.283167
C24   C     C_R   0.600831 0.647154 0.415467 -0.102522
C25   C     C_R   0.503851 0.341955 0.496668 0.037767
C26   C     C_R   0.675283 0.246438 0.354428 0.037412
C27   C     C_R   0.260445 0.998000 0.497053 0.594489
C28   C     C_3   0.961154 0.004040 0.384960 -0.190357
C29   C     C_3   0.105947 0.001580 0.382771 0.153081
C30   C     C_3   0.924239 0.106905 0.600895 -0.258335
C31   C     C_3   0.900829 0.877191 0.497240 -0.240098
C32   C     C_3   0.878582 0.996530 0.495051 0.016104
C33   C     C_3   0.583086 0.857643 0.876859 -0.014707
C34   C     C_3   0.042838 0.878684 0.500381 -0.205010
C35   C     C_3   0.648475 0.891098 0.778411 -0.348582
C36   C     C_3   0.210223 0.927283 0.193125 -0.021658
C37   C     C_3   0.220479 0.810610 0.083331 -0.351990
C38   C     C_R   0.363467 0.271119 0.029950 -0.130155
C39   C     C_R   0.465361 0.228425 0.835296 -0.010059
C40   C     C_R   0.576655 0.818497 0.083841 -0.135246
C41   C     C_R   0.594571 0.741649 0.967264 0.256785
C42   C     C_R   0.558818 0.616878 0.931402 -0.099164
Cu1   Cu    Cu3+1 0.529690 0.098270 0.475420 0.920290
Cu2   Cu    Cu3+1 0.470310 0.901730 0.524580 0.983379
H1    H     H_    0.949263 0.089652 0.381339 0.089575
H2    H     H_    0.580343 0.562416 0.840695 0.128147
H3    H     H_    0.926901 0.926934 0.308103 0.142192
H4    H     H_    0.326208 0.662162 0.282664 0.162265
H5    H     H_    0.729864 0.168785 0.308984 0.119483
H6    H     H_    0.750127 0.546598 0.291025 0.110140
H7    H     H_    0.788592 0.344167 0.259066 0.096066
H8    H     H_    0.425231 0.332662 0.560250 0.119637
H9    H     H_    0.333009 0.485906 0.652432 0.101477
H10   H     H_    0.217770 0.653872 0.746966 0.167201
H11   H     H_    0.634119 0.718671 0.388352 0.180073
H12   H     H_    0.049863 0.875232 0.581061 0.200773
H13   H     H_    0.160382 0.088879 0.382383 0.099118
H14   H     H_    0.908135 0.193582 0.601694 0.138410
H15   H     H_    0.122359 0.194052 0.596294 0.114064
H16   H     H_    0.841384 0.866669 0.573697 0.137300
H17   H     H_    0.871777 0.796865 0.420056 0.126047
H18   H     H_    0.081016 0.795772 0.428304 0.163323
H19   H     H_    0.570871 0.943526 0.956195 0.122557
H20   H     H_    0.486468 0.807405 0.857731 0.145176
H21   H     H_    0.654878 0.807483 0.696764 0.165301
H22   H     H_    0.591770 0.953246 0.772703 0.136926
H23   H     H_    0.867332 0.101834 0.680701 0.120554
H24   H     H_    0.746972 0.937893 0.792583 0.148511
H25   H     H_    0.008282 0.849692 0.785488 0.373835
H26   H     H_    0.308830 0.974616 0.206859 0.147355
H27   H     H_    0.153251 0.986463 0.182197 0.129346
H28   H     H_    0.122925 0.769139 0.061317 0.166268
H29   H     H_    0.280120 0.831080 0.012225 0.135259
H30   H     H_    0.265941 0.744219 0.094038 0.162028
H31   H     H_    0.081649 0.107401 0.679906 0.163192
H32   H     H_    0.378258 0.091390 0.897142 0.198543
H33   H     H_    0.280781 0.447431 0.229179 0.107386
H34   H     H_    0.310366 0.237789 0.092561 0.109889
H35   H     H_    0.557814 0.379880 0.801381 0.122179
H36   H     H_    0.616301 0.913311 0.111226 0.131971
N1    N     N_R   0.574690 0.246280 0.438200 -0.239365
N2    N     N_R   0.426100 0.754320 0.561190 -0.269169
O1    O     O_R   0.537340 0.972510 0.318130 -0.513300
O2    O     O_2   0.228799 0.898297 0.861485 -0.382416
O3    O     O_2   0.227451 0.981150 0.727106 -0.289414
O4    O     O_3   0.066437 0.794576 0.721374 -0.564597
O5    O     O_3   0.151476 0.897611 0.285955 -0.577138
O6    O     O_R   0.487200 0.806530 0.359650 -0.533125
O7    O     O_R   0.707380 0.082980 0.479220 -0.506794
O8    O     O_R   0.657240 0.917000 0.520740 -0.542407
O9    O     O_R   0.512800 0.193470 0.640350 -0.514332
O10   O     O_R   0.462660 0.027490 0.681870 -0.456554
O11   O     O_R   0.342760 0.083000 0.479260 -0.524003
O12   O     O_R   0.292620 0.917020 0.520780 -0.448599
O13   O     O_3   0.660802 0.784955 0.887656 -0.551094
S1    S     S_3+6 0.216276 0.865312 0.740075 -0.028368

loop_
_geom_bond_atom_site_label_1
_geom_bond_atom_site_label_2
_ccdc_geom_bond_type
C37   H30   S    
C28   H3    S    
C34   H12   S    
C12   C29   S    
Cu1   O1    S    
C41   C42   A    
C31   H17   S    
C1    C11   S    
C9    C39   A    
C7    C8    A    
C24   H11   S    
C23   H15   S    
C12   C23   S    
Cu1   O7    S    
C28   C29   S    
Cu2   N2    S    
C42   H2    S    
C5    C6    A    
O3    S1    D    
C20   C25   A    
C35   H21   S    
C34   H18   S    
C18   C19   A    
C9    H35   S    
Cu1   O11   S    
C13   H7    S    
O2    S1    D    
C6    C38   A    
C19   N2    A    
C23   C30   S    
C30   H23   S    
Cu2   O10   S    
C36   H27   S    
C7    H33   S    
C1    O6    A    
C21   C22   A    
C25   N1    A    
C10   H32   S    
C33   O13   S    
C14   S1    S    
C36   H26   S    
C4    O8    A    
C36   O5    S    
C28   H1    S    
C12   C27   S    
C15   H10   S    
C28   C32   S    
C3    C11   A    
C3    C8    A    
C26   H5    S    
C38   H34   S    
C35   H22   S    
Cu1   O9    S    
C10   C39   A    
C31   H16   S    
Cu1   Cu2   S    
C8    H4    S    
C5    C9    A    
C31   C32   S    
C33   H19   S    
C40   H36   S    
C17   C18   A    
C31   C34   S    
C13   C21   A    
C4    C32   S    
O4    S1    S    
C40   C41   A    
C29   H13   S    
C16   O10   A    
C26   N1    A    
Cu1   N1    S    
C22   C24   A    
C13   C26   A    
C27   O11   A    
C2    C5    A    
C14   N2    A    
C12   C34   S    
C17   H9    S    
Cu2   O8    S    
C4    O7    A    
C15   C17   A    
C37   H29   S    
C36   C37   S    
C23   H31   S    
C6    C7    A    
C1    O1    A    
C22   H6    S    
C10   C38   A    
C2    C3    A    
C25   H8    S    
C30   C32   S    
C41   O13   S    
C35   H24   S    
C2    C42   A    
C33   H20   S    
C30   H14   S    
C33   C35   S    
C19   C24   A    
C18   C20   A    
C11   C40   A    
C29   O5    S    
Cu2   O12   S    
C16   C39   S    
C20   C21   A    
C16   O9    A    
C37   H28   S    
C14   C15   A    
C27   O12   A    
Cu2   O6    S    
H25   O4    S    
