data_mof_unit_8050.cif
_audit_creation_date              2013-03-05T15:55:17-0500
_audit_creation_method            fapswitch 2.2
_symmetry_space_group_name_H-M    P1
_symmetry_Int_Tables_number       1
_space_group_crystal_system       triclinic
_cell_length_a                    6.935031
_cell_length_b                    16.788943
_cell_length_c                    17.061832
_cell_angle_alpha                 100.304919
_cell_angle_beta                  89.117571
_cell_angle_gamma                 90.873039
_cell_volume                      1954.10786124

loop_
_atom_site_label
_atom_site_type_symbol
_atom_site_description
_atom_site_fract_x
_atom_site_fract_y
_atom_site_fract_z
_atom_type_partial_charge
O1    O     O_R   0.494370 0.415690 0.413450 -0.598819
O2    O     O_R   0.819420 0.429360 0.578420 -0.589887
O3    O     O_R   0.994280 0.584310 0.586550 -0.599291
C1    C     C_R   0.650512 0.414487 0.605740 0.928543
O4    O     O_R   0.823790 0.406230 0.413570 -0.598820
O5    O     O_R   0.998670 0.561000 0.420530 -0.591600
C2    C     C_R   0.655007 0.383296 0.384694 0.916692
O6    O     O_R   0.489970 0.439000 0.579470 -0.591153
O7    O     O_3   0.662300 0.550810 0.502470 -0.272964
V1    V     V_3+5 0.935380 0.490570 0.499540 1.153801
O8    O     O_R   0.328650 0.570640 0.421580 -0.598188
C3    C     C_R   0.163119 0.586287 0.394643 0.942335
O9    O     O_R   0.324290 0.593770 0.586430 -0.597372
C4    C     C_R   0.155057 0.616965 0.615051 0.926293
V2    V     V_3+5 0.435930 0.509430 0.500460 1.152890
O10   O     O_3   0.159140 0.449190 0.497530 -0.272088
C5    C     C_R   0.312221 0.722540 0.719011 -0.141535
H1    H     H_    0.453205 0.702270 0.696391 0.121789
C6    C     C_R   0.301003 0.786253 0.784199 -0.059346
H2    H     H_    0.433936 0.813151 0.809672 0.137517
C7    C     C_R   0.121109 0.814779 0.815973 -0.130972
C8    C     C_R   0.952733 0.777721 0.780727 -0.119916
H3    H     H_    0.811751 0.798021 0.803328 0.127537
C9    C     C_R   0.963945 0.713913 0.715618 -0.131182
H4    H     H_    0.831017 0.686891 0.690250 0.124287
C10   C     C_R   0.143855 0.685434 0.683803 -0.132047
C11   C     C_R   0.171315 0.639173 0.333122 -0.136362
C12   C     C_R   0.093468 0.860308 0.166451 -0.128263
C13   C     C_R   0.897753 0.801683 0.263089 -0.227179
C14   C     C_R   0.921594 0.856879 0.211278 -0.146170
C15   C     C_R   0.243743 0.807839 0.176121 -0.292947
C16   C     C_R   0.219709 0.751352 0.227885 0.221460
C17   C     C_R   0.044928 0.747942 0.271491 0.216235
C18   C     C_R   0.020963 0.691547 0.323337 -0.280306
C19   C     C_R   0.343071 0.642463 0.288186 -0.145292
C20   C     C_R   0.366839 0.697571 0.236270 -0.234098
H5    H     H_    0.888660 0.690349 0.357817 0.143044
H6    H     H_    0.461667 0.602734 0.293947 0.135744
H7    H     H_    0.763138 0.800592 0.296023 0.136012
H8    H     H_    0.501406 0.698608 0.203293 0.128650
H9    H     H_    0.802974 0.896604 0.205548 0.138673
H10   H     H_    0.376077 0.809084 0.141671 0.138143
C21   C     C_R   0.649277 0.365744 0.670347 -0.130665
C22   C     C_R   0.615127 0.135741 0.830502 -0.457481
C23   C     C_R   0.455032 0.170641 0.714538 -0.305404
C24   C     C_R   0.483706 0.116066 0.766607 0.351856
C25   C     C_R   0.720987 0.209765 0.839118 0.455142
C26   C     C_R   0.698061 0.261982 0.783050 0.055786
C27   C     C_R   0.560306 0.243149 0.721839 0.093426
C28   C     C_R   0.534133 0.295755 0.666818 -0.185868
C29   C     C_R   0.786603 0.383683 0.730964 -0.176274
C30   C     C_R   0.809648 0.333128 0.786908 -0.144527
H11   H     H_    0.431640 0.280184 0.618981 0.123011
H12   H     H_    0.879201 0.436721 0.734241 0.121151
H13   H     H_    0.353197 0.155186 0.666460 0.182146
H14   H     H_    0.918513 0.349162 0.831998 0.151206
C31   C     C_R   0.811311 0.275271 0.282910 -0.147146
H15   H     H_    0.951472 0.293124 0.307726 0.124052
C32   C     C_R   0.800109 0.211446 0.217820 -0.154037
H16   H     H_    0.932220 0.182046 0.194628 0.126964
C33   C     C_R   0.621218 0.185831 0.183404 -0.111672
C34   C     C_R   0.453990 0.226181 0.215624 -0.140818
H17   H     H_    0.313896 0.208455 0.190666 0.119984
C35   C     C_R   0.465176 0.289976 0.280741 -0.133888
H18   H     H_    0.333110 0.319512 0.303795 0.122439
C36   C     C_R   0.643920 0.315251 0.315507 -0.119393
O11   O     O_R   0.774880 0.061150 0.920630 -0.558143
O12   O     O_R   0.440980 0.093710 0.086500 -0.604405
O13   O     O_R   0.266190 0.938890 0.079390 -0.596776
C37   C     C_R   0.609860 0.117045 0.114987 0.880923
O14   O     O_R   0.445420 0.070740 0.921670 -0.585991
O15   O     O_R   0.270660 0.915760 0.913380 -0.578337
C38   C     C_R   0.614269 0.085423 0.894203 1.074791
O16   O     O_R   0.770400 0.084270 0.086640 -0.608274
O17   O     O_3   0.602590 0.949210 0.997500 -0.284817
V3    V     V_3+5 0.329470 0.009420 0.000470 1.193838
O18   O     O_R   0.940650 0.906250 0.913470 -0.602013
C39   C     C_R   0.109899 0.883159 0.884798 0.975633
O19   O     O_R   0.936210 0.929220 0.078300 -0.605791
C40   C     C_R   0.101746 0.913444 0.105140 0.920527
V4    V     V_3+5 0.828930 0.990510 0.999490 1.182424
O20   O     O_3   0.105680 0.050790 0.002500 -0.265054
N1    N     N_R   0.379530 0.040118 0.753201 0.246857
O21   O     O_R   0.464128 0.973774 0.762308 -0.422522
O22   O     O_R   0.207823 0.035379 0.722843 -0.390501
O23   O     O_3   0.851889 0.230262 0.900352 -0.652285
C41   C     C_3   0.754601 0.257625 0.973786 0.205162
H19   H     H_    0.819147 0.226567 0.019157 0.133335
H20   H     H_    0.596625 0.243498 0.973422 0.045816
C42   C     C_3   0.784586 0.348943 0.999472 -0.322140
H21   H     H_    0.941094 0.363991 0.997977 0.211136
H22   H     H_    0.709591 0.381054 0.957421 0.193850
C43   C     C_3   0.705211 0.378193 0.083507 -0.991190
H23   H     H_    0.549123 0.363061 0.086783 0.268791
H24   H     H_    0.724082 0.444884 0.099583 0.267334
H25   H     H_    0.783961 0.349588 0.127199 0.273992

loop_
_geom_bond_atom_site_label_1
_geom_bond_atom_site_label_2
_geom_bond_distance
_ccdc_geom_bond_type
C33   C37   1.490047 S    
C41   H19   1.110721 S    
C43   H23   1.110971 S    
C15   H10   1.084147 S    
C18   H5    1.084155 S    
C19   C20   1.397092 A    
C31   C36   1.406327 A    
C1    O6    1.305822 A    
V4    O20   2.153068 S    
C42   H21   1.111595 S    
C15   C16   1.413313 A    
C23   C24   1.403763 A    
C34   H17   1.082782 S    
N1    O21   1.301400 A    
C5    C10   1.406361 A    
C16   C20   1.398443 A    
C6    C7    1.408612 A    
C9    C10   1.408700 A    
O5    C3    1.308735 A    
O14   V3    1.987650 S    
C31   C32   1.400694 A    
V2    O10   2.153073 S    
C13   C17   1.398283 A    
O13   V3    1.986017 S    
O15   C39   1.297314 A    
O8    V2    1.992443 S    
C6    H2    1.082661 S    
C7    C39   1.490140 S    
C37   O16   1.297358 A    
C34   C35   1.400689 A    
C14   H9    1.083335 S    
O11   C38   1.305780 A    
C23   C27   1.397097 A    
O7    V1    2.156216 S    
C22   C25   1.419595 A    
O15   V3    2.002515 S    
C32   H16   1.082754 S    
C43   H24   1.110309 S    
O9    C4    1.302222 A    
C22   C38   1.491008 S    
C22   C24   1.421553 A    
C5    H1    1.082698 S    
C11   C18   1.405014 A    
C32   C33   1.408797 A    
C28   H11   1.084251 S    
C3    C11   1.491133 S    
C29   C30   1.398460 A    
C25   O23   1.387496 S    
C20   H8    1.083799 S    
C19   H6    1.083362 S    
C9    H4    1.082720 S    
V3    O20   1.707300 S    
O4    C2    1.302783 A    
O23   C41   1.418997 S    
O17   V4    1.704660 S    
C11   C19   1.412329 A    
O18   C39   1.302159 A    
C24   N1    1.439718 S    
C35   C36   1.408922 A    
O2    C1    1.291386 A    
O17   V3    2.156170 S    
C13   C14   1.396929 A    
C42   H22   1.111005 S    
C25   C26   1.420532 A    
O18   V4    2.002765 S    
C13   H7    1.083800 S    
C17   C18   1.413119 A    
C4    C10   1.490271 S    
O3    C4    1.297288 A    
O1    V2    2.002496 S    
C26   C27   1.416592 A    
N1    O22   1.301526 A    
O11   V4    1.989315 S    
C43   H25   1.110522 S    
O9    V2    2.002821 S    
C8    C9    1.400639 A    
O12   V3    2.003405 S    
O16   V4    2.004270 S    
O2    V1    1.987552 S    
C42   C43   1.527068 S    
O19   V4    1.992381 S    
O1    C2    1.297573 A    
C12   C15   1.405198 A    
O5    V1    1.986034 S    
O8    C3    1.291003 A    
C21   C28   1.403401 A    
C1    C21   1.485636 S    
O6    V2    1.988775 S    
C29   H12   1.083651 S    
C16   C17   1.418236 A    
C12   C14   1.412310 A    
O7    V2    1.705360 S    
O4    V1    2.003471 S    
O3    V1    2.002688 S    
V1    O10   1.707202 S    
C35   H18   1.082778 S    
C2    C36   1.490691 S    
C21   C29   1.406233 A    
C31   H15   1.082746 S    
C5    C6    1.400541 A    
C33   C34   1.406115 A    
C12   C40   1.491265 S    
O19   C40   1.290975 A    
C26   C30   1.405432 A    
C23   H13   1.084010 S    
O12   C37   1.302623 A    
C27   C28   1.414585 A    
C41   C42   1.529219 S    
O14   C38   1.291201 A    
C41   H20   1.117278 S    
C8    H3    1.082732 S    
O13   C40   1.308809 A    
C7    C8    1.406362 A    
C30   H14   1.082552 S    
