data_mof_unit_10559.cif
_audit_creation_date              2012-12-10T20:00:03-0500
_audit_creation_method            fapswitch 2.2
_symmetry_space_group_name_H-M    P1
_symmetry_Int_Tables_number       1
_space_group_crystal_system       triclinic
_cell_length_a                    14.996924
_cell_length_b                    14.306744
_cell_length_c                    8.906862
_cell_angle_alpha                 89.999318
_cell_angle_beta                  92.323873
_cell_angle_gamma                 89.997518
_cell_volume                      1909.45928931

loop_
_atom_site_label
_atom_site_type_symbol
_atom_type_description
_atom_site_fract_x
_atom_site_fract_y
_atom_site_fract_z
_atom_type_partial_charge
C1    C     C_R   0.327844 0.499812 0.502521 0.874537
C2    C     C_R   0.461750 0.895668 0.379851 -0.212554
C3    C     C_R   0.499539 0.500004 0.218830 0.920125
C4    C     C_R   0.500458 0.500003 0.781170 0.920165
C5    C     C_R   0.499997 0.053117 0.500008 -0.010149
C6    C     C_R   0.499997 0.947139 0.500006 -0.004685
C7    C     C_1   0.499827 0.500007 0.065424 -0.134054
C8    C     C_1   0.500169 0.500006 0.934576 -0.134059
C9    C     C_R   0.086137 0.532836 0.395955 0.500445
C10   C     C_R   0.898864 0.414641 0.402608 0.436918
C11   C     C_R   0.913932 0.532931 0.603473 0.501024
C12   C     C_R   0.672156 0.499808 0.497458 0.874479
C13   C     C_R   0.101087 0.414614 0.596928 0.437333
C14   C     C_R   0.177749 0.547929 0.406058 -0.087669
C15   C     C_R   0.806985 0.431615 0.390688 -0.072475
C16   C     C_R   0.822301 0.547961 0.593613 -0.087734
C17   C     C_R   0.192955 0.431616 0.609053 -0.072624
C18   C     C_R   0.231255 0.496772 0.510598 -0.343369
C19   C     C_R   0.768738 0.496765 0.489218 -0.343299
C20   C     C_R   0.048079 0.467443 0.493483 -0.236211
C21   C     C_R   0.951934 0.467505 0.505913 -0.235629
C22   C     C_2   0.215951 0.619604 0.307849 0.555675
C23   C     C_R   0.433407 0.202980 0.423485 0.513554
C24   C     C_2   0.750969 0.384768 0.270234 0.609725
C25   C     C_2   0.784145 0.619608 0.691930 0.555650
C26   C     C_2   0.248900 0.384795 0.729632 0.609756
C27   C     C_R   0.540245 0.797248 0.617201 0.502523
C28   C     C_R   0.566590 0.202973 0.576522 0.513555
C29   C     C_R   0.459753 0.797255 0.382802 0.502488
C30   C     C_R   0.431609 0.104566 0.426459 -0.207238
C31   C     C_R   0.538244 0.895662 0.620159 -0.212562
C32   C     C_R   0.568385 0.104560 0.573556 -0.207210
H1    H     H_    0.376341 0.068970 0.369313 0.189864
H2    H     H_    0.996652 0.334039 0.340887 0.358225
H3    H     H_    0.025690 0.562932 0.716927 0.357236
H4    H     H_    0.003313 0.333922 0.658319 0.358225
H5    H     H_    0.253322 0.677157 0.357690 0.061134
H6    H     H_    0.688641 0.416264 0.230265 0.014590
H7    H     H_    0.746670 0.677122 0.642198 0.061133
H8    H     H_    0.311206 0.416296 0.769684 0.014609
H9    H     H_    0.567900 0.931233 0.717099 0.188066
H10   H     H_    0.623650 0.068957 0.630708 0.189867
H11   H     H_    0.432092 0.931245 0.282913 0.188064
H12   H     H_    0.387881 0.308329 0.311472 0.380124
H13   H     H_    0.605190 0.693305 0.698779 0.363412
H14   H     H_    0.612125 0.308322 0.688506 0.380144
H15   H     H_    0.394817 0.693315 0.301224 0.363420
H16   H     H_    0.974549 0.562530 0.281855 0.357472
N1    N     N_R   0.500000 0.252470 0.500000 -0.215504
N2    N     N_R   0.500000 0.747530 0.500000 -0.211742
O1    O     O_R   0.369060 0.579480 0.500010 -0.654686
O2    O     O_3   0.584258 0.753755 0.735668 -0.726553
O3    O     O_3   0.633970 0.246579 0.658740 -0.723622
O4    O     O_3   0.415739 0.753768 0.264337 -0.726533
O5    O     O_3   0.035758 0.587326 0.295469 -0.683303
O6    O     O_3   0.935558 0.351261 0.305005 -0.661993
O7    O     O_3   0.964348 0.587475 0.703823 -0.683258
O8    O     O_3   0.064319 0.351265 0.694491 -0.661864
O9    O     O_2   0.203377 0.616129 0.171661 -0.495286
O10   O     O_2   0.772986 0.310544 0.215111 -0.469388
O11   O     O_2   0.796860 0.616153 0.828089 -0.495205
O12   O     O_R   0.630940 0.420520 0.499990 -0.613898
O13   O     O_2   0.226850 0.310587 0.784766 -0.469413
O14   O     O_R   0.630940 0.579480 0.499990 -0.654706
O15   O     O_R   0.369060 0.420520 0.500010 -0.613877
O16   O     O_R   0.500000 0.579460 0.285340 -0.599263
O17   O     O_R   0.500000 0.420540 0.714660 -0.650705
O18   O     O_R   0.500000 0.579460 0.714660 -0.599252
O19   O     O_R   0.500000 0.420540 0.285340 -0.650732
O20   O     O_3   0.366025 0.246593 0.341270 -0.723636
Zn1   Zn    Zn3+2 0.500000 0.606140 0.500000 0.966734
Zn2   Zn    Zn3+2 0.500000 0.393860 0.500000 0.965672

loop_
_geom_bond_atom_site_label_1
_geom_bond_atom_site_label_2
_ccdc_geom_bond_type
O19   Zn2   S    
C1    O15   A    
C9    C14   A    
C15   C19   A    
H2    O6    S    
C9    O5    S    
C13   C17   A    
C4    O17   A    
O15   Zn2   S    
C10   O6    S    
C28   N1    A    
C14   C18   A    
C9    C20   A    
H4    O8    S    
O16   Zn1   S    
C30   H1    S    
C27   N2    A    
C4    C8    S    
C2    H11   S    
H3    O7    S    
C5    C32   A    
C14   C22   S    
C17   C18   A    
H16   O5    S    
O12   Zn2   S    
C7    C8    T    
C22   O9    D    
N2    Zn1   S    
C25   O11   D    
C20   C21   S    
C28   O3    S    
H12   O20   S    
C1    O1    A    
C23   O20   S    
C26   H8    S    
C1    C18   S    
C2    C6    A    
O1    Zn1   S    
O18   Zn1   S    
C17   C26   S    
C12   C19   S    
C15   C24   S    
C3    O19   A    
C11   C21   A    
C6    C31   A    
C3    C7    S    
C29   N2    A    
C2    C29   A    
C10   C21   A    
C16   C19   A    
C5    C6    S    
C12   O14   A    
C23   N1    A    
C3    O16   A    
C29   O4    S    
C27   C31   A    
C24   H6    S    
C23   C30   A    
C28   C32   A    
C12   O12   A    
C27   O2    S    
H14   O3    S    
O17   Zn2   S    
C11   C16   A    
O14   Zn1   S    
C16   C25   S    
C4    O18   A    
C32   H10   S    
C26   O13   D    
C24   O10   D    
C31   H9    S    
H13   O2    S    
H15   O4    S    
C10   C15   A    
C11   O7    S    
C22   H5    S    
C13   C20   A    
C25   H7    S    
C13   O8    S    
C5    C30   A    
N1    Zn2   S    
