data_mof_unit_22495.cif
_audit_creation_date              2012-12-11T16:35:25-0500
_audit_creation_method            fapswitch 2.2
_symmetry_space_group_name_H-M    P1
_symmetry_Int_Tables_number       1
_space_group_crystal_system       triclinic
_cell_length_a                    6.931818
_cell_length_b                    17.636715
_cell_length_c                    19.509577
_cell_angle_alpha                 109.05559
_cell_angle_beta                  90.376802
_cell_angle_gamma                 90.625724
_cell_volume                      2254.16938692

loop_
_atom_site_label
_atom_site_type_symbol
_atom_type_description
_atom_site_fract_x
_atom_site_fract_y
_atom_site_fract_z
_atom_type_partial_charge
O1    O     O_R   0.505700 0.440210 0.561730 -0.540187
O2    O     O_R   0.169350 0.406300 0.412660 -0.538314
O3    O     O_R   0.005650 0.559790 0.438270 -0.542191
C1    C     C_R   0.337945 0.383309 0.384775 0.695739
O4    O     O_R   0.175560 0.430650 0.559600 -0.544408
O5    O     O_R   0.011900 0.584320 0.586250 -0.534184
C2    C     C_R   0.344530 0.414957 0.580716 0.691279
O6    O     O_R   0.499450 0.415680 0.413750 -0.533843
O7    O     O_3   0.341370 0.550390 0.508570 -0.367838
V1    V     V_3+5 0.063940 0.490650 0.498410 1.412072
O8    O     O_R   0.682570 0.593700 0.587340 -0.538195
C3    C     C_R   0.852649 0.616822 0.614822 0.699284
O9    O     O_R   0.676370 0.569350 0.440400 -0.545165
C4    C     C_R   0.845243 0.584287 0.418745 0.684305
V2    V     V_3+5 0.564750 0.509350 0.501590 1.414634
O10   O     O_3   0.837190 0.449610 0.491430 -0.366587
C5    C     C_R   0.039545 0.681845 0.285599 -0.148279
H1    H     H_    0.172929 0.681313 0.256926 0.101947
C6    C     C_R   0.028323 0.636717 0.332612 -0.158791
H2    H     H_    0.154024 0.603720 0.339253 0.118264
C7    C     C_R   0.856603 0.633108 0.369510 -0.053551
C8    C     C_R   0.696478 0.676063 0.358364 -0.172928
H3    H     H_    0.562171 0.674888 0.386081 0.122380
C9    C     C_R   0.708445 0.722116 0.312048 -0.147233
H4    H     H_    0.583409 0.755887 0.306369 0.100729
C10   C     C_R   0.880086 0.725559 0.274756 0.089099
C11   C     C_R   0.730486 0.783033 0.184304 -0.146210
H5    H     H_    0.594557 0.753733 0.187661 0.100870
C12   C     C_R   0.741904 0.828856 0.137859 -0.168400
H6    H     H_    0.613986 0.834333 0.107721 0.120927
C13   C     C_R   0.916541 0.866112 0.129623 -0.046756
C14   C     C_R   0.079342 0.856774 0.169280 -0.167128
H7    H     H_    0.215622 0.885300 0.164743 0.113355
C15   C     C_R   0.067271 0.811956 0.216612 -0.148752
H8    H     H_    0.194573 0.808111 0.247664 0.098461
C16   C     C_R   0.892732 0.774134 0.224710 0.092922
H9    H     H_    0.628155 0.649733 0.930047 0.114063
C17   C     C_R   0.049246 0.898032 0.748968 -0.144916
C18   C     C_R   0.109729 0.907380 0.684200 -0.129861
C19   C     C_R   0.091085 0.844082 0.619499 -0.119504
C20   C     C_R   0.011849 0.770955 0.619066 -0.130092
C21   C     C_R   0.950186 0.759441 0.684057 0.069485
C22   C     C_R   0.969318 0.824299 0.750372 0.068447
C23   C     C_R   0.866643 0.685439 0.683515 -0.186384
C24   C     C_R   0.801060 0.676480 0.749200 0.069404
C25   C     C_R   0.820545 0.741259 0.815521 0.069340
C26   C     C_R   0.904971 0.815095 0.816113 -0.185992
C27   C     C_R   0.718887 0.603118 0.750501 -0.141720
C28   C     C_R   0.656366 0.594049 0.815127 -0.125273
C29   C     C_R   0.675729 0.657221 0.879875 -0.119372
C30   C     C_R   0.757541 0.729942 0.880450 -0.130403
H10   H     H_    0.064633 0.949484 0.797623 0.108908
H11   H     H_    0.170316 0.964236 0.684193 0.120739
H12   H     H_    0.137127 0.851815 0.569248 0.115810
H13   H     H_    0.997766 0.724040 0.567134 0.101721
H14   H     H_    0.702802 0.551835 0.701823 0.103007
H15   H     H_    0.593643 0.537498 0.814978 0.118000
H16   H     H_    0.772019 0.776738 0.932435 0.101145
H17   H     H_    0.583864 0.483399 0.195063 0.119265
C31   C     C_R   0.231752 0.219279 0.372839 -0.141215
C32   C     C_R   0.189219 0.140914 0.370031 -0.118249
C33   C     C_R   0.222404 0.077272 0.307091 -0.122882
C34   C     C_R   0.298572 0.091446 0.246431 -0.135937
C35   C     C_R   0.341525 0.170407 0.247168 0.073716
C36   C     C_R   0.307132 0.235769 0.311863 0.068877
C37   C     C_R   0.420779 0.184404 0.185234 -0.187817
C38   C     C_R   0.466006 0.264116 0.188453 0.067672
C39   C     C_R   0.431538 0.329483 0.253129 0.073230
C40   C     C_R   0.352157 0.315484 0.315033 -0.187540
C41   C     C_R   0.541772 0.280590 0.127541 -0.142176
C42   C     C_R   0.584760 0.358926 0.130386 -0.118882
C43   C     C_R   0.551439 0.422590 0.193306 -0.124777
C44   C     C_R   0.474711 0.408449 0.253893 -0.137018
H18   H     H_    0.205294 0.266479 0.423408 0.103694
H19   H     H_    0.131248 0.129448 0.417126 0.107537
H20   H     H_    0.190341 0.016459 0.305397 0.117910
H21   H     H_    0.325450 0.039653 0.199386 0.100682
H22   H     H_    0.568291 0.233386 0.076991 0.107513
H23   H     H_    0.643193 0.370312 0.083297 0.115092
H24   H     H_    0.447758 0.460289 0.300907 0.102464
C45   C     C_R   0.524581 0.318727 0.717073 -0.181205
H25   H     H_    0.650346 0.323845 0.751639 0.114167
C46   C     C_R   0.517408 0.365640 0.671524 -0.166897
H26   H     H_    0.638758 0.404793 0.671510 0.118948
C47   C     C_R   0.354089 0.363646 0.628039 -0.073459
C48   C     C_R   0.200622 0.311475 0.629433 -0.187880
H27   H     H_    0.074982 0.308412 0.595226 0.122332
C49   C     C_R   0.208900 0.261043 0.672638 0.114350
C50   C     C_R   0.371260 0.266671 0.719276 0.057345
C51   C     C_R   0.243834 0.226414 0.823491 -0.159539
H28   H     H_    0.120832 0.264773 0.826805 0.110797
C52   C     C_R   0.256860 0.182030 0.871204 -0.166593
H29   H     H_    0.142488 0.186536 0.909844 0.122777
C53   C     C_R   0.416963 0.133252 0.869771 -0.051994
C54   C     C_R   0.563881 0.129995 0.819555 -0.160500
H30   H     H_    0.688928 0.092924 0.817100 0.116916
C55   C     C_R   0.547915 0.172609 0.770393 -0.151233
H31   H     H_    0.661120 0.167685 0.731321 0.113433
C56   C     C_R   0.386199 0.220328 0.771000 0.085083
O11   O     O_R   0.273230 0.084330 0.086440 -0.534830
O12   O     O_R   0.596660 0.069390 0.940470 -0.543627
O13   O     O_R   0.760270 0.915710 0.913690 -0.535664
C57   C     C_R   0.427609 0.084535 0.919073 0.681521
O14   O     O_R   0.603330 0.093680 0.087390 -0.537007
O15   O     O_R   0.766990 0.940160 0.061660 -0.541899
C58   C     C_R   0.434818 0.116604 0.115427 0.697318
O16   O     O_R   0.266510 0.059870 0.938470 -0.540842
O17   O     O_3   0.431050 0.949630 0.991510 -0.367946
V3    V     V_3+5 0.708490 0.009340 0.001580 1.412028
O18   O     O_R   0.096270 0.930570 0.059390 -0.544145
C59   C     C_R   0.927454 0.915424 0.080881 0.684828
O19   O     O_R   0.089600 0.906290 0.912460 -0.537435
C60   C     C_R   0.919464 0.883492 0.884872 0.698034
V4    V     V_3+5 0.207670 0.990600 0.998190 1.414199
O20   O     O_3   0.935250 0.050360 0.008480 -0.367197
C61   C     C_3   0.045034 0.200977 0.664999 -0.399336
C62   C     C_3   0.043375 0.136655 0.589744 -0.298408
C63   C     C_3   0.881631 0.075076 0.582882 -0.771597
H32   H     H_    0.900933 0.044381 0.623904 0.228465
H33   H     H_    0.739203 0.104839 0.590600 0.230603
H34   H     H_    0.884181 0.029336 0.528035 0.218680
H35   H     H_    0.022050 0.164836 0.547030 0.188543
H36   H     H_    0.183913 0.105274 0.580509 0.197108
H37   H     H_    0.054371 0.169717 0.705606 0.184556
H38   H     H_    0.906309 0.233549 0.673759 0.172160

loop_
_geom_bond_atom_site_label_1
_geom_bond_atom_site_label_2
_ccdc_geom_bond_type
C41   H22   S    
C20   C21   A    
C54   H30   S    
C1    O6    A    
O19   V4    S    
C55   H31   S    
C18   H11   S    
C47   C48   A    
C32   H19   S    
C12   H6    S    
C50   C56   S    
C5    C10   A    
C4    C7    S    
C6    C7    A    
C9    C10   A    
O5    C3    A    
O14   V3    S    
C48   C49   A    
C11   C12   A    
O12   V3    S    
V2    O10   S    
C28   H15   S    
O17   V3    S    
C26   C60   S    
C15   H8    S    
O17   V4    S    
C63   H32   S    
C20   H13   S    
C55   C56   A    
O18   C59   A    
O8    V2    S    
C13   C14   A    
C39   C40   A    
C41   C42   A    
O1    V2    S    
O7    V1    S    
O18   V4    S    
H17   C43   S    
C45   C50   A    
C37   C38   A    
O15   C59   A    
O12   C57   A    
O9    C4    A    
O19   C60   A    
C33   H20   S    
C53   C54   A    
C21   C23   A    
C37   C58   S    
C42   H23   S    
C1    C40   S    
C45   C46   A    
C29   C30   A    
C17   C18   A    
C38   C39   A    
O11   V4    S    
C9    H4    S    
C18   C19   A    
O4    C2    A    
C48   H27   S    
C39   C44   A    
C24   C25   A    
C25   C30   A    
C45   H25   S    
C31   C32   A    
C63   H34   S    
C14   C15   A    
C49   C61   S    
O2    C1    A    
C62   H35   S    
O16   V4    S    
O5    V1    S    
C33   C34   A    
C51   C52   A    
C46   H26   S    
C52   C53   A    
C5    H1    S    
C30   H16   S    
O3    C4    A    
C10   C16   S    
C19   C20   A    
C46   C47   A    
C31   C36   A    
O6    V2    S    
C19   H12   S    
C61   H38   S    
O9    V2    S    
C8    C9    A    
C21   C22   A    
O2    V1    S    
C51   C56   A    
C23   C24   A    
C34   H21   S    
C24   C27   A    
C27   H14   S    
O15   V3    S    
C25   C26   A    
C27   C28   A    
C61   H37   S    
O1    C2    A    
C43   C44   A    
C53   C57   S    
O8    C3    A    
C54   C55   A    
V4    O20   S    
O14   C58   A    
C11   C16   A    
O11   C58   A    
C38   C41   A    
C35   C36   A    
C6    H2    S    
C62   H36   S    
C17   C22   A    
C12   C13   A    
O3    V1    S    
V1    O10   S    
C62   C63   S    
C14   H7    S    
H9    C29   S    
C51   H28   S    
C2    C47   S    
C36   C40   A    
C31   H18   S    
C52   H29   S    
C5    C6    A    
C44   H24   S    
C61   C62   S    
C15   C16   A    
O7    V2    S    
C32   C33   A    
C63   H33   S    
V3    O20   S    
C34   C35   A    
O4    V1    S    
C17   H10   S    
C49   C50   A    
C3    C23   S    
C28   C29   A    
C11   H5    S    
O13   C60   A    
C13   C59   S    
C8    H3    S    
O13   V3    S    
C57   O16   A    
C42   C43   A    
C7    C8    A    
C22   C26   A    
C35   C37   A    
