data_mof_unit_42747.cif
_audit_creation_date              2012-12-11T15:50:36-0500
_audit_creation_method            fapswitch 2.2
_symmetry_space_group_name_H-M    P1
_symmetry_Int_Tables_number       1
_space_group_crystal_system       triclinic
_cell_length_a                    6.924571
_cell_length_b                    14.516704
_cell_length_c                    16.086884
_cell_angle_alpha                 89.95667
_cell_angle_beta                  90.009014
_cell_angle_gamma                 90.020318
_cell_volume                      1617.08432539

loop_
_atom_site_label
_atom_site_type_symbol
_atom_type_description
_atom_site_fract_x
_atom_site_fract_y
_atom_site_fract_z
_atom_type_partial_charge
O1    O     O_R   0.638140 0.833910 0.163320 -0.549563
O2    O     O_R   0.361860 0.166090 0.836680 -0.549567
O3    O     O_R   0.361860 0.166090 0.663320 -0.545275
O4    O     O_R   0.638140 0.833910 0.336680 -0.545264
O5    O     O_R   0.138140 0.666090 0.336680 -0.548387
O6    O     O_R   0.861860 0.333910 0.663320 -0.548388
O7    O     O_R   0.861860 0.333910 0.836680 -0.522956
O8    O     O_R   0.138140 0.666090 0.163320 -0.522958
O9    O     O_R   0.308390 0.844930 0.336080 -0.542775
O10   O     O_R   0.691610 0.155070 0.663920 -0.542784
O11   O     O_R   0.691610 0.155070 0.836080 -0.516279
O12   O     O_R   0.308390 0.844930 0.163920 -0.516282
O13   O     O_R   0.808390 0.655070 0.163920 -0.556063
O14   O     O_R   0.191610 0.344930 0.836080 -0.556061
O15   O     O_R   0.191610 0.344930 0.663920 -0.541927
O16   O     O_R   0.808390 0.655070 0.336080 -0.541926
C1    C     C_R   0.477309 0.864626 0.366889 0.669878
C2    C     C_R   0.522690 0.135374 0.633113 0.669883
C3    C     C_R   0.522752 0.135031 0.866600 0.718601
C4    C     C_R   0.477245 0.864968 0.133397 0.718598
C5    C     C_R   0.977142 0.635648 0.132905 0.751368
C6    C     C_R   0.022858 0.364352 0.867095 0.751374
C7    C     C_R   0.022737 0.364617 0.633116 0.665702
C8    C     C_R   0.977263 0.635383 0.366884 0.665717
O17   O     O_3   0.471620 0.691320 0.250000 -0.374685
O18   O     O_3   0.528380 0.308680 0.750000 -0.374683
O19   O     O_3   0.971620 0.808680 0.250000 -0.366121
O20   O     O_3   0.028380 0.191320 0.750000 -0.366125
V1    V     V_3+5 0.196770 0.760880 0.250000 1.499047
V2    V     V_3+5 0.803230 0.239120 0.750000 1.499013
V3    V     V_3+5 0.696770 0.739120 0.250000 1.446765
V4    V     V_3+5 0.303230 0.260880 0.750000 1.446735
C9    C     C_R   0.859356 0.493877 0.438134 -0.086569
C10   C     C_R   0.140646 0.506121 0.561864 -0.086580
C11   C     C_R   0.143009 0.504851 0.939090 -0.257893
C12   C     C_R   0.856992 0.495148 0.060910 -0.257889
C13   C     C_R   0.370780 0.010673 0.065835 -0.088293
C14   C     C_R   0.629221 0.989325 0.934163 -0.088315
C15   C     C_R   0.641605 0.994337 0.561492 -0.083725
C16   C     C_R   0.358399 0.005670 0.438505 -0.083662
C17   C     C_R   0.870015 0.424750 0.499415 0.007656
C18   C     C_R   0.129985 0.575248 0.500583 0.007660
C19   C     C_R   0.130974 0.574617 0.999385 0.017885
C20   C     C_R   0.869028 0.425382 0.000615 0.017877
C21   C     C_R   0.382077 0.079481 0.004166 -0.011824
C22   C     C_R   0.617924 0.920520 0.995832 -0.011823
C23   C     C_R   0.631102 0.925246 0.500238 0.008902
C24   C     C_R   0.368906 0.074763 0.499757 0.008890
C25   C     C_R   0.011440 0.431578 0.563058 -0.159935
C26   C     C_R   0.988560 0.568421 0.436942 -0.159940
C27   C     C_R   0.987867 0.569028 0.062564 -0.065548
C28   C     C_R   0.012134 0.430973 0.937436 -0.065551
C29   C     C_R   0.511697 0.068047 0.936619 -0.133673
C30   C     C_R   0.488303 0.931954 0.063378 -0.133684
C31   C     C_R   0.488680 0.931592 0.436943 -0.161013
C32   C     C_R   0.511321 0.068414 0.563055 -0.161002
H1    H     H_    0.753679 0.487807 0.388713 0.159463
H2    H     H_    0.246323 0.512192 0.611285 0.159459
H3    H     H_    0.250791 0.510476 0.890424 0.122992
H4    H     H_    0.749210 0.489524 0.109576 0.122994
H5    H     H_    0.274128 0.019875 0.118177 0.156273
H6    H     H_    0.725880 0.980114 0.881824 0.156275
H7    H     H_    0.748090 0.988559 0.610626 0.161792
H8    H     H_    0.251920 0.011436 0.389372 0.161811
C33   C     C_2   0.739698 0.343673 0.492505 0.395999
H9    H     H_    0.772918 0.279857 0.524423 0.066720
O21   O     O_2   0.594047 0.346717 0.449755 -0.536099
C34   C     C_2   0.260300 0.656326 0.507492 0.395959
H10   H     H_    0.227067 0.720144 0.475582 0.066756
O22   O     O_2   0.405967 0.653278 0.550233 -0.536114
C35   C     C_2   0.264500 0.653867 0.990029 0.383632
H11   H     H_    0.403132 0.644166 0.959747 0.029507
O23   O     O_2   0.217688 0.731374 0.011275 -0.515548
C36   C     C_2   0.735508 0.346130 0.009972 0.383644
H12   H     H_    0.596876 0.355830 0.040255 0.029508
O24   O     O_2   0.782325 0.268624 0.988727 -0.515543
C37   C     C_2   0.265786 0.164843 0.014321 0.438797
H13   H     H_    0.296498 0.225731 0.977623 0.037806
O25   O     O_2   0.135154 0.168794 0.065192 -0.504129
C38   C     C_2   0.734211 0.835158 0.985677 0.438792
H14   H     H_    0.703484 0.774272 0.022375 0.037802
O26   O     O_2   0.864843 0.831204 0.934808 -0.504143
C39   C     C_2   0.762714 0.844661 0.506867 0.398107
H15   H     H_    0.729339 0.780567 0.475504 0.065548
O27   O     O_2   0.909619 0.848439 0.548767 -0.534161
C40   C     C_2   0.237304 0.155355 0.493119 0.398130
H16   H     H_    0.270615 0.219436 0.524517 0.065538
O28   O     O_2   0.090474 0.151599 0.451167 -0.534133

loop_
_geom_bond_atom_site_label_1
_geom_bond_atom_site_label_2
_ccdc_geom_bond_type
O17   V3    S    
O18   V4    S    
O12   V1    S    
O19   V1    S    
C10   C18   A    
C19   C27   A    
O15   V4    S    
C37   H13   S    
O16   V3    S    
O5    C8    A    
O11   C3    A    
C36   O24   D    
O3    C2    A    
O8    V1    S    
O2    V4    S    
C6    C28   S    
C40   O28   D    
C7    C25   S    
O1    V3    S    
O17   V1    S    
C11   H3    S    
C16   C24   A    
C39   H15   S    
O11   V2    S    
C34   H10   S    
O1    C4    A    
C9    H1    S    
C23   C39   S    
C11   C19   A    
C1    C31   S    
C2    C32   S    
C20   C28   A    
O15   C7    A    
C21   C29   A    
O16   C8    A    
O7    V2    S    
C18   C34   S    
C22   C30   A    
C17   C25   A    
O5    V1    S    
C37   O25   D    
C8    C26   S    
C36   H12   S    
O19   V3    S    
O20   V4    S    
C4    C30   S    
C35   O23   D    
C40   H16   S    
C17   C33   S    
C33   O21   D    
C9    C26   A    
C15   C23   A    
O10   V2    S    
C15   C32   A    
C16   C31   A    
O12   C4    A    
O8    C5    A    
O13   C5    A    
C20   C36   S    
C12   C27   A    
C18   C26   A    
C13   C30   A    
O9    C1    A    
O6    V2    S    
O18   V2    S    
C24   C40   S    
C12   C20   A    
O4    C1    A    
C13   C21   A    
C5    C27   S    
C23   C31   A    
C24   C32   A    
C10   C25   A    
C19   C35   S    
C39   O27   D    
O2    C3    A    
O13   V3    S    
O14   V4    S    
C38   H14   S    
C12   H4    S    
C13   H5    S    
O9    V1    S    
O7    C6    A    
C15   H7    S    
C16   H8    S    
C9    C17   A    
O14   C6    A    
O20   V2    S    
C35   H11   S    
C22   C38   S    
C3    C29   S    
C14   C29   A    
O10   C2    A    
O6    C7    A    
C38   O26   D    
O3    V4    S    
C14   C22   A    
O4    V3    S    
C34   O22   D    
C33   H9    S    
C11   C28   A    
C10   H2    S    
C21   C37   S    
C14   H6    S    
