data_mof_unit_19289.cif
_audit_creation_date              2012-12-10T18:13:28-0500
_audit_creation_method            fapswitch 2.2
_symmetry_space_group_name_H-M    P1
_symmetry_Int_Tables_number       1
_space_group_crystal_system       triclinic
_cell_length_a                    12.543686
_cell_length_b                    12.939005
_cell_length_c                    16.962329
_cell_angle_alpha                 90.933764
_cell_angle_beta                  98.267687
_cell_angle_gamma                 99.077683
_cell_volume                      2688.15752866

loop_
_atom_site_label
_atom_site_type_symbol
_atom_type_description
_atom_site_fract_x
_atom_site_fract_y
_atom_site_fract_z
_atom_type_partial_charge
C1    C     C_R   0.561772 0.692469 0.511344 0.874702
C2    C     C_R   0.608501 0.477098 0.229057 0.002593
C3    C     C_R   0.582769 0.559420 0.868041 -0.202193
C4    C     C_R   0.583695 0.537383 0.788134 -0.189466
C5    C     C_R   0.388236 0.538903 0.761408 -0.245431
C6    C     C_R   0.386682 0.560016 0.841750 0.026917
C7    C     C_R   0.484358 0.568310 0.895281 0.119043
C8    C     C_2   0.496897 0.473516 0.014052 -0.259717
C9    C     C_2   0.482234 0.564483 0.980494 0.149827
C10   C     C_R   0.486179 0.525173 0.734691 -0.054065
C11   C     C_R   0.349613 0.066164 0.352423 0.208143
C12   C     C_R   0.512602 0.495348 0.349288 0.861309
C13   C     C_R   0.402529 0.197894 0.461054 -0.101338
C14   C     C_R   0.673360 0.840330 0.598313 0.001319
C15   C     C_R   0.687244 0.945838 0.622288 -0.189542
C16   C     C_R   0.623459 0.012192 0.581046 -0.199988
C17   C     C_R   0.547568 0.974837 0.512879 0.112801
C18   C     C_R   0.554692 0.876677 0.478854 0.020288
C19   C     C_R   0.471053 0.034292 0.473859 0.025706
C20   C     C_R   0.420718 0.004320 0.394301 0.032364
C21   C     C_R   0.448906 0.917776 0.356010 -0.237531
C22   C     C_R   0.516078 0.854943 0.397212 -0.008117
C23   C     C_R   0.438992 0.307798 0.486910 0.895976
C24   C     C_R   0.443542 0.123417 0.510136 0.094436
C25   C     C_R   0.352128 0.169375 0.381760 0.137868
C26   C     C_R   0.603505 0.804493 0.526969 -0.167402
C27   C     C_R   0.903689 0.377882 0.634121 -0.278383
C28   C     C_R   0.206819 0.628727 0.405301 0.101029
C29   C     C_R   0.116169 0.678408 0.404746 -0.275377
C30   C     C_R   0.040643 0.647969 0.455829 0.221381
C31   C     C_R   0.049415 0.556460 0.499689 -0.018840
C32   C     C_R   0.147556 0.513359 0.503657 0.061430
C33   C     C_R   0.963606 0.501486 0.536166 -0.054841
C34   C     C_R   0.487748 0.505896 0.650346 0.860875
C35   C     C_R   0.988378 0.431558 0.597246 0.140537
C36   C     C_R   0.095001 0.408203 0.612758 0.085504
C37   C     C_R   0.158948 0.426503 0.551728 0.017586
C38   C     C_R   0.853288 0.504589 0.508228 -0.009758
C39   C     C_R   0.796380 0.385621 0.604422 0.013545
C40   C     C_R   0.512499 0.481472 0.263313 -0.072011
C41   C     C_R   0.410991 0.470174 0.213581 -0.216007
C42   C     C_R   0.404959 0.459944 0.131911 -0.148734
C43   C     C_R   0.500285 0.461907 0.098742 0.184241
C44   C     C_R   0.601081 0.467188 0.146559 -0.208306
H1    H     H_    0.335492 0.470376 0.237496 0.175775
H2    H     H_    0.423138 0.901177 0.292730 0.175050
H3    H     H_    0.636921 0.093121 0.601723 0.162111
H4    H     H_    0.743501 0.975827 0.675218 0.146942
H5    H     H_    0.730355 0.345034 0.632390 0.128466
H6    H     H_    0.660459 0.529186 0.768469 0.174847
H7    H     H_    0.918689 0.326406 0.682668 0.157086
H8    H     H_    0.828176 0.551491 0.459396 0.165350
H9    H     H_    0.106452 0.743678 0.366420 0.159303
H10   H     H_    0.312668 0.531324 0.720149 0.179059
H11   H     H_    0.674355 0.468856 0.119159 0.137830
H12   H     H_    0.657855 0.564518 0.909532 0.149677
H13   H     H_    0.512758 0.408116 0.978819 0.140562
H14   H     H_    0.326687 0.455372 0.094299 0.146317
N1    N     N_R   0.774070 0.445420 0.541180 -0.104805
N2    N     N_R   0.226730 0.554050 0.459240 -0.138635
O1    O     O_R   0.631480 0.627510 0.519670 -0.603531
O2    O     O_R   0.455770 0.662400 0.493360 -0.594915
O3    O     O_R   0.598240 0.480510 0.398910 -0.608905
O4    O     O_R   0.422540 0.515400 0.372600 -0.618119
O5    O     O_R   0.544230 0.337600 0.506640 -0.610736
O6    O     O_R   0.368520 0.372490 0.480330 -0.608985
O7    O     O_R   0.577460 0.484600 0.627400 -0.622464
O8    O     O_R   0.401760 0.519490 0.601090 -0.615216
Zn1   Zn    Zn3+2 0.617320 0.476700 0.517570 0.954293
Zn2   Zn    Zn3+2 0.382680 0.523300 0.482430 0.956918
C45   C     C_1   0.283656 0.566766 0.868527 0.150280
N3    N     N_1   0.201111 0.572106 0.889966 -0.207877
C46   C     C_3   0.310558 0.250586 0.327426 -0.851767
H15   H     H_    0.377527 0.316213 0.325947 0.221536
H16   H     H_    0.284600 0.222387 0.264600 0.239130
H17   H     H_    0.241114 0.279709 0.348954 0.259147
C47   C     C_3   0.276065 0.024428 0.276045 -0.919367
H18   H     H_    0.251559 0.938171 0.276367 0.238476
H19   H     H_    0.198286 0.056329 0.270165 0.253864
H20   H     H_    0.318226 0.045110 0.223861 0.243080
C48   C     C_3   0.445818 0.137974 0.599252 -0.921369
H21   H     H_    0.368490 0.162886 0.610858 0.243078
H22   H     H_    0.450531 0.063780 0.630442 0.255696
H23   H     H_    0.514419 0.199624 0.625089 0.234395
C49   C     C_1   0.729082 0.770586 0.648747 0.175612
N4    N     N_1   0.773787 0.714699 0.689094 -0.203716
C50   C     C_1   0.561411 0.782018 0.351374 0.176631
N5    N     N_1   0.598872 0.725096 0.314295 -0.218489
C51   C     C_3   0.129155 0.338986 0.679602 -0.921952
H24   H     H_    0.217256 0.333220 0.683740 0.243705
H25   H     H_    0.116166 0.372921 0.737339 0.250745
H26   H     H_    0.081437 0.258827 0.669166 0.246290
C52   C     C_1   0.276624 0.657764 0.346637 0.223772
N6    N     N_1   0.329699 0.681187 0.297396 -0.224483
C53   C     C_3   0.961767 0.721875 0.467498 -0.900215
H27   H     H_    0.896889 0.715948 0.414911 0.245856
H28   H     H_    0.925174 0.707377 0.522873 0.246665
H29   H     H_    0.005776 0.803804 0.473957 0.248100
C54   C     C_1   0.168147 0.329269 0.512772 0.228318
N7    N     N_1   0.170555 0.248811 0.482885 -0.218512
C55   C     C_3   0.465485 0.660184 0.026343 -0.830126
H30   H     H_    0.461173 0.727320 0.986668 0.230224
H31   H     H_    0.387930 0.644173 0.051543 0.244967
H32   H     H_    0.534646 0.682792 0.075326 0.248879
C56   C     C_1   0.716046 0.486750 0.274873 0.196862
N8    N     N_1   0.802998 0.494172 0.310401 -0.223086

loop_
_geom_bond_atom_site_label_1
_geom_bond_atom_site_label_2
_ccdc_geom_bond_type
C36   C51   S    
C2    C44   A    
C50   N5    T    
C52   N6    T    
C41   C42   A    
C53   H27   S    
C18   C26   A    
C8    C43   S    
C43   C44   A    
C1    O2    A    
C42   H14   S    
C48   H21   S    
C53   H29   S    
O6    Zn2   S    
C47   H18   S    
C13   C23   S    
C55   H30   S    
C23   O6    A    
C36   C37   A    
C3    C7    A    
C30   C31   A    
C12   O4    A    
C38   H8    S    
C11   C25   A    
C1    O1    A    
C15   C16   A    
O2    Zn2   S    
C30   C53   S    
C46   H15   S    
C11   C47   S    
C33   C35   A    
O3    Zn1   S    
C27   C39   A    
C8    C9    D    
C31   C33   A    
O4    Zn2   S    
C51   H25   S    
C28   N2    A    
C55   H31   S    
C21   C22   A    
C46   H16   S    
C13   C25   A    
C15   H4    S    
C16   H3    S    
C48   H22   S    
C27   H7    S    
C47   H19   S    
C6    C45   S    
C11   C20   A    
C5    H10   S    
C34   O8    A    
C12   O3    A    
C16   C17   A    
C27   C35   A    
C49   N4    T    
C13   C24   A    
C4    H6    S    
C28   C52   S    
O7    Zn1   S    
C35   C36   A    
C12   C40   S    
C24   C48   S    
C29   C30   A    
C8    H13   S    
C3    H12   S    
C31   C32   A    
N2    Zn2   S    
C39   N1    A    
C17   C18   A    
C10   C34   S    
C32   C37   A    
C14   C26   A    
C51   H26   S    
N1    Zn1   S    
C9    C55   S    
C40   C41   A    
C39   H5    S    
C55   H32   S    
C1    C26   S    
C46   H17   S    
C42   C43   A    
C32   N2    A    
C4    C10   A    
C3    C4    A    
C37   C54   S    
C48   H23   S    
C21   H2    S    
C47   H20   S    
O1    Zn1   S    
C7    C9    S    
C28   C29   A    
C18   C22   A    
C14   C49   S    
C22   C50   S    
C34   O7    A    
C53   H28   S    
C6    C7    A    
C56   N8    T    
C2    C56   S    
C33   C38   A    
C54   N7    T    
C23   O5    A    
C19   C20   A    
C19   C24   A    
C5    C10   A    
C44   H11   S    
C5    C6    A    
C29   H9    S    
O5    Zn1   S    
C17   C19   A    
C25   C46   S    
C38   N1    A    
C2    C40   A    
C45   N3    T    
C20   C21   A    
O8    Zn2   S    
C41   H1    S    
C14   C15   A    
C51   H24   S    
