data_mof_unit_65425.cif
_audit_creation_date              2013-03-05T15:42:02-0500
_audit_creation_method            fapswitch 2.2
_symmetry_space_group_name_H-M    P1
_symmetry_Int_Tables_number       1
_space_group_crystal_system       triclinic
_cell_length_a                    21.680336
_cell_length_b                    21.682331
_cell_length_c                    47.133134
_cell_angle_alpha                 89.999961
_cell_angle_beta                  89.999952
_cell_angle_gamma                 90.086038
_cell_volume                      22156.3290827

loop_
_atom_site_label
_atom_site_type_symbol
_atom_site_description
_atom_site_fract_x
_atom_site_fract_y
_atom_site_fract_z
_atom_type_partial_charge
O1    O     O_R   0.999970 0.909590 0.023670 -0.629449
O2    O     O_R   0.090410 0.999970 0.023670 -0.628845
O3    O     O_R   0.000030 0.090410 0.023670 -0.629449
O4    O     O_R   0.909590 0.000030 0.023670 -0.628845
O5    O     O_R   0.499970 0.409590 0.523670 -0.628441
O6    O     O_R   0.590410 0.499970 0.523670 -0.628179
O7    O     O_R   0.500030 0.590410 0.523670 -0.628440
O8    O     O_R   0.409590 0.500030 0.523670 -0.628179
O9    O     O_R   0.000000 0.909590 0.976330 -0.553907
O10   O     O_R   0.090410 1.000000 0.976330 -0.557099
O11   O     O_R   1.000000 0.090410 0.976330 -0.553907
O12   O     O_R   0.909590 1.000000 0.976330 -0.557101
O13   O     O_R   0.500000 0.409590 0.476330 -0.556117
O14   O     O_R   0.590410 0.500000 0.476330 -0.556324
O15   O     O_R   0.500000 0.590410 0.476330 -0.556118
O16   O     O_R   0.409590 0.500000 0.476330 -0.556324
C1    C     C_R   0.995893 0.880976 0.000017 1.001657
C2    C     C_R   0.119011 0.995993 0.000034 0.999766
C3    C     C_R   0.004107 0.119024 0.000017 1.001658
C4    C     C_R   0.880989 0.004007 0.000034 0.999763
C5    C     C_R   0.496017 0.380973 0.500031 1.002671
C6    C     C_R   0.619013 0.495998 0.500033 1.003312
C7    C     C_R   0.503982 0.619027 0.500031 1.002671
C8    C     C_R   0.380987 0.504002 0.500033 1.003313
Zn1   Zn    Zn3+2 1.000000 1.000000 0.031610 1.035722
Zn2   Zn    Zn3+2 0.500000 0.500000 0.531610 1.041442
Zn3   Zn    Zn3+2 1.000000 1.000000 0.968400 1.193223
Zn4   Zn    Zn3+2 0.500000 0.500000 0.468400 1.188864
C9    C     C_2   0.716312 0.046307 0.980946 0.252887
C10   C     C_2   0.955095 0.716055 0.980419 0.251098
C11   C     C_2   0.283687 0.953691 0.980947 0.252871
C12   C     C_2   0.044905 0.283945 0.980419 0.251099
C13   C     C_2   0.216303 0.546208 0.480915 0.252136
C14   C     C_2   0.454061 0.216160 0.480840 0.252311
C15   C     C_2   0.783697 0.453792 0.480915 0.252139
C16   C     C_2   0.545939 0.783840 0.480840 0.252313
C17   C     C_2   0.684989 0.999088 0.992858 -0.532394
C18   C     C_2   0.001375 0.684967 0.993093 -0.531052
C19   C     C_2   0.315011 0.000911 0.992857 -0.532403
C20   C     C_2   0.998624 0.315033 0.993093 -0.531053
C21   C     C_2   0.184985 0.499058 0.492880 -0.531862
C22   C     C_2   0.501155 0.184972 0.492850 -0.532125
C23   C     C_2   0.815015 0.500942 0.492880 -0.531860
C24   C     C_2   0.498844 0.815028 0.492850 -0.532123
H1    H     H_    0.708640 0.956670 0.998510 0.163736
H2    H     H_    0.043352 0.708751 0.999407 0.164417
H3    H     H_    0.291360 0.043330 0.998509 0.163743
H4    H     H_    0.956648 0.291249 0.999407 0.164417
H5    H     H_    0.208634 0.456663 0.498570 0.164954
H6    H     H_    0.543541 0.208725 0.498582 0.164026
H7    H     H_    0.791366 0.543337 0.498570 0.164952
H8    H     H_    0.456459 0.791275 0.498582 0.164025
C25   C     C_2   0.784180 0.043070 0.979467 0.246499
C26   C     C_2   0.958497 0.783878 0.978911 0.253186
C27   C     C_2   0.215820 0.956929 0.979467 0.246499
C28   C     C_2   0.041503 0.216122 0.978911 0.253188
C29   C     C_2   0.284159 0.542918 0.479414 0.246914
C30   C     C_2   0.457333 0.284015 0.479354 0.247861
C31   C     C_2   0.715841 0.457082 0.479414 0.246915
C32   C     C_2   0.542667 0.715985 0.479353 0.247862
C33   C     C_2   0.815136 0.014603 0.000559 -0.473174
C34   C     C_2   0.985137 0.815089 0.000463 -0.474447
C35   C     C_2   0.184864 0.985397 0.000559 -0.473174
C36   C     C_2   0.014863 0.184911 0.000463 -0.474445
C37   C     C_2   0.315135 0.514623 0.500551 -0.472079
C38   C     C_2   0.485474 0.315080 0.500532 -0.470483
C39   C     C_2   0.684865 0.485377 0.500551 -0.472078
C40   C     C_2   0.514526 0.684920 0.500532 -0.470486
H9    H     H_    0.791234 0.999961 0.019680 0.159947
H10   H     H_    0.998257 0.791323 0.019841 0.159901
H11   H     H_    0.208765 0.000039 0.019680 0.159949
H12   H     H_    0.001743 0.208677 0.019841 0.159900
H13   H     H_    0.291243 0.500144 0.519701 0.160295
H14   H     H_    0.499898 0.291226 0.519689 0.159904
H15   H     H_    0.708757 0.499856 0.519701 0.160294
H16   H     H_    0.500101 0.708773 0.519689 0.159905
O17   O     O_R   0.500030 0.051130 0.958080 -0.565921
O18   O     O_R   0.948870 0.500030 0.958080 -0.565302
O19   O     O_R   0.499970 0.948870 0.958080 -0.565917
O20   O     O_R   0.051130 0.499970 0.958080 -0.565303
O21   O     O_R   0.000030 0.551130 0.458080 -0.565816
O22   O     O_R   0.448870 0.000030 0.458080 -0.565755
O23   O     O_R   0.999970 0.448870 0.458080 -0.565817
O24   O     O_R   0.551130 0.999970 0.458080 -0.565756
C41   C     C_R   0.500000 1.000000 0.944545 0.959816
C42   C     C_R   1.000000 0.500000 0.944512 0.956868
C43   C     C_R   1.000000 0.500000 0.444546 0.960020
C44   C     C_R   0.500000 1.000000 0.444546 0.960269
O25   O     O_R   0.590470 0.051110 0.000000 -0.568620
O26   O     O_R   0.948890 0.590470 0.000000 -0.568942
O27   O     O_R   0.409530 0.948890 0.000000 -0.568621
O28   O     O_R   0.051110 0.409530 0.000000 -0.568942
O29   O     O_R   0.090470 0.551110 0.500000 -0.567657
O30   O     O_R   0.448890 0.090470 0.500000 -0.568292
O31   O     O_R   0.909530 0.448890 0.500000 -0.567657
O32   O     O_R   0.551110 0.909530 0.500000 -0.568292
O33   O     O_R   0.590450 0.948970 0.000000 -0.633474
O34   O     O_R   0.051030 0.590450 0.000000 -0.636402
O35   O     O_R   0.409550 0.051030 0.000000 -0.633463
O36   O     O_R   0.948970 0.409550 0.000000 -0.636401
O37   O     O_R   0.090450 0.448970 0.500000 -0.635409
O38   O     O_R   0.551030 0.090450 0.500000 -0.633779
O39   O     O_R   0.909550 0.551030 0.500000 -0.635413
O40   O     O_R   0.448970 0.909550 0.500000 -0.633781
C45   C     C_R   0.619165 0.000028 0.997956 0.985058
C46   C     C_R   0.000095 0.619163 0.998055 0.987860
C47   C     C_R   0.380835 0.999972 0.997956 0.985056
C48   C     C_R   0.999905 0.380837 0.998055 0.987861
C49   C     C_R   0.119165 0.500023 0.497970 0.980610
C50   C     C_R   0.500055 0.119163 0.497963 0.985238
C51   C     C_R   0.880834 0.499977 0.497970 0.980609
C52   C     C_R   0.499945 0.880837 0.497963 0.985238
Zn5   Zn    Zn3+2 0.500010 0.068250 0.000000 1.086416
Zn6   Zn    Zn3+2 0.931750 0.500010 0.000000 1.080399
Zn7   Zn    Zn3+2 0.499990 0.931750 0.000000 1.086417
Zn8   Zn    Zn3+2 0.068250 0.499990 0.000000 1.080399
Zn9   Zn    Zn3+2 0.000010 0.568250 0.500000 1.089395
Zn10  Zn    Zn3+2 0.431750 0.000010 0.500000 1.086886
Zn11  Zn    Zn3+2 0.999990 0.431750 0.500000 1.089395
Zn12  Zn    Zn3+2 0.568250 0.999990 0.500000 1.086886
O41   O     O_R   0.499980 0.051120 0.041920 -0.619182
O42   O     O_R   0.948880 0.499980 0.041920 -0.619203
O43   O     O_R   0.500020 0.948880 0.041920 -0.619181
O44   O     O_R   0.051120 0.500020 0.041920 -0.619202
O45   O     O_R   0.999980 0.551120 0.541920 -0.610606
O46   O     O_R   0.448880 0.999980 0.541920 -0.619152
O47   O     O_R   0.000020 0.448880 0.541920 -0.610606
O48   O     O_R   0.551120 0.000020 0.541920 -0.619153
C53   C     C_R   0.500000 1.000000 0.055488 0.915202
C54   C     C_R   1.000000 0.500000 0.055489 0.915895
C55   C     C_R   1.000000 0.500000 0.555363 0.904997
C56   C     C_R   0.500000 1.000000 0.555488 0.915035
C57   C     C_R   0.982233 0.447738 0.190371 0.635986
C58   C     C_R   0.552236 0.982299 0.190370 0.636003
C59   C     C_R   0.017766 0.552263 0.190371 0.635985
C60   C     C_R   0.447764 0.017700 0.190370 0.636004
C61   C     C_R   0.481636 0.947943 0.690372 0.636014
C62   C     C_R   0.990773 0.445602 0.690051 0.630207
C63   C     C_R   0.518368 0.052052 0.690372 0.636010
C64   C     C_R   0.009228 0.554398 0.690051 0.630208
N1    N     N_R   0.999999 0.500000 0.176275 -0.323755
N2    N     N_R   0.500000 1.000000 0.176273 -0.323743
N3    N     N_R   0.500001 0.999998 0.676273 -0.323707
N4    N     N_R   0.000000 0.500000 0.675882 -0.324884
C65   C     C_R   0.018689 0.553173 0.220065 -0.025671
C66   C     C_R   0.446856 0.018624 0.220064 -0.025673
C67   C     C_R   0.981309 0.446828 0.220065 -0.025671
C68   C     C_R   0.553144 0.981375 0.220064 -0.025673
C69   C     C_R   0.519283 0.052961 0.720066 -0.025558
C70   C     C_R   0.008105 0.555724 0.719742 -0.027805
C71   C     C_R   0.480723 0.947035 0.720066 -0.025559
C72   C     C_R   0.991895 0.444276 0.719742 -0.027805
C73   C     C_R   0.999999 0.500000 0.234970 -0.006342
C74   C     C_R   0.500000 0.999999 0.234968 -0.006339
C75   C     C_R   0.500003 0.999998 0.734971 -0.006313
C76   C     C_R   0.000000 0.500000 0.734646 -0.008170
C77   C     C_R   0.037920 0.605653 0.235128 -0.122749
C78   C     C_R   0.394407 0.037793 0.235127 -0.122756
C79   C     C_R   0.962079 0.394348 0.235128 -0.122749
C80   C     C_R   0.605593 0.962206 0.235126 -0.122756
C81   C     C_R   0.539073 0.105237 0.735129 -0.122678
C82   C     C_R   0.014833 0.611198 0.734807 -0.120253
C83   C     C_R   0.460934 0.894758 0.735130 -0.122678
C84   C     C_R   0.985168 0.388802 0.734807 -0.120253
C85   C     C_R   0.539851 0.104922 0.764699 -0.125885
C86   C     C_R   0.013195 0.611380 0.764370 -0.126076
C87   C     C_R   0.460158 0.895074 0.764699 -0.125884
C88   C     C_R   0.986806 0.388619 0.764370 -0.126075
C89   C     C_R   0.038742 0.605329 0.264697 -0.125931
C90   C     C_R   0.394734 0.038618 0.264696 -0.125911
C91   C     C_R   0.961256 0.394672 0.264697 -0.125932
C92   C     C_R   0.605266 0.961380 0.264696 -0.125911
C93   C     C_R   0.520284 0.052531 0.779767 -0.030732
C94   C     C_R   0.005994 0.555939 0.779441 -0.027393
C95   C     C_R   0.479726 0.947465 0.779768 -0.030731
C96   C     C_R   0.994006 0.444061 0.779441 -0.027394
C97   C     C_R   0.019747 0.552732 0.279765 -0.030747
C98   C     C_R   0.447301 0.019686 0.279764 -0.030755
C99   C     C_R   0.980251 0.447269 0.279765 -0.030747
C100  C     C_R   0.552699 0.980312 0.279764 -0.030755
C101  C     C_R   0.500004 0.999998 0.764860 -0.010222
C102  C     C_R   0.000000 0.500000 0.764536 -0.011933
C103  C     C_R   0.999999 0.500000 0.264858 -0.010257
C104  C     C_R   0.500000 0.999999 0.264857 -0.010252
C105  C     C_R   0.520624 0.051175 0.809471 0.535119
C106  C     C_R   0.004394 0.554974 0.809141 0.538730
C107  C     C_R   0.479387 0.948821 0.809471 0.535121
C108  C     C_R   0.995607 0.445026 0.809141 0.538731
C109  C     C_R   0.020148 0.551363 0.309468 0.535010
C110  C     C_R   0.448671 0.020091 0.309466 0.535020
C111  C     C_R   0.979850 0.448638 0.309468 0.535010
C112  C     C_R   0.551328 0.979907 0.309466 0.535020
N5    N     N_R   0.500005 0.999998 0.823681 -0.336232
N6    N     N_R   0.000000 0.500000 0.823415 -0.330889
N7    N     N_R   0.999999 0.500000 0.323682 -0.336144
N8    N     N_R   0.500000 0.999999 0.323681 -0.336148
O49   O     O_2   0.965131 0.397172 0.175627 -0.521366
O50   O     O_2   0.602776 0.965262 0.175626 -0.521370
O51   O     O_2   0.034867 0.602828 0.175627 -0.521365
O52   O     O_2   0.397224 0.034737 0.175626 -0.521370
O53   O     O_2   0.463935 0.897580 0.675628 -0.521579
O54   O     O_2   0.980633 0.393085 0.675394 -0.516107
O55   O     O_2   0.536068 0.102415 0.675627 -0.521581
O56   O     O_2   0.019367 0.606915 0.675394 -0.516107
H17   H     H_    0.052620 0.647008 0.224136 0.201620
H18   H     H_    0.353075 0.052443 0.224135 0.201612
H19   H     H_    0.947379 0.352993 0.224136 0.201621
H20   H     H_    0.646925 0.947556 0.224135 0.201612
H21   H     H_    0.554237 0.146433 0.724138 0.201472
H22   H     H_    0.020896 0.654660 0.723819 0.203659
H23   H     H_    0.445770 0.853563 0.724139 0.201472
H24   H     H_    0.979105 0.345340 0.723819 0.203659
H25   H     H_    0.555585 0.145906 0.775686 0.202072
H26   H     H_    0.018072 0.654994 0.775353 0.202452
H27   H     H_    0.444425 0.854089 0.775687 0.202072
H28   H     H_    0.981929 0.345005 0.775353 0.202452
H29   H     H_    0.054045 0.646469 0.275685 0.202158
H30   H     H_    0.353618 0.053874 0.275684 0.202168
H31   H     H_    0.945953 0.353532 0.275685 0.202158
H32   H     H_    0.646381 0.946124 0.275683 0.202168
O57   O     O_2   0.541908 0.100360 0.824063 -0.525100
O58   O     O_2   0.006561 0.608619 0.823638 -0.545732
O59   O     O_2   0.458102 0.899636 0.824063 -0.525103
O60   O     O_2   0.993440 0.391381 0.823639 -0.545732
O61   O     O_2   0.041035 0.600726 0.324053 -0.525057
O62   O     O_2   0.399344 0.040926 0.324051 -0.524988
O63   O     O_2   0.958963 0.399274 0.324053 -0.525057
O64   O     O_2   0.600655 0.959072 0.324051 -0.524987
C113  C     C_R   0.465086 0.043573 0.868936 -0.180870
C114  C     C_R   0.951676 0.471913 0.868810 -0.178693
C115  C     C_R   0.534922 0.956426 0.868937 -0.180897
C116  C     C_R   0.048325 0.528087 0.868810 -0.178693
C117  C     C_R   0.965025 0.543529 0.368944 -0.180634
C118  C     C_R   0.456386 0.964999 0.368944 -0.180591
C119  C     C_R   0.034973 0.456472 0.368944 -0.180629
C120  C     C_R   0.543614 0.035000 0.368944 -0.180588
H33   H     H_    0.438209 0.077385 0.857414 0.180215
H34   H     H_    0.913859 0.450625 0.857403 0.187721
H35   H     H_    0.561799 0.922612 0.857416 0.180204
H36   H     H_    0.086141 0.549375 0.857403 0.187721
H37   H     H_    0.938099 0.577309 0.357427 0.180389
H38   H     H_    0.422539 0.938053 0.357427 0.180387
H39   H     H_    0.061899 0.422691 0.357427 0.180391
H40   H     H_    0.577461 0.061946 0.357427 0.180389
C121  C     C_R   0.464266 0.043505 0.898575 0.401886
C122  C     C_R   0.952472 0.469745 0.898407 0.401417
C123  C     C_R   0.535739 0.956494 0.898576 0.401902
C124  C     C_R   0.047528 0.530255 0.898407 0.401418
C125  C     C_R   0.964243 0.543488 0.398582 0.401961
C126  C     C_R   0.456422 0.964220 0.398582 0.401996
C127  C     C_R   0.035756 0.456512 0.398582 0.401958
C128  C     C_R   0.543578 0.035779 0.398582 0.401994
C129  C     C_R   0.500001 1.000000 0.913503 -0.224889
C130  C     C_R   0.000000 0.500000 0.913408 -0.236415
C131  C     C_R   1.000000 0.500000 0.413508 -0.224707
C132  C     C_R   0.500000 1.000000 0.413507 -0.224383
C133  C     C_R   0.500004 0.999999 0.854096 0.176131
C134  C     C_R   0.000000 0.500000 0.853895 0.171608
C135  C     C_R   0.999999 0.500000 0.354099 0.175831
C136  C     C_R   0.500000 0.999999 0.354098 0.175834
C137  C     C_R   0.948653 0.524079 0.131010 0.322353
C138  C     C_R   0.475847 0.948619 0.131008 0.322261
C139  C     C_R   0.051347 0.475922 0.131010 0.322353
C140  C     C_R   0.524153 0.051381 0.131008 0.322260
C141  C     C_R   0.448961 0.024722 0.631006 0.321650
C142  C     C_R   0.951542 0.529339 0.630471 0.335375
C143  C     C_R   0.551040 0.975274 0.631005 0.321647
C144  C     C_R   0.048458 0.470661 0.630470 0.335375
C145  C     C_R   0.949424 0.523548 0.101349 -0.249959
C146  C     C_R   0.476380 0.949390 0.101347 -0.249759
C147  C     C_R   0.050576 0.476452 0.101349 -0.249958
C148  C     C_R   0.523619 0.050610 0.101347 -0.249759
C149  C     C_R   0.449716 0.024169 0.601343 -0.250048
C150  C     C_R   0.953347 0.530638 0.600833 -0.255716
C151  C     C_R   0.550284 0.975828 0.601343 -0.250048
C152  C     C_R   0.046653 0.469362 0.600833 -0.255717
H41   H     H_    0.910374 0.541730 0.089718 0.211581
H42   H     H_    0.458143 0.910316 0.089716 0.211689
H43   H     H_    0.089625 0.458270 0.089718 0.211581
H44   H     H_    0.541857 0.089684 0.089716 0.211689
H45   H     H_    0.410898 0.042837 0.589710 0.211571
H46   H     H_    0.916932 0.553360 0.589067 0.193593
H47   H     H_    0.589102 0.957161 0.589709 0.211571
H48   H     H_    0.083068 0.446640 0.589067 0.193593
C153  C     C_R   1.000000 0.500000 0.086528 -0.151638
C154  C     C_R   0.500000 1.000000 0.086527 -0.151570
C155  C     C_R   0.500000 0.999999 0.586524 -0.151131
C156  C     C_R   0.000000 0.500000 0.586166 -0.131333
C157  C     C_R   1.000000 0.500000 0.145928 0.073070
C158  C     C_R   0.500000 1.000000 0.145927 0.073063
C159  C     C_R   0.500001 0.999998 0.645925 0.073341
C160  C     C_R   0.000000 0.500000 0.645451 0.062737
N9    N     N_R   0.685481 0.098578 0.968567 0.260105
O65   O     O_R   0.708983 0.153470 0.971443 -0.321350
O66   O     O_R   0.641050 0.090237 0.950392 -0.370356
N10   N     N_R   0.903932 0.684967 0.967139 0.259577
O67   O     O_R   0.848863 0.708429 0.968875 -0.320438
O68   O     O_R   0.913831 0.640227 0.949309 -0.371397
N11   N     N_R   0.314518 0.901418 0.968569 0.260109
O69   O     O_R   0.291014 0.846527 0.971447 -0.321352
O70   O     O_R   0.358950 0.909756 0.950394 -0.370358
N12   N     N_R   0.096068 0.315033 0.967139 0.259577
O71   O     O_R   0.151137 0.291571 0.968876 -0.320440
O72   O     O_R   0.086170 0.359773 0.949309 -0.371397
N13   N     N_R   0.185481 0.598440 0.468495 0.260236
O73   O     O_R   0.209041 0.653325 0.471296 -0.320538
O74   O     O_R   0.141001 0.590043 0.450351 -0.370060
N14   N     N_R   0.401873 0.185194 0.468370 0.260258
O75   O     O_R   0.346970 0.208580 0.471129 -0.318069
O76   O     O_R   0.410340 0.140734 0.450238 -0.370599
N15   N     N_R   0.814519 0.401561 0.468494 0.260236
O77   O     O_R   0.790960 0.346675 0.471296 -0.320538
O78   O     O_R   0.859000 0.409958 0.450350 -0.370059
N16   N     N_R   0.598127 0.814806 0.468370 0.260257
O79   O     O_R   0.653030 0.791420 0.471129 -0.318068
O80   O     O_R   0.589659 0.859267 0.450238 -0.370598
N17   N     N_R   0.815473 0.072958 0.956263 0.252879
O81   O     O_R   0.860364 0.111371 0.961269 -0.373933
O82   O     O_R   0.792106 0.070443 0.930864 -0.337935
N18   N     N_R   0.930834 0.814825 0.955071 0.255004
O83   O     O_R   0.891352 0.859077 0.959219 -0.377888
O84   O     O_R   0.936440 0.791603 0.929751 -0.330101
N19   N     N_R   0.184527 0.927042 0.956263 0.252882
O85   O     O_R   0.139636 0.888630 0.961268 -0.373931
O86   O     O_R   0.207896 0.929558 0.930864 -0.337926
N20   N     N_R   0.069166 0.185175 0.955072 0.255001
O87   O     O_R   0.108648 0.140923 0.959219 -0.377887
O88   O     O_R   0.063561 0.208397 0.929751 -0.330102
N21   N     N_R   0.315412 0.572547 0.456129 0.252767
O89   O     O_R   0.360512 0.610776 0.461021 -0.380891
O90   O     O_R   0.291889 0.569958 0.430762 -0.339125
N22   N     N_R   0.427784 0.315169 0.456045 0.252822
O91   O     O_R   0.389399 0.360035 0.460910 -0.379710
O92   O     O_R   0.430592 0.291721 0.430669 -0.339124
N23   N     N_R   0.684588 0.427453 0.456129 0.252765
O93   O     O_R   0.639488 0.389223 0.461022 -0.380891
O94   O     O_R   0.708111 0.430041 0.430762 -0.339127
N24   N     N_R   0.572216 0.684831 0.456045 0.252821
O95   O     O_R   0.610601 0.639965 0.460909 -0.379711
O96   O     O_R   0.569408 0.708279 0.430669 -0.339125
O97   O     O_3   0.430611 0.087665 0.913000 -0.599178
C161  C     C_3   0.367849 0.070173 0.913068 0.078579
H49   H     H_    0.361947 0.023074 0.922201 0.171564
H50   H     H_    0.348833 0.071086 0.891112 0.158303
C162  C     C_3   0.331641 0.115735 0.931321 -0.348789
H51   H     H_    0.349087 0.113949 0.953478 0.241134
H52   H     H_    0.338651 0.163268 0.923080 0.258501
C163  C     C_3   0.262790 0.101022 0.931232 -0.781777
H53   H     H_    0.243833 0.105233 0.909426 0.282009
H54   H     H_    0.238222 0.133941 0.945275 0.299189
H55   H     H_    0.254559 0.053541 0.939140 0.267744
O98   O     O_3   0.905965 0.438898 0.912641 -0.601003
C164  C     C_3   0.921302 0.375636 0.913844 0.092692
H56   H     H_    0.968000 0.368821 0.923289 0.165174
H57   H     H_    0.920229 0.355138 0.892166 0.175208
C165  C     C_3   0.874301 0.342086 0.932451 -0.358449
H58   H     H_    0.876039 0.361301 0.954298 0.244713
H59   H     H_    0.827180 0.349509 0.923818 0.256602
C166  C     C_3   0.887262 0.272942 0.933650 -0.775665
H60   H     H_    0.883185 0.252319 0.912159 0.284178
H61   H     H_    0.853327 0.250223 0.947884 0.296459
H62   H     H_    0.934326 0.264268 0.941995 0.264637
O99   O     O_3   0.569392 0.912336 0.913002 -0.599177
C167  C     C_3   0.632158 0.929813 0.913061 0.078572
H63   H     H_    0.638076 0.976928 0.922175 0.171577
H64   H     H_    0.651170 0.928852 0.891105 0.158310
C168  C     C_3   0.668358 0.884278 0.931333 -0.348796
H65   H     H_    0.650913 0.886109 0.953488 0.241130
H66   H     H_    0.661338 0.836730 0.923111 0.258503
C169  C     C_3   0.737211 0.898977 0.931237 -0.781797
H67   H     H_    0.756169 0.894713 0.909433 0.282021
H68   H     H_    0.761773 0.866083 0.945295 0.299170
H69   H     H_    0.745452 0.946474 0.939123 0.267772
O100  O     O_3   0.094035 0.561102 0.912641 -0.601004
C170  C     C_3   0.078699 0.624364 0.913844 0.092691
H70   H     H_    0.032000 0.631180 0.923289 0.165175
H71   H     H_    0.079773 0.644862 0.892166 0.175208
C171  C     C_3   0.125699 0.657914 0.932451 -0.358447
H72   H     H_    0.123960 0.638698 0.954299 0.244713
H73   H     H_    0.172821 0.650491 0.923819 0.256602
C172  C     C_3   0.112738 0.727058 0.933650 -0.775666
H74   H     H_    0.116816 0.747681 0.912159 0.284178
H75   H     H_    0.146672 0.749776 0.947885 0.296459
H76   H     H_    0.065674 0.735732 0.941994 0.264638
O101  O     O_3   0.930651 0.587692 0.413009 -0.598841
C173  C     C_3   0.867863 0.570302 0.413081 0.078013
H77   H     H_    0.861886 0.523216 0.422217 0.171792
H78   H     H_    0.848838 0.571243 0.391127 0.158142
C174  C     C_3   0.831747 0.615934 0.431335 -0.348214
H79   H     H_    0.849196 0.614119 0.453491 0.241654
H80   H     H_    0.838846 0.663453 0.423092 0.258910
C175  C     C_3   0.762870 0.601358 0.431252 -0.779521
H81   H     H_    0.743922 0.605535 0.409444 0.281223
H82   H     H_    0.738373 0.634380 0.445269 0.300809
H83   H     H_    0.754543 0.553922 0.439197 0.267689
O102  O     O_3   0.412134 0.930607 0.413010 -0.598868
C176  C     C_3   0.429366 0.867832 0.413079 0.078225
H84   H     H_    0.476461 0.861877 0.422192 0.171826
H85   H     H_    0.428326 0.848804 0.391126 0.158187
C177  C     C_3   0.383679 0.831706 0.431358 -0.349204
H86   H     H_    0.385577 0.849175 0.453509 0.241295
H87   H     H_    0.336158 0.838767 0.423131 0.258902
C178  C     C_3   0.398095 0.762846 0.431283 -0.778892
H88   H     H_    0.393859 0.743881 0.409478 0.281331
H89   H     H_    0.365017 0.738343 0.445307 0.300746
H90   H     H_    0.445520 0.754553 0.439224 0.267632
O103  O     O_3   0.069349 0.412308 0.413008 -0.598842
C179  C     C_3   0.132136 0.429701 0.413082 0.078015
H91   H     H_    0.138109 0.476783 0.422222 0.171790
H92   H     H_    0.151161 0.428771 0.391128 0.158139
C180  C     C_3   0.168254 0.384063 0.431332 -0.348213
H93   H     H_    0.150804 0.385866 0.453488 0.241655
H94   H     H_    0.161158 0.336548 0.423084 0.258909
C181  C     C_3   0.237130 0.398642 0.431250 -0.779514
H95   H     H_    0.256078 0.394480 0.409441 0.281219
H96   H     H_    0.261629 0.365613 0.445263 0.300815
H97   H     H_    0.245455 0.446073 0.439201 0.267682
O104  O     O_3   0.587866 0.069393 0.413010 -0.598868
C182  C     C_3   0.570632 0.132167 0.413079 0.078226
H98   H     H_    0.523539 0.138120 0.422195 0.171825
H99   H     H_    0.571666 0.151195 0.391126 0.158186
C183  C     C_3   0.616322 0.168294 0.431356 -0.349202
H100  H     H_    0.614431 0.150825 0.453507 0.241296
H101  H     H_    0.663842 0.161235 0.423127 0.258902
C184  C     C_3   0.601905 0.237154 0.431281 -0.778888
H102  H     H_    0.606132 0.256119 0.409476 0.281328
H103  H     H_    0.634987 0.261659 0.445303 0.300749
H104  H     H_    0.554483 0.245445 0.439226 0.267629
N25   N     N_R   0.895846 0.549463 0.145508 0.233065
O105  O     O_R   0.880155 0.530450 0.170673 -0.360304
O106  O     O_R   0.860215 0.588840 0.132663 -0.335475
N26   N     N_R   0.450381 0.895778 0.145506 0.233076
O107  O     O_R   0.469360 0.880125 0.170674 -0.360316
O108  O     O_R   0.410955 0.860085 0.132659 -0.335184
N27   N     N_R   0.104154 0.450538 0.145509 0.233065
O109  O     O_R   0.119844 0.469551 0.170673 -0.360304
O110  O     O_R   0.139784 0.411160 0.132663 -0.335475
N28   N     N_R   0.549619 0.104222 0.145507 0.233076
O111  O     O_R   0.530639 0.119874 0.170674 -0.360316
O112  O     O_R   0.589045 0.139914 0.132659 -0.335184
N29   N     N_R   0.396487 0.050785 0.645504 0.233141
O113  O     O_R   0.380497 0.031908 0.670651 -0.360862
O114  O     O_R   0.361427 0.090708 0.632673 -0.331655
N30   N     N_R   0.900098 0.557013 0.644997 0.235237
O115  O     O_R   0.879115 0.533353 0.668468 -0.364192
O116  O     O_R   0.869718 0.601986 0.633236 -0.328169
N31   N     N_R   0.603514 0.949210 0.645503 0.233144
O117  O     O_R   0.619504 0.968085 0.670651 -0.360864
O118  O     O_R   0.638574 0.909288 0.632672 -0.331655
N32   N     N_R   0.099902 0.442987 0.644997 0.235237
O119  O     O_R   0.120886 0.466647 0.668468 -0.364192
O120  O     O_R   0.130282 0.398013 0.633236 -0.328169

loop_
_geom_bond_atom_site_label_1
_geom_bond_atom_site_label_2
_geom_bond_distance
_ccdc_geom_bond_type
O1    Zn1   1.995703 S    
C180  H94   1.111635 S    
O8    Zn2   1.995527 S    
C184  H102  1.110703 S    
O23   C43   1.279034 A    
C14   C22   1.349920 D    
C151  C155  1.397386 A    
C118  C126  1.397039 A    
C117  C135  1.399079 A    
C96   C102  1.407502 A    
C143  C151  1.398244 A    
O29   Zn9   1.996653 S    
C90   C98   1.404687 A    
C178  H89   1.110118 S    
C176  H85   1.114129 S    
C59   O51   1.349532 S    
C174  H80   1.111638 S    
O21   Zn9   2.010393 S    
C10   C18   1.349071 D    
C68   C80   1.404005 A    
O23   Zn11  2.010392 S    
O20   C42   1.279760 A    
C181  H97   1.109093 S    
C77   C89   1.393816 A    
O22   C44   1.278963 A    
C12   N12   1.440247 S    
C72   C76   1.408375 A    
C99   C111  1.400323 A    
C150  H46   1.083850 S    
O3    C3    1.278831 A    
N20   O87   1.301538 A    
C71   C75   1.409110 A    
C144  C160  1.417391 A    
C14   N14   1.440198 S    
C114  C122  1.395866 A    
O33   C45   1.272933 A    
C147  H43   1.083345 S    
C105  O57   1.349743 S    
C107  N5    1.370461 A    
C181  H96   1.110117 S    
O39   Zn9   1.995879 S    
C137  N25   1.443095 S    
C146  C154  1.397374 A    
O17   Zn5   2.010393 S    
C21   H5    1.086852 S    
C164  H57   1.114466 S    
C96   C108  1.400421 A    
C88   H28   1.083097 S    
O25   Zn5   1.996653 S    
C86   C94   1.404790 A    
Zn7   O43   2.010428 S    
O12   Zn3   1.995437 S    
C117  C125  1.397035 A    
N19   O85   1.301579 A    
O27   C47   1.274794 A    
C84   C88   1.393888 A    
C182  C183  1.527935 S    
C77   H17   1.083109 S    
C175  H82   1.110126 S    
O41   C53   1.279647 A    
N23   O94   1.301058 A    
C161  H49   1.115414 S    
C82   H22   1.083106 S    
O31   Zn11  1.996653 S    
N16   O79   1.301042 A    
C121  C129  1.409714 A    
C165  C166  1.526770 S    
C9    C25   1.474829 S    
C118  C136  1.399091 A    
N31   O118  1.301830 A    
C65   C77   1.404008 A    
C66   C74   1.409078 A    
O11   Zn3   1.995613 S    
O98   C164  1.413012 S    
O12   C4    1.280797 A    
C80   C92   1.393822 A    
O44   C54   1.279581 A    
C162  C163  1.525961 S    
O28   Zn8   1.995727 S    
C119  H39   1.083145 S    
C8    C37   1.446685 S    
C24   C52   1.447264 S    
N26   O107  1.300785 A    
C179  H92   1.114135 S    
C125  C131  1.409665 A    
C16   N16   1.440199 S    
C172  H74   1.110725 S    
C149  C155  1.397386 A    
C184  H104  1.109114 S    
C16   C24   1.349921 D    
C173  C174  1.527948 S    
C150  C156  1.394369 A    
O22   Zn10  2.010386 S    
C113  H33   1.083154 S    
O19   C41   1.279067 A    
C12   C20   1.349074 D    
O35   C47   1.272933 A    
C19   H3    1.086827 S    
C140  N28   1.443100 S    
C20   H4    1.086886 S    
C57   O49   1.349530 S    
C32   N24   1.440474 S    
C115  C123  1.397101 A    
O24   C44   1.278962 A    
C161  C162  1.527967 S    
C170  H70   1.116013 S    
C79   H19   1.083107 S    
O34   C46   1.271814 A    
C33   H9    1.086740 S    
C69   C75   1.409109 A    
C149  H45   1.083413 S    
C62   O54   1.349617 S    
C138  N26   1.443098 S    
C84   H24   1.083105 S    
C163  H53   1.110705 S    
C168  C169  1.525943 S    
O26   Zn6   1.995727 S    
C67   C73   1.409079 A    
O47   C55   1.276719 A    
C6    C39   1.446685 S    
C60   O52   1.349530 S    
C15   N15   1.440162 S    
N23   O93   1.301484 A    
O4    C4    1.277962 A    
N10   O67   1.301040 A    
O5    C5    1.278131 A    
C166  H60   1.110727 S    
C141  C159  1.417076 A    
C142  C160  1.417387 A    
C116  C124  1.395866 A    
C171  H72   1.111453 S    
O37   C49   1.272794 A    
C60   C66   1.399825 A    
C100  C104  1.408085 A    
N27   O110  1.301642 A    
O10   Zn3   1.995436 S    
N32   O120  1.301505 A    
O19   Zn7   2.010392 S    
C5    C38   1.446736 S    
C182  H98   1.115385 S    
C87   H27   1.083205 S    
N30   O116  1.301508 A    
C94   C102  1.407501 A    
O4    Zn1   1.995527 S    
N25   O105  1.300787 A    
C10   C26   1.474022 S    
C34   H10   1.086773 S    
O7    Zn2   1.995700 S    
C15   C31   1.474678 S    
O10   C2    1.280797 A    
C128  O104  1.383288 S    
C64   O56   1.349615 S    
C85   H25   1.083204 S    
C127  O103  1.383288 S    
C38   H14   1.086759 S    
C167  H63   1.115423 S    
C4    C33   1.446622 S    
O100  C170  1.413013 S    
C31   C39   1.349497 D    
C25   C33   1.349431 D    
O28   C48   1.275058 A    
O27   Zn7   1.996653 S    
N13   O74   1.301504 A    
C27   C35   1.349427 D    
C172  H76   1.109846 S    
C28   C36   1.349915 D    
C57   C67   1.399825 A    
C151  H47   1.083414 S    
C137  C145  1.398182 A    
C92   H32   1.083097 S    
C95   C101  1.408155 A    
C113  C121  1.397097 A    
C24   H8    1.086845 S    
C139  C147  1.398182 A    
O17   C41   1.279070 A    
C148  H44   1.083348 S    
C21   C49   1.447190 S    
C139  C157  1.417032 A    
C91   C99   1.404683 A    
C23   C51   1.447191 S    
C120  C128  1.397039 A    
C89   C97   1.404685 A    
N14   O76   1.301505 A    
C126  C132  1.409650 A    
N12   O72   1.301525 A    
O36   C48   1.271816 A    
C175  H83   1.109097 S    
C122  O98   1.382783 S    
O20   Zn8   2.010386 S    
O36   Zn6   1.997151 S    
N22   O91   1.301501 A    
C9    N9    1.440155 S    
O40   C52   1.272893 A    
C76   C102  1.408814 A    
C78   C90   1.393822 A    
C152  H48   1.083849 S    
C163  H55   1.109092 S    
N30   O115  1.301246 A    
N19   O86   1.301054 A    
N18   O84   1.301044 A    
C17   C45   1.447358 S    
N9    O65   1.301050 A    
C80   H20   1.083109 S    
O45   C55   1.276720 A    
N5    C133  1.433554 S    
O46   C56   1.279566 A    
C144  C152  1.397743 A    
C165  H59   1.111587 S    
C145  H41   1.083348 S    
C121  O97   1.383284 S    
C22   H6    1.086845 S    
C141  C149  1.398248 A    
C118  H38   1.083140 S    
N24   O96   1.301052 A    
N15   O78   1.301506 A    
C183  H100  1.111390 S    
C39   H15   1.086761 S    
C167  H64   1.114137 S    
C123  C129  1.409715 A    
C87   C95   1.404743 A    
C170  C171  1.527878 S    
O9    C1    1.280294 A    
C88   C96   1.404791 A    
C110  O62   1.349723 S    
C106  N6    1.371912 A    
C177  H86   1.111388 S    
C75   C101  1.408753 A    
C66   C78   1.404011 A    
C40   H16   1.086754 S    
O33   Zn7   1.995879 S    
O1    C1    1.278832 A    
C167  C168  1.527965 S    
O14   C6    1.280758 A    
C22   C50   1.447264 S    
C62   N4    1.369861 A    
C176  H84   1.115388 S    
O13   C5    1.280693 A    
O30   Zn10  1.995727 S    
O6    Zn2   1.995525 S    
C107  O59   1.349739 S    
O7    C7    1.278134 A    
N10   O68   1.301526 A    
O8    C8    1.278029 A    
C166  H62   1.109845 S    
C111  N7    1.370563 A    
C18   H2    1.086887 S    
C95   C107  1.400352 A    
C59   N1    1.368430 A    
Zn5   O41   2.010428 S    
C183  C184  1.525883 S    
O25   C45   1.274795 A    
N20   O88   1.301046 A    
Zn9   O45   2.010428 S    
C91   H31   1.083095 S    
O29   C49   1.274844 A    
Zn11  O47   2.010428 S    
N2    C158  1.430321 S    
C89   H29   1.083096 S    
C164  H56   1.116014 S    
C10   N10   1.440248 S    
N4    C160  1.434285 S    
O11   C3    1.280295 A    
C79   C91   1.393821 A    
C112  N8    1.370570 A    
C182  H99   1.114132 S    
C28   N20   1.440018 S    
C55   C156  1.451837 S    
C98   C110  1.400329 A    
C161  H50   1.114141 S    
N29   O114  1.301836 A    
C56   C155  1.462815 S    
N7    C135  1.433667 S    
N16   O80   1.301507 A    
O6    C6    1.278028 A    
O39   C51   1.272792 A    
N17   O82   1.301055 A    
N28   O111  1.300783 A    
C60   N2    1.368431 A    
C82   C86   1.393888 A    
C178  H88   1.110700 S    
C59   C65   1.399825 A    
C137  C157  1.417032 A    
C27   N19   1.440490 S    
O99   C167  1.412026 S    
O13   Zn4   1.995615 S    
C162  H52   1.111622 S    
C20   C48   1.446049 S    
C92   C100  1.404687 A    
N26   O108  1.301642 A    
C106  O58   1.349777 S    
C93   C101  1.408158 A    
C140  C148  1.398187 A    
C116  C134  1.400297 A    
C180  C181  1.525891 S    
C184  H103  1.110121 S    
O18   Zn6   2.010386 S    
C68   C74   1.409079 A    
C177  C178  1.525883 S    
C169  H67   1.110701 S    
O40   Zn10  1.997151 S    
C70   C82   1.404148 A    
N31   O117  1.300816 A    
C78   H18   1.083110 S    
O3    Zn1   1.995700 S    
C178  H90   1.109117 S    
O102  C176  1.411981 S    
O26   C46   1.275059 A    
C176  C177  1.527938 S    
C105  N5    1.370461 A    
C26   C34   1.349916 D    
C62   C72   1.399928 A    
C97   C103  1.408085 A    
C81   H21   1.083212 S    
C63   C69   1.399850 A    
N11   O69   1.301048 A    
C1    C34   1.447296 S    
C138  C146  1.398187 A    
C115  C133  1.398971 A    
C109  N7    1.370564 A    
C127  C131  1.409666 A    
C3    C36   1.447296 S    
O24   Zn12  2.010386 S    
C93   C105  1.400348 A    
C163  H54   1.110143 S    
C126  O102  1.383289 S    
C168  H66   1.111632 S    
O21   C43   1.279033 A    
C81   C85   1.393841 A    
C181  H95   1.110700 S    
O38   C50   1.272893 A    
C69   C81   1.404098 A    
C171  H73   1.111585 S    
C164  C165  1.527879 S    
O38   Zn12  1.997151 S    
O9    Zn3   1.995615 S    
O101  C173  1.411985 S    
C152  C156  1.394369 A    
C123  O99   1.383290 S    
Zn8   O44   2.010422 S    
C25   N17   1.440490 S    
C64   N4    1.369860 A    
C29   C37   1.349497 D    
C175  H81   1.110697 S    
O35   Zn5   1.995879 S    
C169  H68   1.110160 S    
Zn12  O48   2.010422 S    
C122  C130  1.410683 A    
C57   N1    1.368427 A    
C13   C21   1.349862 D    
C146  H42   1.083348 S    
C171  C172  1.526768 S    
C143  C159  1.417080 A    
C173  H77   1.115398 S    
C63   O55   1.349585 S    
C23   H7    1.086849 S    
O15   Zn4   1.995613 S    
C142  C150  1.397743 A    
O30   C50   1.274626 A    
O2    Zn1   1.995525 S    
C169  H69   1.109100 S    
O5    Zn2   1.995703 S    
C179  H91   1.115396 S    
C32   C40   1.349489 D    
C119  C135  1.399076 A    
N13   O73   1.301042 A    
C9    C17   1.349994 D    
C180  H93   1.111387 S    
C172  H75   1.110369 S    
C144  N32   1.440413 S    
C11   C27   1.474825 S    
C141  N29   1.443089 S    
C85   C93   1.404746 A    
C12   C28   1.474022 S    
C113  C133  1.398972 A    
O16   Zn4   1.995437 S    
N15   O77   1.301043 A    
O2    C2    1.277961 A    
N21   O89   1.301484 A    
C173  H78   1.114136 S    
C168  H65   1.111373 S    
C119  C127  1.397035 A    
C67   C79   1.404006 A    
C44   C132  1.462937 S    
O97   C161  1.412030 S    
C19   C47   1.447358 S    
O32   C52   1.274626 A    
C61   O53   1.349586 S    
C43   C131  1.462951 S    
C145  C153  1.397382 A    
C53   C154  1.462961 S    
N22   O92   1.301052 A    
C124  C130  1.410681 A    
C2    C35   1.446622 S    
C58   N2    1.368431 A    
C42   C130  1.466010 S    
C148  C154  1.397371 A    
C37   H13   1.086759 S    
C115  H35   1.083153 S    
N8    C136  1.433686 S    
C117  H37   1.083144 S    
C30   C38   1.349485 D    
C73   C103  1.408739 A    
C74   C104  1.408739 A    
C142  N30   1.440413 S    
O103  C179  1.411984 S    
C110  N8    1.370569 A    
C128  C132  1.409649 A    
C65   C73   1.409077 A    
O18   C42   1.279761 A    
O15   C7    1.280689 A    
N32   O119  1.301248 A    
C61   N3    1.368457 A    
C108  N6    1.371910 A    
O16   C8    1.280757 A    
C70   C76   1.408377 A    
O43   C53   1.279646 A    
C183  H101  1.111638 S    
C63   N3    1.368458 A    
C54   C153  1.462979 S    
O48   C56   1.279563 A    
C147  C153  1.397385 A    
C99   C103  1.408085 A    
C170  H71   1.114465 S    
C97   C109  1.400323 A    
N25   O106  1.301643 A    
C30   N22   1.440479 S    
O37   Zn11  1.995879 S    
C114  C134  1.400298 A    
C177  H87   1.111639 S    
C100  C112  1.400329 A    
C83   H23   1.083215 S    
C138  C158  1.417039 A    
C125  O101  1.383289 S    
N6    C134  1.436613 S    
C7    C40   1.446736 S    
C18   C46   1.446048 S    
C83   C87   1.393840 A    
C174  C175  1.525885 S    
O34   Zn8   1.997151 S    
C179  C180  1.527947 S    
N21   O90   1.301056 A    
C120  C136  1.399090 A    
C166  H61   1.110368 S    
C140  C158  1.417040 A    
C14   C30   1.474515 S    
N11   O70   1.301506 A    
C72   C84   1.404149 A    
C11   N11   1.440157 S    
C86   H26   1.083098 S    
C108  O60   1.349774 S    
N3    C159  1.430377 S    
C71   C83   1.404098 A    
C114  H34   1.083142 S    
C13   N13   1.440161 S    
C64   C70   1.399928 A    
C15   C23   1.349860 D    
N14   O75   1.301042 A    
O104  C182  1.411983 S    
C29   N21   1.440475 S    
C58   O50   1.349531 S    
N12   O71   1.301040 A    
C139  N27   1.443095 S    
C111  O63   1.349726 S    
O32   Zn12  1.995727 S    
C109  O61   1.349726 S    
C35   H11   1.086741 S    
C16   C32   1.474518 S    
N1    C157  1.430316 S    
C13   C29   1.474676 S    
C58   C68   1.399830 A    
C41   C129  1.463102 S    
N18   O83   1.301538 A    
C120  H40   1.083140 S    
N9    O66   1.301508 A    
O31   C51   1.274846 A    
C94   C106  1.400421 A    
N29   O113  1.300822 A    
C174  H79   1.111382 S    
C124  O100  1.382783 S    
C165  H58   1.111448 S    
C11   C19   1.349996 D    
C143  N31   1.443096 S    
C36   H12   1.086775 S    
N17   O81   1.301578 A    
N28   O112  1.301644 A    
N27   O109  1.300788 A    
Zn6   O42   2.010422 S    
C112  O64   1.349723 S    
N24   O95   1.301503 A    
C31   N23   1.440475 S    
C116  H36   1.083141 S    
C26   N18   1.440019 S    
C61   C71   1.399849 A    
Zn10  O46   2.010422 S    
O14   Zn4   1.995436 S    
C162  H51   1.111381 S    
C17   H1    1.086828 S    
O42   C54   1.279580 A    
C98   C104  1.408085 A    
C90   H30   1.083096 S    
