data_mof_unit_35904.cif
_audit_creation_date              2012-12-10T16:50:09-0500
_audit_creation_method            fapswitch 2.2
_symmetry_space_group_name_H-M    P1
_symmetry_Int_Tables_number       1
_space_group_crystal_system       triclinic
_cell_length_a                    23.421939
_cell_length_b                    8.655684
_cell_length_c                    7.437855
_cell_angle_alpha                 103.202856
_cell_angle_beta                  93.9814
_cell_angle_gamma                 91.947886
_cell_volume                      1462.5672579

loop_
_atom_site_label
_atom_site_type_symbol
_atom_type_description
_atom_site_fract_x
_atom_site_fract_y
_atom_site_fract_z
_atom_type_partial_charge
C1    C     C_R   0.498296 0.199587 0.453037 0.877974
C2    C     C_R   0.501703 0.800412 0.546963 0.877950
C3    C     C_R   0.243402 0.650118 0.557902 0.056942
C4    C     C_R   0.756768 0.350954 0.442699 0.056973
C5    C     C_R   0.303301 0.646239 0.563381 -0.257848
C6    C     C_R   0.696858 0.354342 0.437260 -0.257871
C7    C     C_R   0.329456 0.501853 0.508745 -0.014274
C8    C     C_R   0.670551 0.498561 0.491310 -0.014259
C9    C     C_R   0.296304 0.359714 0.450801 -0.229556
C10   C     C_R   0.703560 0.640996 0.548641 -0.229487
C11   C     C_R   0.236947 0.361236 0.449374 -0.115917
C12   C     C_R   0.762924 0.639935 0.550083 -0.115835
C13   C     C_R   0.210001 0.505100 0.502336 0.312387
C14   C     C_R   0.790018 0.496255 0.497677 0.312620
C15   C     C_2   0.497471 0.031484 0.426659 -0.375162
C16   C     C_2   0.502527 0.968516 0.573341 -0.375182
C17   C     C_R   0.391311 0.500290 0.502857 0.792254
C18   C     C_R   0.608689 0.499726 0.497145 0.792274
C19   C     C_R   0.884044 0.551746 0.662248 0.503496
C20   C     C_R   0.115970 0.450302 0.337663 0.503565
C21   C     C_R   0.876037 0.453076 0.333412 0.535200
C22   C     C_R   0.123974 0.548727 0.666534 0.535144
C23   C     C_R   0.935754 0.449499 0.331389 -0.016148
C24   C     C_R   0.064259 0.552546 0.668515 -0.016037
C25   C     C_R   0.969897 0.501609 0.499370 -0.020529
C26   C     C_R   0.030117 0.500530 0.500520 -0.020505
C27   C     C_R   0.943986 0.555090 0.666161 -0.016113
C28   C     C_R   0.056029 0.447064 0.333729 -0.016055
C29   C     C_R   0.962004 0.394599 0.166150 -0.173691
C30   C     C_R   0.038011 0.607512 0.833743 -0.173711
C31   C     C_R   0.021549 0.392984 0.167407 -0.191134
C32   C     C_R   0.978467 0.609207 0.832475 -0.191176
Cu1   Cu    Cu3+1 0.506340 0.517380 0.684380 0.954767
Cu2   Cu    Cu3+1 0.493660 0.482620 0.315620 0.954750
H1    H     H_    0.936666 0.352717 0.035385 0.192618
H2    H     H_    0.063348 0.649357 0.964513 0.192690
H3    H     H_    0.040439 0.349757 0.037617 0.189712
H4    H     H_    0.959577 0.652448 0.962262 0.189697
H5    H     H_    0.329556 0.756036 0.604291 0.130004
H6    H     H_    0.670718 0.244324 0.396785 0.129981
H7    H     H_    0.316424 0.247809 0.407208 0.133805
H8    H     H_    0.683322 0.752776 0.591760 0.133797
H9    H     H_    0.211647 0.250227 0.406162 0.151603
H10   H     H_    0.788113 0.751157 0.592843 0.151792
H11   H     H_    0.492705 0.959308 0.285580 0.180221
H12   H     H_    0.507293 0.040692 0.714420 0.180226
H13   H     H_    0.455016 0.379187 0.948739 0.227556
H14   H     H_    0.544984 0.620813 0.051261 0.227573
N1    N     N_R   0.851391 0.500107 0.497709 -0.472278
N2    N     N_R   0.148625 0.501691 0.502243 -0.472305
N3    N     N_2   0.484110 0.456420 0.038520 -0.213438
N4    N     N_2   0.515890 0.543580 0.961480 -0.213428
O1    O     O_R   0.504120 0.286130 0.619770 -0.582633
O2    O     O_R   0.495880 0.713870 0.380230 -0.582631
O3    O     O_R   0.493410 0.256770 0.308360 -0.587373
O4    O     O_R   0.506590 0.743230 0.691640 -0.587372
O5    O     O_R   0.423230 0.514630 0.655730 -0.583707
O6    O     O_R   0.576770 0.485370 0.344270 -0.583689
O7    O     O_R   0.412530 0.485280 0.344320 -0.571754
O8    O     O_R   0.587470 0.514720 0.655680 -0.571715
O9    O     O_2   0.858520 0.597619 0.821747 -0.542857
O10   O     O_2   0.141493 0.404515 0.178147 -0.542714
O11   O     O_2   0.842807 0.410435 0.172640 -0.525886
O12   O     O_2   0.157192 0.591100 0.827350 -0.525846
C33   C     C_R   0.216762 0.805969 0.606881 0.124109
C34   C     C_R   0.174808 0.848466 0.484770 -0.145355
C35   C     C_R   0.149451 0.994706 0.532785 -0.177897
C36   C     C_R   0.165977 0.100162 0.702138 -0.090758
C37   C     C_R   0.208073 0.059842 0.823498 -0.105464
C38   C     C_R   0.233514 0.913642 0.776154 -0.125824
H15   H     H_    0.162012 0.769088 0.352003 0.161282
H16   H     H_    0.117172 0.026678 0.438251 0.144092
H17   H     H_    0.146356 0.213373 0.738901 0.166814
H18   H     H_    0.220913 0.141754 0.954532 0.163496
H19   H     H_    0.265727 0.883541 0.872397 0.136846
C39   C     C_R   0.783588 0.195334 0.394229 0.123788
C40   C     C_R   0.766960 0.087263 0.225140 -0.126048
C41   C     C_R   0.792600 0.941328 0.178222 -0.105243
C42   C     C_R   0.834771 0.901669 0.299832 -0.091361
C43   C     C_R   0.851162 0.007501 0.469034 -0.177519
C44   C     C_R   0.825609 0.153481 0.516619 -0.145325
H20   H     H_    0.734694 0.116863 0.128697 0.136932
H21   H     H_    0.779859 0.859116 0.047318 0.164203
H22   H     H_    0.854550 0.788672 0.263387 0.166053
H23   H     H_    0.883497 0.976033 0.563774 0.144269
H24   H     H_    0.838311 0.233166 0.649261 0.161453

loop_
_geom_bond_atom_site_label_1
_geom_bond_atom_site_label_2
_ccdc_geom_bond_type
C10   H8    S    
C21   N1    A    
C40   C41   A    
Cu1   N4    S    
Cu2   N3    S    
C23   C29   A    
C24   C26   A    
C42   H22   S    
C14   N1    S    
C33   C38   A    
C35   H16   S    
C1    O1    A    
C20   N2    A    
C41   H21   S    
C18   O6    A    
C36   C37   A    
C7    C17   S    
C11   H9    S    
C1    C15   S    
C32   H4    S    
C19   C27   A    
C44   H24   S    
C3    C13   A    
C22   N2    A    
Cu1   O4    S    
C34   C35   A    
Cu2   O3    S    
C20   O10   S    
C3    C33   S    
C25   C26   A    
Cu1   O1    S    
C4    C39   S    
C35   C36   A    
C39   C40   A    
C4    C6    A    
C2    O2    A    
C16   H12   S    
C5    C7    A    
C41   C42   A    
H13   N3    S    
C20   C28   A    
C36   H17   S    
C8    C18   S    
C31   H3    S    
C43   H23   S    
C19   N1    A    
C34   H15   S    
Cu1   Cu2   S    
C37   H18   S    
C9    C11   A    
C10   C12   A    
C17   O7    A    
C18   O8    A    
C12   C14   A    
Cu2   O2    S    
Cu1   O8    S    
C21   C23   A    
Cu2   O7    S    
C22   C24   A    
C15   H11   S    
C2    C16   S    
C7    C9    A    
Cu1   O5    S    
C27   C32   A    
C26   C28   A    
C28   C31   A    
C43   C44   A    
C3    C5    A    
C39   C44   A    
C6    C8    A    
C25   C27   A    
C29   H1    S    
C9    H7    S    
C30   H2    S    
C5    H5    S    
C1    O3    A    
N3    N4    D    
C29   C31   A    
C2    O4    A    
C30   C32   A    
C11   C13   A    
C40   H20   S    
C19   O9    S    
C13   N2    S    
C6    H6    S    
C23   C25   A    
C4    C14   A    
C37   C38   A    
C24   C30   A    
C21   O11   S    
C22   O12   S    
C42   C43   A    
H14   N4    S    
C8    C10   A    
C33   C34   A    
C38   H19   S    
Cu2   O6    S    
C12   H10   S    
C15   C16   D    
C17   O5    A    
