data_mof_unit_61170.cif
_audit_creation_date              2012-12-10T16:56:32-0500
_audit_creation_method            fapswitch 2.2
_symmetry_space_group_name_H-M    P1
_symmetry_Int_Tables_number       1
_space_group_crystal_system       triclinic
_cell_length_a                    18.981449
_cell_length_b                    18.664548
_cell_length_c                    18.861102
_cell_angle_alpha                 109.132553
_cell_angle_beta                  110.443838
_cell_angle_gamma                 109.067059
_cell_volume                      5128.54584137

loop_
_atom_site_label
_atom_site_type_symbol
_atom_type_description
_atom_site_fract_x
_atom_site_fract_y
_atom_site_fract_z
_atom_type_partial_charge
C1    C     C_R   0.621285 0.619331 0.503701 0.980513
C2    C     C_3   0.180828 0.417212 0.204010 -0.282979
C3    C     C_3   0.224531 0.479352 0.303341 -0.197885
C4    C     C_3   0.312881 0.497795 0.311927 -0.139186
C5    C     C_2   0.746583 0.807592 0.486062 -0.130463
C6    C     C_2   0.816570 0.805888 0.488487 -0.264315
C7    C     C_2   0.677363 0.732680 0.473093 0.312278
C8    C     C_2   0.693294 0.688313 0.515216 0.044287
C9    C     C_2   0.824289 0.495950 0.743155 0.489468
C10   C     C_2   0.818401 0.489341 0.810234 -0.490135
C11   C     C_2   0.748733 0.484740 0.672862 -0.156243
C12   C     C_R   0.379628 0.499235 0.379515 1.000333
C13   C     C_2   0.696857 0.512626 0.689955 -0.366854
C14   C     C_2   0.258517 0.252199 0.576898 -0.141937
C15   C     C_2   0.181608 0.192383 0.504403 -0.321951
C16   C     C_2   0.319518 0.324476 0.576781 -0.142314
C17   C     C_2   0.323291 0.311516 0.504451 -0.320042
C18   C     C_R   0.008255 0.619673 0.126661 0.953623
C19   C     C_R   0.126499 0.497812 0.124922 0.980844
C20   C     C_R   0.006106 0.380744 0.887258 0.952277
C21   C     C_R   0.886451 0.496865 0.883155 0.973328
C22   C     C_R   0.996804 0.116653 0.618053 0.931631
C23   C     C_R   0.382977 0.380255 0.501420 0.907391
C24   C     C_R   0.881714 0.878902 0.497469 0.926006
C25   C     C_R   0.999096 0.879022 0.381994 0.929553
C26   C     C_R   0.118522 0.120968 0.501489 0.928555
C27   C     C_2   0.006773 0.746516 0.327082 -0.137801
C28   C     C_2   0.991222 0.807301 0.314102 -0.339411
C29   C     C_2   0.996460 0.674284 0.255340 -0.070620
C30   C     C_2   0.017114 0.688430 0.198460 -0.283337
C31   C     C_2   0.923605 0.183539 0.675295 -0.129416
C32   C     C_2   0.993799 0.175843 0.687011 -0.319430
C33   C     C_2   0.925824 0.243907 0.750194 -0.128621
C34   C     C_R   0.622662 0.502477 0.621301 0.981471
C35   C     C_2   0.000595 0.316778 0.814530 -0.255066
C36   C     C_3   0.324572 0.576645 0.298336 -0.211753
C37   C     C_3   0.235183 0.557019 0.287606 0.452851
C38   C     C_3   0.192164 0.495978 0.190090 -0.244621
C39   C     C_3   0.280339 0.513708 0.199994 0.448914
C40   C     C_3   0.270410 0.435116 0.213903 -0.175918
H1    H     H_    0.756818 0.469756 0.808157 0.137114
H2    H     H_    0.737058 0.455718 0.606840 0.221805
H3    H     H_    0.712361 0.549105 0.756622 0.160299
H4    H     H_    0.275150 0.250396 0.637322 0.173527
H5    H     H_    0.161054 0.199842 0.447045 0.161278
H6    H     H_    0.363583 0.387041 0.636904 0.173523
H7    H     H_    0.286375 0.246516 0.447499 0.162141
H8    H     H_    0.023240 0.747632 0.388841 0.186951
H9    H     H_    0.381637 0.642971 0.336378 0.243074
H10   H     H_    0.964940 0.800468 0.249496 0.158812
H11   H     H_    0.974785 0.610678 0.251040 0.198236
H12   H     H_    0.047491 0.754080 0.208371 0.159288
H13   H     H_    0.863976 0.143373 0.612163 0.179859
H14   H     H_    0.049659 0.208381 0.752081 0.166974
H15   H     H_    0.865827 0.230724 0.750519 0.171999
H16   H     H_    0.058129 0.335721 0.808981 0.170821
H17   H     H_    0.286768 0.385393 0.184786 0.194966
H18   H     H_    0.120835 0.352335 0.163951 0.197240
H19   H     H_    0.203616 0.466209 0.347996 0.181276
H20   H     H_    0.737715 0.862901 0.488503 0.196198
H21   H     H_    0.825055 0.749807 0.481091 0.189020
O1    O     O_R   0.591160 0.539400 0.449620 -0.595688
O2    O     O_R   0.056790 0.641480 0.096140 -0.608693
O3    O     O_R   0.047640 0.448900 0.098680 -0.624762
O4    O     O_R   0.149770 0.551010 0.098640 -0.558066
O5    O     O_R   0.957150 0.358410 0.917750 -0.642117
O6    O     O_R   0.059270 0.460520 0.917700 -0.566132
O7    O     O_R   0.864170 0.448890 0.915250 -0.638134
O8    O     O_R   0.966300 0.551000 0.915200 -0.552760
O9    O     O_R   0.946940 0.090450 0.537440 -0.612714
O10   O     O_R   0.050520 0.090460 0.641000 -0.616855
O11   O     O_R   0.857760 0.909540 0.448230 -0.617041
O12   O     O_R   0.589730 0.641530 0.550350 -0.607212
O13   O     O_R   0.961340 0.909540 0.551790 -0.586182
O14   O     O_R   0.949480 0.909540 0.359000 -0.620591
O15   O     O_R   0.053060 0.909550 0.462560 -0.611125
O16   O     O_R   0.038660 0.090460 0.448210 -0.618984
O17   O     O_R   0.142240 0.090460 0.551770 -0.614052
O18   O     O_R   0.408980 0.448930 0.357910 -0.616170
O19   O     O_R   0.407550 0.551060 0.458650 -0.592176
O20   O     O_R   0.410270 0.358470 0.449650 -0.628838
O21   O     O_R   0.408840 0.460600 0.550380 -0.621337
O22   O     O_R   0.592450 0.448940 0.541350 -0.621773
O23   O     O_R   0.591020 0.551070 0.642090 -0.631319
O24   O     O_R   0.954670 0.539370 0.096190 -0.622884
Zn1   Zn    Zn3+2 0.500950 0.431810 0.432740 1.037153
Zn2   Zn    Zn3+2 0.499050 0.568190 0.567260 1.043102
Zn3   Zn    Zn3+2 0.938780 0.431770 0.006970 1.001466
Zn4   Zn    Zn3+2 0.075160 0.568130 0.006910 1.156591
Zn5   Zn    Zn3+2 0.930840 1.000000 0.430850 1.008258
Zn6   Zn    Zn3+2 0.069160 0.000000 0.569150 1.025976
S1    S     S_3+6 0.210636 0.637607 0.336045 0.028584
O25   O     O_2   0.219569 0.697659 0.298699 -0.294777
O26   O     O_2   0.119338 0.593059 0.317248 -0.329360
O27   O     O_3   0.279886 0.695405 0.444500 -0.518270
H22   H     H_    0.262322 0.738174 0.467195 0.387676
S2    S     S_3+6 0.794572 0.725926 0.607298 0.037152
O28   O     O_2   0.843807 0.687185 0.577348 -0.238904
O29   O     O_2   0.848741 0.824051 0.656751 -0.284861
O30   O     O_3   0.776931 0.692657 0.675314 -0.522431
H23   H     H_    0.755697 0.728852 0.702757 0.361335
S3    S     S_3+6 0.915025 0.508524 0.730311 0.065716
O31   O     O_2   0.989964 0.599491 0.796822 -0.242790
O32   O     O_2   0.939861 0.443108 0.742958 -0.325671
O33   O     O_3   0.890814 0.492715 0.629783 -0.530931
H24   H     H_    0.944454 0.501316 0.628182 0.394499
S4    S     S_3+6 0.317562 0.534859 0.130431 0.053263
O34   O     O_2   0.248660 0.468477 0.036782 -0.314875
O35   O     O_2   0.336870 0.625134 0.145876 -0.281061
O36   O     O_3   0.408015 0.527763 0.152598 -0.493075
H25   H     H_    0.428135 0.545912 0.116256 0.388091
S5    S     S_3+6 0.570964 0.706988 0.403333 0.012331
O37   O     O_2   0.515828 0.610277 0.340322 -0.297672
O38   O     O_2   0.533799 0.734457 0.458868 -0.310581
O39   O     O_3   0.573018 0.760804 0.347256 -0.525548
H26   H     H_    0.511529 0.742684 0.310358 0.407786

loop_
_geom_bond_atom_site_label_1
_geom_bond_atom_site_label_2
_ccdc_geom_bond_type
C27   H8    S    
C33   H15   S    
C4    C36   S    
C23   O21   A    
C27   C29   S    
C1    C8    S    
C20   O6    A    
O27   H22   S    
O23   Zn2   S    
C1    O1    A    
S5    O38   D    
S2    O28   D    
C7    C8    D    
C25   C28   S    
C39   S4    S    
O1    Zn1   S    
C29   C30   D    
C22   C32   S    
S3    O33   S    
C6    H21   S    
C20   O5    A    
C36   C37   S    
O19   Zn2   S    
O5    Zn3   S    
C5    C6    D    
C18   O2    A    
O21   Zn2   S    
C12   O18   A    
O6    Zn4   S    
C7    S5    S    
C11   H2    S    
O36   H25   S    
O12   Zn2   S    
O14   Zn5   S    
C20   C35   S    
C28   H10   S    
C4    C40   S    
C16   C17   D    
S4    O34   D    
C31   C33   S    
C18   C30   S    
C4    C12   S    
C9    C10   D    
O20   Zn1   S    
C5    H20   S    
C10   H1    S    
S4    O35   D    
O9    Zn5   S    
C34   O23   A    
O8    Zn4   S    
C32   H14   S    
S5    O37   D    
S2    O29   D    
C10   C21   S    
O16   Zn5   S    
C26   O16   A    
C18   O24   A    
C16   H6    S    
C39   C40   S    
C5    C7    S    
C9    S3    S    
C15   C26   S    
S1    O27   S    
C21   O8    A    
C25   O14   A    
O13   Zn6   S    
O4    Zn4   S    
C8    S2    S    
C37   C38   S    
C19   C38   S    
O11   Zn5   S    
C2    C38   S    
C31   C32   D    
C17   C23   S    
C19   O3    A    
C6    C24   S    
O2    Zn4   S    
S1    O26   D    
C26   O17   A    
C31   H13   S    
S3    O32   D    
C9    C11   S    
C21   O7    A    
O7    Zn3   S    
S4    O36   S    
C14   C16   S    
C34   O22   A    
C15   H5    S    
C3    C4    S    
C22   O10   A    
C13   H3    S    
S2    O30   S    
C24   O11   A    
C14   H4    S    
C29   H11   S    
O24   Zn3   S    
C30   H12   S    
C40   H17   S    
C23   O20   A    
C37   S1    S    
C35   H16   S    
C36   C39   S    
C17   H7    S    
C2    H18   S    
O17   Zn6   S    
O33   H24   S    
C25   O15   A    
C1    O12   A    
C2    C3    S    
C13   C34   S    
C11   C13   D    
C24   O13   A    
C38   C39   S    
C12   O19   A    
S1    O25   D    
C33   C35   D    
O3    Zn3   S    
C19   O4    A    
O18   Zn1   S    
S3    O31   D    
O15   Zn6   S    
C2    C40   S    
O22   Zn1   S    
O10   Zn6   S    
C3    C37   S    
C27   C28   D    
C14   C15   D    
O30   H23   S    
C22   O9    A    
S5    O39   S    
C36   H9    S    
O39   H26   S    
C3    H19   S    
