data_mof_unit_43874.cif
_audit_creation_date              2012-12-10T17:38:49-0500
_audit_creation_method            fapswitch 2.2
_symmetry_space_group_name_H-M    P1
_symmetry_Int_Tables_number       1
_space_group_crystal_system       triclinic
_cell_length_a                    12.318211
_cell_length_b                    13.149064
_cell_length_c                    23.507789
_cell_angle_alpha                 77.865398
_cell_angle_beta                  101.138679
_cell_angle_gamma                 116.55865
_cell_volume                      3308.24424155

loop_
_atom_site_label
_atom_site_type_symbol
_atom_type_description
_atom_site_fract_x
_atom_site_fract_y
_atom_site_fract_z
_atom_type_partial_charge
C1    C     C_R   0.854852 0.286383 0.505820 0.778865
C2    C     C_R   0.947191 0.296653 0.048731 -0.163096
C3    C     C_R   0.945172 0.295719 0.989302 -0.162502
C4    C     C_R   0.970863 0.397312 0.949423 -0.014339
C5    C     C_R   0.998689 0.500588 0.969777 -0.018370
C6    C     C_R   0.024461 0.602919 0.930157 -0.014888
C7    C     C_R   0.052230 0.705465 0.950938 -0.162241
C8    C     C_R   0.054408 0.706423 0.010383 -0.162827
C9    C     C_R   0.969504 0.398493 0.889491 0.531120
C10   C     C_R   0.022360 0.599969 0.870639 0.532519
C11   C     C_R   0.906286 0.517796 0.749139 -0.103801
C12   C     C_R   0.999269 0.499577 0.608935 0.793076
C13   C     C_R   0.907179 0.518047 0.689886 -0.223128
C14   C     C_R   0.997718 0.498906 0.671483 -0.038814
C15   C     C_R   0.086851 0.479045 0.713444 -0.216985
C16   C     C_R   0.085691 0.478806 0.772627 -0.104222
C17   C     C_R   0.995588 0.498306 0.790675 0.356484
C18   C     C_R   0.092181 0.481353 0.250667 -0.105224
C19   C     C_R   0.091254 0.480435 0.309991 -0.217862
C20   C     C_R   0.002514 0.502018 0.328455 -0.042704
C21   C     C_R   0.915350 0.525230 0.286486 -0.237520
C22   C     C_R   0.916443 0.526003 0.227240 -0.104044
C23   C     C_R   0.145060 0.713456 0.490097 0.831627
C24   C     C_R   0.004633 0.503863 0.209110 0.357177
C25   C     C_R   0.282856 0.015770 0.410827 -0.270348
C26   C     C_R   0.227887 0.834236 0.474953 -0.148537
C27   C     C_R   0.811982 0.086744 0.550344 -0.176631
C28   C     C_R   0.731227 0.972865 0.563968 -0.133494
C29   C     C_R   0.609015 0.934754 0.541026 -0.180728
C30   C     C_R   0.565624 0.009759 0.501731 0.101136
C31   C     C_R   0.651392 0.122481 0.482966 0.079404
C32   C     C_R   0.440375 0.975909 0.479531 0.079178
C33   C     C_R   0.405227 0.049750 0.434640 0.088562
C34   C     C_R   0.000812 0.500621 0.391056 0.780819
C35   C     C_R   0.493002 0.155370 0.412605 -0.203533
C36   C     C_R   0.614325 0.190861 0.435936 -0.187714
C37   C     C_R   0.348678 0.871042 0.500885 -0.327307
C38   C     C_R   0.194561 0.906373 0.428963 0.497158
C39   C     C_R   0.772694 0.163202 0.511193 -0.103761
C40   C     C_R   0.346927 0.329150 0.593434 -0.292511
C41   C     C_R   0.759171 0.644884 0.420884 0.095118
C42   C     C_R   0.662622 0.676473 0.403653 -0.246108
C43   C     C_R   0.559291 0.621871 0.433429 -0.194947
C44   C     C_R   0.551357 0.534451 0.481147 -0.004911
C45   C     C_R   0.030426 0.603706 0.110229 0.529702
C46   C     C_R   0.653067 0.505326 0.497332 0.286371
C47   C     C_R   0.447019 0.475146 0.513429 -0.034543
C48   C     C_R   0.446953 0.388558 0.560970 0.173497
C49   C     C_R   0.546760 0.361753 0.576060 -0.279425
C50   C     C_R   0.647408 0.418906 0.545097 -0.188486
C51   C     C_R   0.341908 0.497556 0.500914 0.021586
C52   C     C_R   0.246914 0.355545 0.578977 0.074714
C53   C     C_R   0.977090 0.402138 0.129027 0.531857
C54   C     C_R   0.974986 0.399207 0.069512 -0.014836
C55   C     C_R   0.000832 0.501549 0.029902 -0.018367
C56   C     C_R   0.028787 0.604841 0.050271 -0.013320
Cu1   Cu    Cu3+1 0.098270 0.475410 0.513370 0.937418
Cu2   Cu    Cu3+1 0.901730 0.524590 0.486630 0.942815
H1    H     H_    0.926927 0.216814 0.078284 0.189110
H2    H     H_    0.159823 0.462714 0.341292 0.159285
H3    H     H_    0.846102 0.542529 0.299351 0.156326
H4    H     H_    0.848306 0.543176 0.195351 0.143269
H5    H     H_    0.467877 0.210829 0.376927 0.147575
H6    H     H_    0.256349 0.072101 0.376285 0.156031
H7    H     H_    0.368851 0.814765 0.537408 0.169649
H8    H     H_    0.904733 0.115766 0.571798 0.153546
H9    H     H_    0.551726 0.845343 0.553691 0.133340
H10   H     H_    0.762748 0.914360 0.593935 0.150006
H11   H     H_    0.923484 0.215205 0.974755 0.189236
H12   H     H_    0.678926 0.271184 0.415242 0.171008
H13   H     H_    0.169348 0.310108 0.603855 0.123945
H14   H     H_    0.547372 0.295766 0.612463 0.159451
H15   H     H_    0.346226 0.262824 0.629822 0.144784
H16   H     H_    0.333845 0.561657 0.465564 0.122275
H17   H     H_    0.838694 0.687337 0.397481 0.158820
H18   H     H_    0.487332 0.649795 0.418206 0.138074
H19   H     H_    0.667866 0.743447 0.367055 0.156144
H20   H     H_    0.718959 0.392209 0.560526 0.207295
H21   H     H_    0.072444 0.785292 0.921380 0.189586
H22   H     H_    0.076161 0.786948 0.024935 0.188996
H23   H     H_    0.836133 0.532561 0.762861 0.142271
H24   H     H_    0.837083 0.533204 0.658604 0.163624
H25   H     H_    0.157680 0.463971 0.700620 0.159813
H26   H     H_    0.155173 0.464000 0.804536 0.142985
H27   H     H_    0.160909 0.464581 0.236913 0.141658
N1    N     N_R   0.004513 0.503325 0.148145 -0.468819
N2    N     N_R   0.995309 0.498843 0.851577 -0.469239
N3    N     N_R   0.246280 0.438190 0.533650 -0.180227
N4    N     N_R   0.754320 0.561190 0.466710 -0.211526
O1    O     O_R   0.972510 0.318130 0.516820 -0.574889
O2    O     O_2   0.950769 0.304532 0.167433 -0.539586
O3    O     O_2   0.941971 0.300144 0.869147 -0.539277
O4    O     O_2   0.048302 0.697470 0.832178 -0.539648
O5    O     O_R   0.806530 0.359650 0.494230 -0.603898
O6    O     O_R   0.082990 0.479200 0.593420 -0.584046
O7    O     O_R   0.917010 0.520720 0.570830 -0.601221
O8    O     O_R   0.193470 0.640350 0.505770 -0.594073
O9    O     O_R   0.027490 0.681870 0.483180 -0.534454
O10   O     O_R   0.082990 0.479280 0.429170 -0.583580
O11   O     O_R   0.917010 0.520800 0.406580 -0.596953
O12   O     O_2   0.058426 0.702151 0.130593 -0.544747
O13   O     O_3   0.076352 0.870113 0.401382 -0.575347
C57   C     C_3   0.073228 0.837295 0.347422 -0.302799
H28   H     H_    0.978101 0.805848 0.325685 0.180497
H29   H     H_    0.101775 0.765970 0.353992 0.147703
H30   H     H_    0.130798 0.911281 0.317312 0.169896

loop_
_geom_bond_atom_site_label_1
_geom_bond_atom_site_label_2
_ccdc_geom_bond_type
C41   N4    A    
C55   C56   A    
C1    O1    A    
C41   C42   A    
C35   C36   A    
Cu2   O9    S    
C51   H16   S    
C8    C56   A    
C7    C8    A    
C46   N4    A    
C53   C54   A    
C11   H23   S    
C18   C24   A    
C28   C29   A    
C28   H10   S    
C31   C36   A    
C5    C6    A    
C41   H17   S    
C15   C16   A    
Cu1   O10   S    
C16   H26   S    
C40   H15   S    
C18   C19   A    
C23   C26   S    
Cu2   O7    S    
C29   H9    S    
C19   C20   A    
C45   C56   A    
C36   H12   S    
C1    O5    A    
C49   H14   S    
C37   H7    S    
C53   O2    S    
C34   O11   A    
C12   O6    A    
C53   N1    A    
C8    H22   S    
C21   H3    S    
C44   C47   A    
C20   C34   S    
C21   C22   A    
C50   H20   S    
C9    O3    S    
C44   C46   A    
C10   N2    A    
C18   H27   S    
Cu1   O1    S    
C52   N3    A    
Cu2   O11   S    
C2    C54   A    
C27   C39   A    
C2    H1    S    
C26   C38   A    
C15   H25   S    
C10   O4    S    
C40   C52   A    
C13   H24   S    
C25   H6    S    
C43   C44   A    
C29   C30   A    
C25   C38   A    
C22   H4    S    
C47   C48   A    
C30   C31   A    
Cu1   O8    S    
C34   O10   A    
C57   H29   S    
C32   C37   A    
C45   O12   S    
C48   C49   A    
C23   O8    A    
C12   C14   S    
C22   C24   A    
C42   C43   A    
C3    C4    A    
C57   H28   S    
C7    H21   S    
C43   H18   S    
C40   C48   A    
C54   C55   A    
C11   C17   A    
C3    H11   S    
C17   N2    S    
C5    C55   A    
C4    C5    A    
C51   N3    A    
C6    C10   A    
C47   C51   A    
C26   C37   A    
C6    C7    A    
C19   H2    S    
C46   C50   A    
Cu1   N3    S    
C32   C33   A    
C45   N1    A    
Cu2   O5    S    
C38   O13   S    
C27   H8    S    
C9    N2    A    
C30   C32   A    
C11   C13   A    
Cu1   Cu2   S    
C16   C17   A    
C33   C35   A    
C31   C39   A    
C2    C3    A    
C57   H30   S    
O13   C57   S    
Cu2   N4    S    
C1    C39   S    
C23   O9    A    
C20   C21   A    
C42   H19   S    
C49   C50   A    
Cu1   O6    S    
C27   C28   A    
C52   H13   S    
C14   C15   A    
C12   O7    A    
C35   H5    S    
C4    C9    A    
C13   C14   A    
C24   N1    S    
C25   C33   A    
