data_mof_unit_39419.cif
_audit_creation_date              2012-12-10T18:12:41-0500
_audit_creation_method            fapswitch 2.2
_symmetry_space_group_name_H-M    P1
_symmetry_Int_Tables_number       1
_space_group_crystal_system       triclinic
_cell_length_a                    12.816977
_cell_length_b                    13.07413
_cell_length_c                    15.63649
_cell_angle_alpha                 94.706879
_cell_angle_beta                  102.395523
_cell_angle_gamma                 80.684444
_cell_volume                      2522.34487405

loop_
_atom_site_label
_atom_site_type_symbol
_atom_type_description
_atom_site_fract_x
_atom_site_fract_y
_atom_site_fract_z
_atom_type_partial_charge
C1    C     C_R   0.438878 0.690315 0.484394 0.886466
C2    C     C_R   0.595608 0.195934 0.508435 -0.073948
C3    C     C_R   0.293383 0.841699 0.471991 -0.269631
C4    C     C_R   0.500999 0.501695 0.661612 0.908225
C5    C     C_R   0.261066 0.948527 0.470320 0.451210
C6    C     C_R   0.336986 0.013243 0.468519 -0.266719
C7    C     C_R   0.444451 0.971046 0.462528 0.022788
C8    C     C_R   0.469540 0.863359 0.447298 0.077559
C9    C     C_R   0.528758 0.031433 0.472908 0.108773
C10   C     C_R   0.630706 0.986671 0.454819 0.139446
C11   C     C_R   0.646125 0.884035 0.422876 -0.212770
C12   C     C_3   0.487851 0.521735 0.916431 0.173474
C13   C     C_R   0.565705 0.823192 0.417945 -0.159874
C14   C     C_R   0.515702 0.134164 0.504460 -0.237292
C15   C     C_R   0.698481 0.149512 0.497186 -0.146616
C16   C     C_R   0.560974 0.308349 0.510415 0.862685
C17   C     C_R   0.399017 0.798920 0.464446 -0.188278
C18   C     C_R   0.083185 0.402424 0.338859 -0.141234
C19   C     C_R   0.809108 0.576280 0.631263 0.056022
C20   C     C_R   0.913139 0.538457 0.673397 -0.206763
C21   C     C_R   0.986416 0.491681 0.623093 -0.027473
C22   C     C_R   0.961207 0.498218 0.531314 0.039866
C23   C     C_3   0.507157 0.425475 0.025398 -0.184419
C24   C     C_R   0.850717 0.514147 0.492391 0.031682
C25   C     C_R   0.039712 0.474479 0.477865 -0.170061
C26   C     C_R   0.005445 0.444714 0.388183 -0.064367
C27   C     C_R   0.894391 0.452814 0.351272 0.399194
C28   C     C_R   0.497166 0.501921 0.338305 0.902711
C29   C     C_R   0.820709 0.466785 0.407672 -0.107181
C30   C     C_R   0.149523 0.488624 0.507006 0.519505
C31   C     C_R   0.191445 0.398914 0.375589 -0.082336
C32   C     C_3   0.381594 0.562537 0.008032 -0.153418
C33   C     C_3   0.457624 0.620387 0.971165 -0.177982
C34   C     C_3   0.477232 0.523851 0.080598 0.167889
C35   C     C_1   0.500601 0.509622 0.751278 -0.134138
C36   C     C_1   0.487112 0.511803 0.248301 -0.089942
C37   C     C_3   0.411789 0.464022 0.951124 -0.122440
C38   C     C_2   0.770060 0.373473 0.405889 0.578975
C39   C     C_3   0.583092 0.483209 0.989187 -0.143904
C40   C     C_3   0.553066 0.581711 0.045723 -0.107198
C41   C     C_1   0.495734 0.516407 0.826353 -0.033801
C42   C     C_1   0.478855 0.519562 0.172036 -0.034727
C43   C     C_R   0.715791 0.045265 0.469583 -0.140699
H1    H     H_    0.437771 0.699991 0.946682 0.155421
H2    H     H_    0.062900 0.452249 0.656139 0.189647
H3    H     H_    0.935367 0.541198 0.744263 0.158117
H4    H     H_    0.610569 0.630135 0.086430 0.183710
H5    H     H_    0.665672 0.450762 0.979812 0.171997
H6    H     H_    0.527057 0.345632 0.049425 0.158072
H7    H     H_    0.354305 0.415735 0.910205 0.161772
H8    H     H_    0.765006 0.192504 0.508271 0.162454
H9    H     H_    0.721403 0.849918 0.404225 0.172918
H10   H     H_    0.794959 0.010948 0.458602 0.195490
H11   H     H_    0.045253 0.897039 0.383739 0.353015
H12   H     H_    0.442329 0.168720 0.525059 0.167199
H13   H     H_    0.685814 0.412775 0.172702 0.386109
H14   H     H_    0.289049 0.690325 0.656545 0.372243
H15   H     H_    0.791582 0.330136 0.464036 0.023405
H16   H     H_    0.236742 0.792575 0.481080 0.242363
H17   H     H_    0.309369 0.095688 0.469835 0.175919
H18   H     H_    0.580025 0.744223 0.391659 0.177657
H19   H     H_    0.251269 0.368174 0.337130 0.164933
H20   H     H_    0.062328 0.370587 0.272593 0.222954
H21   H     H_    0.750073 0.607276 0.670222 0.143939
H22   H     H_    0.299233 0.594885 0.017940 0.155130
N1    N     N_R   0.222180 0.444680 0.455580 -0.157065
N2    N     N_R   0.776980 0.554790 0.543960 -0.127064
O1    O     O_R   0.366730 0.627160 0.478790 -0.545641
O2    O     O_2   0.090080 0.094520 0.422451 -0.304212
O3    O     O_3   0.044134 0.913452 0.446548 -0.523607
O4    O     O_2   0.904199 0.492471 0.187199 -0.296666
O5    O     O_2   0.872503 0.318458 0.212083 -0.295824
O6    O     O_3   0.714809 0.471555 0.208884 -0.539695
O7    O     O_2   0.087297 0.652043 0.614789 -0.287595
O8    O     O_2   0.228194 0.514916 0.681429 -0.353977
O9    O     O_3   0.275814 0.654149 0.597880 -0.527692
O10   O     O_2   0.712650 0.340451 0.340126 -0.542800
O11   O     O_R   0.544830 0.662520 0.507160 -0.621292
O12   O     O_R   0.410960 0.482330 0.609040 -0.518052
O13   O     O_R   0.589060 0.517690 0.637410 -0.643771
O14   O     O_R   0.455170 0.337480 0.492840 -0.616982
O15   O     O_R   0.633270 0.372840 0.521210 -0.636675
O16   O     O_R   0.410940 0.482310 0.362590 -0.636775
O17   O     O_R   0.589040 0.517670 0.390960 -0.592849
O18   O     O_2   0.126811 0.036819 0.572223 -0.246963
S1    S     S_3+6 0.128051 0.002160 0.478391 0.033070
S2    S     S_3+6 0.847989 0.432189 0.236596 0.036420
S3    S     S_3+6 0.185298 0.577225 0.601321 0.032371
Zn1   Zn    Zn3+2 0.381080 0.476390 0.481050 1.020419
Zn2   Zn    Zn3+2 0.618920 0.523610 0.518950 0.949199

loop_
_geom_bond_atom_site_label_1
_geom_bond_atom_site_label_2
_ccdc_geom_bond_type
C40   H4    S    
C8    C13   A    
C28   O17   A    
C36   C42   T    
C19   C20   A    
C18   C26   A    
C7    C8    A    
O18   S1    D    
O11   Zn2   S    
C26   C27   A    
C34   C40   S    
H14   O9    S    
C4    O13   A    
C5    C6    A    
C18   H20   S    
C23   H6    S    
C27   C29   A    
C1    O1    A    
C12   C37   S    
C24   C29   A    
O6    S2    S    
C11   H9    S    
C24   N2    A    
C38   H15   S    
C43   H10   S    
C22   C25   A    
C34   C42   S    
C29   C38   S    
C19   N2    A    
C15   H8    S    
C2    C16   S    
C9    C10   A    
O9    S3    S    
O14   Zn1   S    
C14   H12   S    
C4    C35   S    
C21   C22   A    
C28   O16   A    
C1    O11   A    
C33   H1    S    
C31   H19   S    
O17   Zn2   S    
C2    C14   A    
N1    Zn1   S    
C21   H2    S    
O16   Zn1   S    
C33   C40   S    
C6    H17   S    
C4    O12   A    
C39   C40   S    
C25   C26   A    
C23   C37   S    
N2    Zn2   S    
C32   C34   S    
C9    C14   A    
C12   C41   S    
H11   O3    S    
C19   H21   S    
C23   C34   S    
C16   O15   A    
O1    Zn1   S    
C32   C37   S    
C27   S2    S    
C2    C15   A    
C30   N1    A    
O4    S2    D    
C5    S1    S    
C22   C24   A    
C30   S3    S    
O3    S1    S    
O5    S2    D    
C25   C30   A    
C7    C9    A    
H13   O6    S    
C10   C43   A    
C31   N1    A    
C3    C5    A    
C6    C7    A    
C38   O10   D    
C1    C17   S    
C8    C17   A    
O15   Zn2   S    
C32   C33   S    
C12   C39   S    
C15   C43   A    
C37   H7    S    
C11   C13   A    
C23   C39   S    
C16   O14   A    
C3    C17   A    
O13   Zn2   S    
C35   C41   T    
O12   Zn1   S    
C10   C11   A    
O8    S3    D    
C13   H18   S    
C20   C21   A    
C28   C36   S    
C39   H5    S    
C18   C31   A    
O7    S3    D    
C12   C33   S    
C20   H3    S    
O2    S1    D    
C32   H22   S    
C3    H16   S    
