data_mof_unit_48693.cif
_audit_creation_date              2012-10-26T19:17:55-0400
_audit_creation_method            fapswitch 2.2
_symmetry_space_group_name_H-M    P1
_symmetry_Int_Tables_number       1
_space_group_crystal_system       triclinic
_cell_length_a                    10.801096
_cell_length_b                    12.313847
_cell_length_c                    13.219378
_cell_angle_alpha                 116.695275
_cell_angle_beta                  77.169131
_cell_angle_gamma                 101.3456
_cell_volume                      1522.06566809

loop_
_atom_site_label
_atom_site_type_symbol
_atom_type_description
_atom_site_fract_x
_atom_site_fract_y
_atom_site_fract_z
_atom_type_partial_charge
C1    C     C_R   0.514335 0.854863 0.286658 0.522611
C2    C     C_R   0.291671 0.250495 0.295925 -0.120220
C3    C     C_R   0.369941 0.169157 0.205562 -0.102342
C4    C     C_R   0.737143 0.001106 0.502129 0.542915
C5    C     C_R   0.353816 0.045794 0.184535 -0.094507
C6    C     C_R   0.260634 0.003868 0.254910 -0.055297
C7    C     C_R   0.183284 0.085617 0.347377 0.050546
C8    C     C_R   0.321232 0.280624 0.017428 -0.144260
C9    C     C_R   0.457150 0.227295 0.834429 -0.005390
C10   C     C_R   0.631565 0.810138 0.093096 -0.144940
C11   C     C_R   0.678075 0.726026 0.985277 -0.153527
C12   C     C_R   0.631233 0.825380 0.789357 -0.094138
C13   C     C_R   0.629426 0.603444 0.947301 -0.132339
C14   C     C_R   0.526553 0.562867 0.014353 0.033305
C15   C     C_R   0.475650 0.650344 0.122764 0.023368
C16   C     C_R   0.481733 0.144945 0.713264 0.541417
C17   C     C_R   0.473519 0.438309 0.978151 0.030033
C18   C     C_R   0.372420 0.403461 0.050891 0.048637
C19   C     C_R   0.319533 0.491996 0.153911 -0.144826
C20   C     C_R   0.367462 0.613958 0.187515 -0.126841
C21   C     C_R   0.514564 0.347575 0.870079 -0.140359
C22   C     C_R   0.364017 0.192568 0.909730 -0.146919
C23   C     C_R   0.038600 0.953021 0.564839 -0.156939
C24   C     C_R   0.534872 0.772411 0.164470 -0.006896
C25   C     C_R   0.703240 0.345793 0.327234 -0.158150
C26   C     C_R   0.327210 0.759958 0.645981 0.047282
C27   C     C_R   0.288242 0.662615 0.676476 -0.171046
C28   C     C_R   0.262972 0.998687 0.497490 0.543133
C29   C     C_R   0.351763 0.558057 0.620004 -0.146611
C30   C     C_R   0.456121 0.549836 0.532115 0.005937
C31   C     C_R   0.492473 0.652063 0.503742 0.192588
C32   C     C_R   0.527007 0.445457 0.472754 0.008893
C33   C     C_R   0.631268 0.445375 0.385999 0.045441
C34   C     C_R   0.129387 0.997392 0.494771 -0.002342
C35   C     C_R   0.664300 0.545202 0.359105 -0.174143
C36   C     C_R   0.596985 0.646317 0.416991 -0.088152
C37   C     C_R   0.500973 0.341238 0.496594 0.055287
C38   C     C_R   0.672788 0.246567 0.354897 0.038153
C39   C     C_R   0.648479 0.949524 0.813301 -0.125286
C40   C     C_R   0.741631 0.993089 0.744417 -0.071089
C41   C     C_R   0.817642 0.912189 0.650281 0.015925
C42   C     C_R   0.801805 0.787896 0.627674 -0.057069
C43   C     C_R   0.709119 0.743523 0.697595 0.165175
C44   C     C_3   0.798017 0.553195 0.645669 -0.316381
C45   C     C_R   0.091136 0.043527 0.427435 -0.033532
C46   C     C_R   0.961766 0.046599 0.434121 -0.157196
C47   C     C_R   0.870926 0.002206 0.504292 -0.000599
C48   C     C_R   0.909364 0.955908 0.571352 -0.033968
C49   C     C_R   0.198352 0.209002 0.366563 -0.099376
Cu1   Cu    Cu3+1 0.529370 0.098270 0.475420 0.925025
Cu2   Cu    Cu3+1 0.470630 0.901730 0.524580 0.915438
H1    H     H_    0.556937 0.792981 0.842519 0.109080
H2    H     H_    0.676020 0.543235 0.865685 0.101468
H3    H     H_    0.756249 0.755125 0.932486 0.124017
H4    H     H_    0.588362 0.011829 0.884530 0.106112
H5    H     H_    0.317515 0.679483 0.264607 0.141339
H6    H     H_    0.727834 0.169263 0.309830 0.113300
H7    H     H_    0.744313 0.545905 0.293159 0.105289
H8    H     H_    0.782945 0.344995 0.260667 0.085721
H9    H     H_    0.423650 0.333348 0.561030 0.118834
H10   H     H_    0.277200 0.840655 0.690088 0.118874
H11   H     H_    0.317452 0.485483 0.647045 0.097594
H12   H     H_    0.443159 0.201745 0.151896 0.116630
H13   H     H_    0.208421 0.668169 0.744035 0.096272
H14   H     H_    0.631521 0.718653 0.391321 0.182689
H15   H     H_    0.752575 0.089177 0.762644 0.101215
H16   H     H_    0.858425 0.725815 0.553026 0.106322
H17   H     H_    0.068508 0.919257 0.617609 0.121785
H18   H     H_    0.931768 0.080193 0.381273 0.122228
H19   H     H_    0.140102 0.273411 0.437755 0.099219
H20   H     H_    0.304419 0.346024 0.312107 0.111113
H21   H     H_    0.611643 0.592132 0.723909 0.247356
H22   H     H_    0.766424 0.457872 0.635621 0.148110
H23   H     H_    0.414389 0.982883 0.114427 0.100621
H24   H     H_    0.856659 0.600109 0.716013 0.128414
H25   H     H_    0.856484 0.547958 0.563581 0.150505
H26   H     H_    0.250399 0.908445 0.238919 0.086914
H27   H     H_    0.318633 0.099349 0.882745 0.117625
H28   H     H_    0.238710 0.467208 0.207704 0.098918
H29   H     H_    0.244579 0.253532 0.072818 0.110333
H30   H     H_    0.586774 0.368324 0.808796 0.111556
H31   H     H_    0.677219 0.903402 0.123445 0.121275
N1    N     N_R   0.573890 0.246290 0.438210 -0.229587
N2    N     N_R   0.426890 0.754320 0.561170 -0.232242
N3    N     N_2   0.687214 0.616382 0.672136 -0.517244
O1    O     O_R   0.536940 0.972510 0.318130 -0.501536
O2    O     O_R   0.487330 0.806530 0.359650 -0.526390
O3    O     O_R   0.705160 0.082990 0.479250 -0.512476
O4    O     O_R   0.655550 0.917010 0.520760 -0.506118
O5    O     O_R   0.512670 0.193470 0.640350 -0.509444
O6    O     O_R   0.463060 0.027490 0.681870 -0.503681
O7    O     O_R   0.344450 0.082990 0.479240 -0.487941
O8    O     O_R   0.294840 0.917010 0.520750 -0.520495

loop_
_geom_bond_atom_site_label_1
_geom_bond_atom_site_label_2
_ccdc_geom_bond_type
C1    O2    A    
C16   O5    A    
C38   N1    A    
C27   C29   A    
C41   C42   A    
C19   C20   A    
C20   H5    S    
H21   N3    S    
C45   C46   A    
C26   C27   A    
C35   H7    S    
C7    C45   S    
C26   H10   S    
C12   C43   A    
C30   C31   A    
C9    C22   A    
C18   C19   A    
C5    H23   S    
C44   H25   S    
C46   H18   S    
Cu2   O6    S    
C29   H11   S    
Cu1   O5    S    
C39   H4    S    
C35   C36   A    
C8    C22   A    
Cu1   O3    S    
C28   C34   S    
C40   H15   S    
C13   C14   A    
C14   C17   A    
C12   H1    S    
Cu1   N1    S    
C17   C18   A    
C13   H2    S    
C15   C20   A    
C43   N3    S    
C7    C49   A    
C27   H13   S    
Cu2   O2    S    
C39   C40   A    
C36   H14   S    
C6    H26   S    
C10   C24   A    
C10   H31   S    
C8    C18   A    
C31   N2    A    
C28   O8    A    
C23   H17   S    
C44   H24   S    
C29   C30   A    
C2    C49   A    
C25   C38   A    
C38   H6    S    
C47   C48   A    
C23   C34   A    
Cu1   Cu2   S    
C28   O7    A    
C34   C45   A    
C32   C37   A    
C19   H28   S    
C22   H27   S    
C11   H3    S    
Cu2   O8    S    
Cu1   O7    S    
C40   C41   A    
C21   H30   S    
C49   H19   S    
C42   H16   S    
C42   C43   A    
C44   N3    S    
C4    O4    A    
C1    O1    A    
C46   C47   A    
C15   C24   A    
C26   N2    A    
C23   C48   A    
C14   C15   A    
C9    C16   S    
C3    C5    A    
C6    C7    A    
C4    O3    A    
C3    H12   S    
C32   C33   A    
C12   C39   A    
C2    C3    A    
Cu2   O4    S    
C30   C32   A    
C11   C13   A    
C9    C21   A    
C5    C6    A    
C33   C35   A    
C41   C48   S    
C44   H22   S    
C17   C21   A    
C37   H9    S    
C10   C11   A    
Cu1   O1    S    
C16   O6    A    
C1    C24   S    
C8    H29   S    
C31   C36   A    
C37   N1    A    
C25   H8    S    
Cu2   N2    S    
C2    H20   S    
C25   C33   A    
C4    C47   S    
