data_mof_unit_20289.cif
_audit_creation_date              2013-03-05T16:04:07-0500
_audit_creation_method            fapswitch 2.2
_symmetry_space_group_name_H-M    P1
_symmetry_Int_Tables_number       1
_space_group_crystal_system       triclinic
_cell_length_a                    10.856356
_cell_length_b                    9.519013
_cell_length_c                    10.777417
_cell_angle_alpha                 90.001556
_cell_angle_beta                  90.090572
_cell_angle_gamma                 89.872423
_cell_volume                      1113.75345352

loop_
_atom_site_label
_atom_site_type_symbol
_atom_site_description
_atom_site_fract_x
_atom_site_fract_y
_atom_site_fract_z
_atom_type_partial_charge
O1    O     O_R   0.319640 0.618740 0.499990 -0.594052
O2    O     O_R   0.680360 0.618740 0.500010 -0.583490
O3    O     O_R   0.319620 0.381170 0.499990 -0.508773
O4    O     O_R   0.680380 0.381170 0.500010 -0.509500
C1    C     C_R   0.262291 0.499661 0.491667 0.838160
C2    C     C_R   0.738098 0.499121 0.506182 0.876965
O5    O     O_R   0.500000 0.618810 0.319650 -0.597459
O6    O     O_R   0.500000 0.618810 0.680350 -0.599843
O7    O     O_R   0.499970 0.381240 0.319640 -0.579475
O8    O     O_R   0.500030 0.381240 0.680360 -0.579689
C3    C     C_R   0.495585 0.499990 0.262517 0.790091
C4    C     C_R   0.494426 0.500120 0.737484 0.796335
Cu1   Cu    Cu3+1 0.500000 0.640660 0.500000 0.988766
Cu2   Cu    Cu3+1 0.500000 0.359340 0.500000 1.062263
H1    H     H_    0.637493 0.353245 0.112474 0.167464
H2    H     H_    0.636609 0.353288 0.887273 0.180870
C5    C     C_R   0.302429 0.653866 0.130116 -0.335324
C6    C     C_R   0.302977 0.657681 0.871726 -0.301680
H3    H     H_    0.295530 0.647821 0.229984 0.184872
H4    H     H_    0.299154 0.658773 0.771579 0.199930
C7    C     C_R   0.212542 0.731889 0.067073 0.279623
C8    C     C_R   0.214282 0.736277 0.936278 0.290409
C9    C     C_R   0.394935 0.580305 0.934937 0.043662
C10   C     C_R   0.395225 0.579603 0.065829 0.055980
C11   C     C_R   0.485853 0.499582 0.128880 -0.041147
C12   C     C_R   0.485136 0.500058 0.871281 -0.056862
C13   C     C_R   0.569437 0.416152 0.063871 -0.176646
C14   C     C_R   0.568954 0.416246 0.936039 -0.171864
C15   C     C_R   0.062843 0.370106 0.473127 0.267012
C16   C     C_R   0.939386 0.367734 0.509333 0.348976
C17   C     C_R   0.872751 0.496162 0.509217 -0.228553
C18   C     C_R   0.128130 0.497901 0.483575 -0.252384
C19   C     C_R   0.936346 0.623825 0.501807 -0.142952
C20   C     C_R   0.063535 0.624448 0.496248 -0.100798
H5    H     H_    0.888258 0.723630 0.504214 0.223352
H6    H     H_    0.110984 0.724365 0.499650 0.242487
C21   C     C_R   0.459284 0.074288 0.399093 0.097252
C22   C     C_R   0.540486 0.074086 0.600965 0.078435
H7    H     H_    0.426210 0.129457 0.318063 0.176994
H8    H     H_    0.572519 0.129102 0.682338 0.138907
C23   C     C_R   0.458036 0.925770 0.399577 0.037267
C24   C     C_R   0.541720 0.925570 0.600505 0.009735
H9    H     H_    0.423284 0.870592 0.319252 0.146978
H10   H     H_    0.576085 0.870194 0.680998 0.139638
N1    N     N_R   0.500000 0.852070 0.500000 -0.179316
N2    N     N_R   0.500000 0.147940 0.500000 -0.169234
N3    N     N_R   0.116951 0.799966 0.137171 0.158266
O9    O     O_R   0.140760 0.851042 0.246709 -0.314123
O10   O     O_R   0.003019 0.794458 0.099742 -0.283656
N4    N     N_R   0.129430 0.823084 0.867943 0.161557
O11   O     O_R   0.092987 0.785644 0.757765 -0.343213
O12   O     O_R   0.101659 0.948248 0.907838 -0.257265
S1    S     S_3+6 0.123977 0.223635 0.390154 0.091395
O13   O     O_2   0.192593 0.128673 0.477700 -0.205488
O14   O     O_2   0.022214 0.141526 0.329604 -0.180288
O15   O     O_3   0.220833 0.279594 0.278998 -0.540356
H11   H     H_    0.171448 0.345328 0.227698 0.338718
S2    S     S_3+6 0.880448 0.211460 0.578578 0.071378
O16   O     O_2   0.806601 0.129932 0.485155 -0.251103
O17   O     O_2   0.983992 0.120677 0.625468 -0.192731
O18   O     O_3   0.790472 0.254943 0.699647 -0.570831
H12   H     H_    0.788248 0.169990 0.752658 0.364360

loop_
_geom_bond_atom_site_label_1
_geom_bond_atom_site_label_2
_geom_bond_distance
_ccdc_geom_bond_type
C21   H7    1.079614 S    
H2    C14   1.083557 S    
N4    O12   1.301563 A    
O7    Cu2   1.954967 S    
C17   C19   1.401330 A    
S1    O13   1.502356 D    
C15   C16   1.396766 A    
C11   C13   1.394188 A    
C23   H9    1.080503 S    
C12   C14   1.395133 A    
N3    O9    1.302474 A    
O6    C4    1.288310 A    
C16   C17   1.419120 A    
C9    C10   1.410699 A    
C1    C18   1.459101 S    
C7    C8    1.410411 A    
S2    O18   1.682319 S    
N4    O11   1.301022 A    
S2    O16   1.502978 D    
Cu2   N2    2.012319 S    
O4    Cu2   1.969723 S    
Cu1   Cu2   2.677889 S    
C10   C11   1.415831 A    
C22   H8    1.078953 S    
O7    C3    1.287925 A    
O2    C2    1.300217 A    
O3    Cu2   1.968803 S    
C24   H10   1.080621 S    
O1    C1    1.297494 A    
C16   S2    1.784668 S    
O4    C2    1.288673 A    
C19   H5    1.083340 S    
C19   C20   1.382234 A    
C22   C24   1.413766 A    
C15   C18   1.413669 A    
C20   H6    1.083247 S    
S1    O14   1.502935 D    
C21   C23   1.413844 A    
O18   H12   0.990502 S    
O8    C4    1.289599 A    
C7    N3    1.437747 S    
C22   N2    1.366977 A    
C5    C10   1.411974 A    
O1    Cu1   1.969600 S    
C3    C11   1.443972 S    
S2    O17   1.503233 D    
C6    C9    1.413461 A    
O6    Cu1   1.954809 S    
O3    C1    1.290084 A    
C8    N4    1.438147 S    
O5    Cu1   1.954799 S    
O15   H11   0.991071 S    
Cu1   N1    2.012415 S    
C6    H4    1.080102 S    
N3    O10   1.301563 A    
O8    Cu2   1.954954 S    
S1    O15   1.682573 S    
C13   C14   1.377696 A    
C9    C12   1.418402 A    
O2    Cu1   1.968676 S    
C23   N1    1.366804 A    
O5    C3    1.288731 A    
C2    C17   1.462371 S    
C5    H3    1.080590 S    
C21   N2    1.367273 A    
C6    C8    1.403502 A    
H1    C13   1.084285 S    
C5    C7    1.400077 A    
C4    C12   1.445673 S    
C15   S1    1.783750 S    
C24   N1    1.366663 A    
C18   C20   1.399291 A    
