data_mof_unit_68469.cif
_audit_creation_date              2012-12-11T16:30:37-0500
_audit_creation_method            fapswitch 2.2
_symmetry_space_group_name_H-M    P1
_symmetry_Int_Tables_number       1
_space_group_crystal_system       triclinic
_cell_length_a                    7.025391
_cell_length_b                    15.488296
_cell_length_c                    15.838773
_cell_angle_alpha                 90.350278
_cell_angle_beta                  91.006649
_cell_angle_gamma                 90.753404
_cell_volume                      1722.98838364

loop_
_atom_site_label
_atom_site_type_symbol
_atom_type_description
_atom_site_fract_x
_atom_site_fract_y
_atom_site_fract_z
_atom_type_partial_charge
O1    O     O_R   0.611670 0.415650 0.164070 -0.558105
O2    O     O_R   0.388330 0.915650 0.835930 -0.551582
O3    O     O_R   0.940950 0.405490 0.337780 -0.512786
O4    O     O_R   0.059050 0.905490 0.662220 -0.529972
O5    O     O_R   0.111350 0.584350 0.338470 -0.517992
O6    O     O_R   0.888650 0.084350 0.661530 -0.515980
C1    C     C_R   0.774437 0.388971 0.372611 0.858928
C2    C     C_R   0.226752 0.881735 0.634592 0.785899
O7    O     O_R   0.941380 0.404630 0.164680 -0.529332
O8    O     O_R   0.058620 0.904630 0.835320 -0.554492
O9    O     O_R   0.111780 0.583470 0.164130 -0.541832
O10   O     O_R   0.888220 0.083470 0.835870 -0.536249
C3    C     C_R   0.768870 0.382055 0.136683 0.681038
C4    C     C_R   0.227311 0.877671 0.858591 0.650842
O11   O     O_R   0.611240 0.416530 0.338400 -0.545926
O12   O     O_R   0.388760 0.916530 0.661600 -0.554613
O13   O     O_3   0.778020 0.558680 0.251290 -0.366061
O14   O     O_3   0.221980 0.058680 0.748710 -0.325807
V1    V     V_3+5 0.052840 0.489110 0.251260 1.609219
V2    V     V_3+5 0.947160 0.989110 0.748740 1.574315
O15   O     O_R   0.441500 0.594510 0.164760 -0.535013
O16   O     O_R   0.558500 0.094510 0.835240 -0.521526
C5    C     C_R   0.272041 0.618205 0.136315 0.820381
C6    C     C_R   0.732980 0.118834 0.862318 0.847655
O17   O     O_R   0.441080 0.595370 0.337860 -0.529386
O18   O     O_R   0.558920 0.095370 0.662140 -0.509218
C7    C     C_R   0.271752 0.613882 0.370367 0.880331
C8    C     C_R   0.727103 0.113823 0.630039 0.887000
V3    V     V_3+5 0.552850 0.510890 0.251270 1.579797
V4    V     V_3+5 0.447150 0.010890 0.748730 1.603945
O19   O     O_3   0.277800 0.441320 0.251250 -0.390934
O20   O     O_3   0.722200 0.941320 0.748750 -0.408846
C9    C     C_3   0.062956 0.682940 0.495057 0.160858
C10   C     C_3   0.849848 0.159556 0.480848 0.101898
H1    H     H_    0.953288 0.716174 0.457070 0.196099
H2    H     H_    0.984190 0.130783 0.501451 0.213352
C11   C     C_3   0.077275 0.736467 0.579866 0.474333
C12   C     C_3   0.889288 0.237420 0.418449 0.417152
C13   C     C_3   0.252522 0.776331 0.401072 0.311271
C14   C     C_3   0.847472 0.266891 0.604324 0.305319
C15   C     C_3   0.422639 0.681977 0.504373 0.149369
C16   C     C_3   0.543912 0.223887 0.533382 0.158900
C17   C     C_3   0.252904 0.685277 0.441084 -0.357531
C18   C     C_3   0.741087 0.187541 0.562918 -0.368755
H3    H     H_    0.559900 0.677328 0.471465 0.216672
H4    H     H_    0.482653 0.262334 0.585198 0.237845
C19   C     C_3   0.233168 0.809520 0.565185 -0.327814
C20   C     C_3   0.768801 0.317444 0.444976 -0.270188
C21   C     C_3   0.203214 0.846611 0.472121 0.441007
C22   C     C_3   0.845172 0.345641 0.538671 0.476971
C23   C     C_3   0.429923 0.762194 0.565382 0.126340
C24   C     C_3   0.561032 0.282094 0.454242 0.106644
H5    H     H_    0.469076 0.740868 0.630137 0.165090
H6    H     H_    0.524064 0.242716 0.396911 0.180313
C25   C     C_R   0.011461 0.886802 0.014138 -0.281451
C26   C     C_R   0.929083 0.410199 0.972060 -0.212023
C27   C     C_R   0.001868 0.922479 0.094380 -0.183358
C28   C     C_R   0.046519 0.421751 0.903535 -0.039999
C29   C     C_R   0.126492 0.893977 0.156718 0.561978
C30   C     C_R   0.111628 0.350689 0.859363 0.446109
C31   C     C_R   0.232577 0.817909 0.141882 0.282125
C32   C     C_R   0.036645 0.267564 0.877115 0.284114
C33   C     C_R   0.191996 0.767284 0.070058 -0.095797
C34   C     C_R   0.880225 0.258228 0.933110 -0.058213
C35   C     C_R   0.132017 0.815925 0.999463 0.033193
C36   C     C_R   0.852706 0.328007 0.990867 0.000725
C37   C     C_R   0.262604 0.681704 0.060840 -0.140929
C38   C     C_R   0.758991 0.182300 0.936643 -0.115835
C39   C     C_R   0.334793 0.661475 0.979110 0.014888
C40   C     C_R   0.660474 0.168045 0.013472 0.002986
C41   C     C_R   0.337890 0.727617 0.914612 -0.009983
C42   C     C_R   0.646993 0.236506 0.074839 -0.001099
C43   C     C_R   0.229989 0.805085 0.923242 -0.070359
C44   C     C_R   0.749994 0.315687 0.065658 -0.079791
C45   C     C_R   0.415695 0.579600 0.961183 0.129920
C46   C     C_R   0.590680 0.084152 0.035101 0.132923
C47   C     C_R   0.514447 0.566908 0.885025 0.324128
C48   C     C_R   0.508972 0.070691 0.114850 0.310660
C49   C     C_R   0.537458 0.635560 0.829803 0.356506
C50   C     C_R   0.464749 0.141039 0.165142 0.365982
C51   C     C_R   0.446468 0.713650 0.842507 -0.276316
C52   C     C_R   0.532648 0.222837 0.145690 -0.268059
H7    H     H_    0.933172 0.918933 0.964941 0.203664
H8    H     H_    0.895884 0.466674 0.009354 0.128546
H9    H     H_    0.918121 0.979602 0.104799 0.187932
H10   H     H_    0.100326 0.485720 0.889300 0.180478
H11   H     H_    0.459560 0.762500 0.794423 0.154580
H12   H     H_    0.504857 0.273564 0.190529 0.184307
O21   O     O_3   0.573015 0.818297 0.537131 -0.556236
H13   H     H_    0.619209 0.854271 0.585120 0.361767
O22   O     O_3   0.432521 0.349937 0.461099 -0.556993
H14   H     H_    0.355125 0.351945 0.408216 0.360211
Br1   Br    Br    0.507836 0.795208 0.351491 -0.294234
Br2   Br    Br    0.731897 0.289683 0.716499 -0.435991
Br3   Br    Br    0.344427 0.949118 0.452551 -0.234858
Br4   Br    Br    0.687557 0.431022 0.585938 -0.182634
Br5   Br    Br    0.686249 0.620342 0.732465 -0.303684
Br6   Br    Br    0.333926 0.124485 0.268152 -0.344422
O23   O     O_3   0.148844 0.944582 0.228212 -0.542749
H15   H     H_    0.256553 0.922913 0.262669 0.416081
O24   O     O_3   0.256382 0.364701 0.803053 -0.576604
H16   H     H_    0.310955 0.308873 0.786016 0.376877
O25   O     O_3   0.398256 0.805865 0.186670 -0.605405
H17   H     H_    0.487108 0.770256 0.153764 0.310622
O26   O     O_3   0.140337 0.197943 0.851691 -0.613601
H18   H     H_    0.150088 0.158668 0.900845 0.287481
O27   O     O_3   0.393312 0.512376 0.016882 -0.656633
H19   H     H_    0.513164 0.479562 0.018956 0.282189
O28   O     O_3   0.618884 0.014513 0.982226 -0.667263
H20   H     H_    0.514344 0.971868 0.990114 0.288323
O29   O     O_3   0.589981 0.488418 0.862027 -0.577876
H21   H     H_    0.522855 0.441172 0.891354 0.328879
O30   O     O_3   0.482222 0.989455 0.147619 -0.599468
H22   H     H_    0.573566 0.949339 0.121952 0.319669
Br7   Br    Br    0.905686 0.584234 0.497455 -0.339552
Br8   Br    Br    0.727104 0.064296 0.421440 -0.220495
Br9   Br    Br    0.133609 0.668957 0.683323 -0.420714
Br10  Br    Br    0.844466 0.209654 0.296832 -0.479616
O31   O     O_3   0.897275 0.771372 0.592481 -0.602953
H23   H     H_    0.870952 0.776046 0.653573 0.337395
O32   O     O_3   0.081461 0.260271 0.425467 -0.612144
H24   H     H_    0.152662 0.220691 0.389050 0.372624
Br11  Br    Br    0.057528 0.772484 0.309800 -0.445930
Br12  Br    Br    0.102530 0.239356 0.645907 -0.352772
Br13  Br    Br    0.949140 0.892932 0.461160 -0.277867
Br14  Br    Br    0.089239 0.405402 0.537614 -0.213280
Br15  Br    Br    0.403564 0.574557 0.560626 -0.248726
Br16  Br    Br    0.353174 0.138712 0.511572 -0.390794

loop_
_geom_bond_atom_site_label_1
_geom_bond_atom_site_label_2
_ccdc_geom_bond_type
C33   C35   A    
C45   O27   S    
O24   H16   S    
C29   O23   S    
C15   Br15  S    
O29   H21   S    
O4    C2    A    
V1    O19   S    
C13   Br11  S    
C19   C21   S    
C32   O26   S    
O9    V1    S    
C34   C38   A    
C31   O25   S    
C46   C48   A    
O3    C1    A    
C26   H8    S    
C26   C36   A    
C27   C29   A    
C28   C30   A    
C36   C44   A    
C35   C43   A    
C30   C32   A    
C16   H4    S    
C5    C37   S    
C39   C41   A    
O7    C3    A    
C13   Br1   S    
C32   C34   A    
O13   V1    S    
O5    C7    A    
O7    V1    S    
O6    C8    A    
O8    V2    S    
C46   O28   S    
C47   O29   S    
O27   H19   S    
O3    V1    S    
C22   Br14  S    
C11   C19   S    
C12   C20   S    
C16   Br16  S    
C20   C22   S    
C2    O12   A    
C15   C17   S    
C16   C18   S    
C28   H10   S    
C25   C35   A    
C24   H6    S    
O11   V3    S    
C47   C49   A    
O17   V3    S    
C14   Br12  S    
C33   C37   A    
C9    Br7   S    
C29   C31   A    
C9    C17   S    
C4    C43   S    
C10   C18   S    
C42   C44   A    
O8    C4    A    
O22   H14   S    
C49   C51   A    
C13   C17   S    
C1    O11   A    
O15   V3    S    
C8    C18   S    
C9    C11   S    
C37   C39   A    
C34   C36   A    
O23   H15   S    
C11   O31   S    
C14   C18   S    
O10   V2    S    
O1    V3    S    
C48   C50   A    
C14   C22   S    
C21   Br3   S    
C45   C47   A    
O32   H24   S    
C51   H11   S    
O14   V4    S    
C50   C52   A    
C13   C21   S    
O18   V4    S    
O15   C5    A    
C40   C46   A    
O16   C6    A    
C48   O30   S    
O1    C3    A    
C25   H7    S    
C30   O24   S    
C21   Br13  S    
C41   C43   A    
O30   H22   S    
V2    O20   S    
O16   V4    S    
C50   Br6   S    
C10   C12   S    
C49   Br5   S    
C31   C33   A    
C14   Br2   S    
C19   C23   S    
O31   H23   S    
O5    V1    S    
C15   C23   S    
O17   C7    A    
O6    V2    S    
O26   H18   S    
O10   C6    A    
O18   C8    A    
O2    V4    S    
C1    C20   S    
C25   C27   A    
C2    C19   S    
V3    O19   S    
O13   V3    S    
C23   O21   S    
V4    O20   S    
C22   Br4   S    
C10   Br8   S    
C52   H12   S    
O9    C5    A    
C9    H1    S    
C10   H2    S    
C26   C28   A    
C39   C45   A    
O14   V2    S    
O2    C4    A    
C12   O32   S    
C6    C38   S    
O4    V2    S    
C7    C17   S    
C20   C24   S    
C11   Br9   S    
C3    C44   S    
C38   C40   A    
O25   H17   S    
C15   H3    S    
C24   O22   S    
C40   C42   A    
C23   H5    S    
O21   H13   S    
O28   H20   S    
O12   V4    S    
C27   H9    S    
C42   C52   A    
C12   Br10  S    
C16   C24   S    
C41   C51   A    
