data_mof_unit_30162.cif
_audit_creation_date              2012-12-11T16:48:33-0500
_audit_creation_method            fapswitch 2.2
_symmetry_space_group_name_H-M    P1
_symmetry_Int_Tables_number       1
_space_group_crystal_system       triclinic
_cell_length_a                    17.323422
_cell_length_b                    24.247404
_cell_length_c                    15.020065
_cell_angle_alpha                 90.327157
_cell_angle_beta                  125.418521
_cell_angle_gamma                 89.569585
_cell_volume                      5141.42838308

loop_
_atom_site_label
_atom_site_type_symbol
_atom_type_description
_atom_site_fract_x
_atom_site_fract_y
_atom_site_fract_z
_atom_type_partial_charge
Br1   Br    Br    0.602141 0.617458 0.357000 -0.653897
Br2   Br    Br    0.435423 0.605715 0.627570 -0.626347
Br3   Br    Br    0.102141 0.117458 0.357000 -0.653897
Br4   Br    Br    0.935423 0.105715 0.627570 -0.626347
C1    C     C_R   0.353521 0.347739 0.909460 -0.142096
C2    C     C_R   0.523425 0.496208 0.697539 0.010162
C3    C     C_R   0.057408 0.847062 0.908848 -0.131163
C4    C     C_R   0.381469 0.316092 0.999680 0.070979
C5    C     C_R   0.618515 0.315193 0.000178 0.078632
C6    C     C_R   0.881469 0.816092 0.999680 0.070979
C7    C     C_R   0.118515 0.815193 0.000178 0.078632
C8    C     C_R   0.069553 0.997583 0.367601 0.014576
C9    C     C_R   0.023425 0.996208 0.697539 0.010162
C10   C     C_R   0.202951 0.498316 0.633037 0.128575
C11   C     C_R   0.825178 0.497379 0.314359 0.120083
C12   C     C_R   0.702951 0.998317 0.633037 0.128575
C13   C     C_R   0.325178 0.997379 0.314359 0.120083
C14   C     C_2   0.977903 0.456556 0.382236 -0.109868
C15   C     C_2   0.079573 0.452977 0.466317 -0.115172
C16   C     C_2   0.477903 0.956556 0.382236 -0.109868
C17   C     C_R   0.646659 0.347354 0.090255 -0.151841
C18   C     C_2   0.579573 0.952977 0.466317 -0.115172
C19   C     C_2   0.926886 0.496909 0.386798 -0.197159
C20   C     C_2   0.128532 0.498746 0.516910 -0.171607
C21   C     C_2   0.426886 0.996909 0.386798 -0.197159
C22   C     C_2   0.628532 0.998746 0.516910 -0.171607
C23   C     C_R   0.257414 0.685347 0.101026 0.137587
C24   C     C_R   0.737413 0.690099 0.898888 0.127881
C25   C     C_R   0.757414 0.185347 0.101026 0.137587
C26   C     C_R   0.237413 0.190099 0.898888 0.127882
C27   C     C_R   0.236726 0.663959 0.002388 0.041862
C28   C     C_R   0.853521 0.847739 0.909460 -0.142096
C29   C     C_R   0.756457 0.670977 0.997751 0.046025
C30   C     C_R   0.736726 0.163959 0.002388 0.041862
C31   C     C_R   0.256457 0.170977 0.997751 0.046024
C32   C     C_R   0.150710 0.679992 0.905108 -0.185362
C33   C     C_R   0.843689 0.685082 0.094974 -0.186967
C34   C     C_R   0.650710 0.179992 0.905108 -0.185362
C35   C     C_R   0.343689 0.185082 0.094974 -0.186966
C36   C     C_R   0.602142 0.226471 0.905041 -0.198952
C37   C     C_R   0.395579 0.228859 0.094704 -0.194986
C38   C     C_R   0.102142 0.726471 0.905041 -0.198953
C39   C     C_R   0.146659 0.847354 0.090255 -0.151841
C40   C     C_R   0.895579 0.728859 0.094704 -0.194986
C41   C     C_R   0.639528 0.256459 0.002472 0.032796
C42   C     C_R   0.359568 0.258023 0.997129 0.034456
C43   C     C_R   0.139528 0.756459 0.002472 0.032796
C44   C     C_R   0.859568 0.758023 0.997129 0.034456
C45   C     C_R   0.398148 0.620585 0.089581 -0.108621
C46   C     C_R   0.597081 0.626986 0.910451 -0.146308
C47   C     C_R   0.898148 0.120585 0.089581 -0.108621
C48   C     C_R   0.097081 0.126986 0.910451 -0.146307
C49   C     C_R   0.709052 0.230853 0.100902 0.163042
C50   C     C_R   0.310033 0.635870 0.998929 0.035411
C51   C     C_R   0.288726 0.233099 0.898645 0.161495
C52   C     C_R   0.209052 0.730853 0.100902 0.163042
C53   C     C_R   0.788726 0.733099 0.898645 0.161496
C54   C     C_3   0.795340 0.253786 0.202843 -0.530597
C55   C     C_3   0.203853 0.257017 0.796102 -0.522535
C56   C     C_3   0.295340 0.753786 0.202843 -0.530597
C57   C     C_3   0.703854 0.757017 0.796102 -0.522536
C58   C     C_3   0.348592 0.704399 0.202961 -0.450933
C59   C     C_3   0.647661 0.710131 0.796296 -0.463780
C60   C     C_3   0.848591 0.204398 0.202961 -0.450933
C61   C     C_R   0.683432 0.643587 0.000785 0.040257
C62   C     C_3   0.147661 0.210131 0.796296 -0.463780
C63   C     C_R   0.559167 0.443040 0.587120 0.140021
C64   C     C_R   0.574154 0.442727 0.507110 0.137749
C65   C     C_R   0.059168 0.943040 0.587120 0.140021
C66   C     C_R   0.074154 0.942727 0.507110 0.137749
C67   C     C_R   0.565931 0.492243 0.639206 0.071615
C68   C     C_R   0.598018 0.491660 0.479176 0.050778
C69   C     C_R   0.065931 0.992243 0.639206 0.071615
C70   C     C_R   0.098018 0.991660 0.479176 0.050777
C71   C     C_R   0.613783 0.536729 0.632941 -0.169441
C72   C     C_R   0.810033 0.135870 0.998929 0.035411
C73   C     C_R   0.631453 0.536034 0.553302 -0.155968
C74   C     C_R   0.113782 0.036729 0.632941 -0.169441
C75   C     C_R   0.131453 0.036034 0.553302 -0.155968
C76   C     C_3   0.494134 0.402978 0.438851 -0.490543
C77   C     C_3   0.478956 0.403251 0.528052 -0.489261
C78   C     C_3   0.994135 0.902978 0.438852 -0.490543
C79   C     C_3   0.978956 0.903251 0.528053 -0.489261
C80   C     C_R   0.551060 0.452867 0.301826 -0.204069
C81   C     C_R   0.507869 0.451458 0.740377 -0.191499
C82   C     C_R   0.051060 0.952867 0.301827 -0.204069
C83   C     C_R   0.183432 0.143587 0.000785 0.040257
C84   C     C_R   0.007869 0.951458 0.740377 -0.191499
C85   C     C_R   0.247757 0.544515 0.695465 -0.135597
C86   C     C_R   0.768908 0.544134 0.278948 -0.109149
C87   C     C_R   0.747757 0.044515 0.695465 -0.135596
C88   C     C_R   0.268908 0.044133 0.278948 -0.109149
C89   C     C_R   0.553879 0.544475 0.305612 0.291034
C90   C     C_R   0.493889 0.543312 0.723317 0.274714
C91   C     C_R   0.053879 0.044475 0.305612 0.291034
C92   C     C_R   0.993888 0.043312 0.723317 0.274713
C93   C     C_R   0.248256 0.452853 0.698116 -0.109895
C94   C     C_R   0.569552 0.497582 0.367601 0.014576
C95   C     C_R   0.767421 0.451853 0.269378 -0.123133
C96   C     C_R   0.748256 0.952853 0.698116 -0.109895
C97   C     C_R   0.267421 0.951853 0.269378 -0.123133
C98   C     C_R   0.308988 0.624196 0.907323 -0.110945
C99   C     C_R   0.686006 0.630038 0.092059 -0.093480
C100  C     C_R   0.808988 0.124196 0.907323 -0.110945
C101  C     C_R   0.186006 0.130038 0.092059 -0.093481
C102  C     C_R   0.441937 0.347876 0.091432 -0.115561
C103  C     C_R   0.557408 0.347062 0.908848 -0.131163
C104  C     C_R   0.941937 0.847877 0.091432 -0.115561
H1    H     H_    0.320365 0.333589 0.826645 0.102290
H2    H     H_    0.455680 0.243763 0.172373 0.126477
H3    H     H_    0.043294 0.742168 0.827228 0.127299
H4    H     H_    0.955680 0.743763 0.172374 0.126477
H5    H     H_    0.403125 0.716208 0.189694 0.215311
H6    H     H_    0.593544 0.724597 0.808893 0.212231
H7    H     H_    0.903125 0.216208 0.189694 0.215310
H8    H     H_    0.093544 0.224597 0.808893 0.212231
H9    H     H_    0.373746 0.676369 0.273233 0.224277
H10   H     H_    0.621498 0.681284 0.726640 0.222722
H11   H     H_    0.873746 0.176368 0.273233 0.224276
H12   H     H_    0.679900 0.333182 0.172932 0.102057
H13   H     H_    0.121498 0.181284 0.726640 0.222722
H14   H     H_    0.629857 0.573399 0.682210 0.149976
H15   H     H_    0.662791 0.571956 0.545187 0.192305
H16   H     H_    0.129856 0.073399 0.682209 0.149977
H17   H     H_    0.162791 0.071956 0.545187 0.192305
H18   H     H_    0.433405 0.421277 0.361388 0.210748
H19   H     H_    0.496395 0.363052 0.571104 0.185552
H20   H     H_    0.933405 0.921277 0.361389 0.210748
H21   H     H_    0.996396 0.863051 0.571105 0.185552
H22   H     H_    0.519197 0.362364 0.429878 0.186355
H23   H     H_    0.820366 0.833589 0.826645 0.102290
H24   H     H_    0.409955 0.421750 0.502292 0.212514
H25   H     H_    0.019197 0.862364 0.429878 0.186356
H26   H     H_    0.909956 0.921750 0.502292 0.212514
H27   H     H_    0.419952 0.619556 0.172492 0.150269
H28   H     H_    0.572699 0.631323 0.827888 0.156424
H29   H     H_    0.919952 0.119556 0.172492 0.150269
H30   H     H_    0.072699 0.131323 0.827888 0.156424
H31   H     H_    0.570104 0.410384 0.327201 0.123320
H32   H     H_    0.520511 0.408463 0.734046 0.124068
H33   H     H_    0.070105 0.910384 0.327201 0.123320
H34   H     H_    0.179900 0.833182 0.172932 0.102057
H35   H     H_    0.020511 0.908463 0.734046 0.124068
H36   H     H_    0.238285 0.586205 0.665284 0.120721
H37   H     H_    0.791827 0.585589 0.308610 0.108794
H38   H     H_    0.738285 0.086205 0.665284 0.120722
H39   H     H_    0.291827 0.085589 0.308610 0.108794
H40   H     H_    0.240432 0.410400 0.671944 0.086956
H41   H     H_    0.787533 0.408799 0.284778 0.096979
H42   H     H_    0.740432 0.910400 0.671944 0.086956
H43   H     H_    0.287533 0.908799 0.284778 0.096979
H44   H     H_    0.251113 0.629940 0.822575 0.096971
H45   H     H_    0.127595 0.661816 0.827464 0.127551
H46   H     H_    0.740470 0.640684 0.175345 0.094844
H47   H     H_    0.751113 0.129940 0.822575 0.096971
H48   H     H_    0.240470 0.140684 0.175345 0.094844
H49   H     H_    0.486690 0.334162 0.175296 0.084881
H50   H     H_    0.511142 0.332644 0.825557 0.084210
H51   H     H_    0.986690 0.834162 0.175296 0.084881
H52   H     H_    0.011142 0.832644 0.825557 0.084210
H53   H     H_    0.943637 0.422410 0.325333 0.128529
H54   H     H_    0.107779 0.412324 0.499584 0.125083
H55   H     H_    0.443637 0.922410 0.325333 0.128529
H56   H     H_    0.865992 0.667583 0.172613 0.126371
H57   H     H_    0.607779 0.912324 0.499584 0.125082
H58   H     H_    0.959529 0.530489 0.445329 0.135484
H59   H     H_    0.101683 0.538870 0.478780 0.137051
H60   H     H_    0.459529 0.030489 0.445329 0.135483
H61   H     H_    0.601683 0.038870 0.478780 0.137051
H62   H     H_    0.819972 0.293104 0.189585 0.201279
H63   H     H_    0.181000 0.297616 0.808425 0.205618
H64   H     H_    0.319972 0.793104 0.189585 0.201279
H65   H     H_    0.681000 0.797616 0.808425 0.205618
H66   H     H_    0.789230 0.253947 0.272557 0.204336
H67   H     H_    0.627595 0.161816 0.827464 0.127551
H68   H     H_    0.210158 0.255039 0.726577 0.201390
H69   H     H_    0.289231 0.753947 0.272557 0.204336
H70   H     H_    0.710159 0.755038 0.726577 0.201390
H71   H     H_    0.365992 0.167583 0.172613 0.126371
H72   H     H_    0.543294 0.242168 0.827228 0.127299
N1    N     N_R   0.395410 0.396350 0.944340 -0.040520
N2    N     N_R   0.474920 0.471030 0.794350 -0.052687
N3    N     N_R   0.025080 0.971030 0.205650 -0.055695
N4    N     N_R   0.974920 0.971030 0.794350 -0.052687
N5    N     N_R   0.320260 0.527820 0.794570 -0.044564
N6    N     N_R   0.679740 0.527820 0.205430 -0.037860
N7    N     N_R   0.820260 0.027820 0.794570 -0.044564
N8    N     N_R   0.179740 0.027820 0.205430 -0.037860
N9    N     N_R   0.524590 0.527840 0.205200 -0.069948
N10   N     N_R   0.475410 0.527840 0.794800 -0.063192
N11   N     N_R   0.024590 0.027840 0.205200 -0.069948
N12   N     N_R   0.604590 0.396350 0.055660 -0.039551
N13   N     N_R   0.975410 0.027840 0.794800 -0.063192
N14   N     N_R   0.320750 0.471000 0.795020 -0.047045
N15   N     N_R   0.679250 0.471000 0.204980 -0.047190
N16   N     N_R   0.820750 0.971000 0.795020 -0.047045
N17   N     N_R   0.179250 0.971000 0.204980 -0.047190
N18   N     N_R   0.393620 0.602490 0.942710 -0.043333
N19   N     N_R   0.606380 0.602490 0.057290 -0.037916
N20   N     N_R   0.893620 0.102490 0.942710 -0.043333
N21   N     N_R   0.106380 0.102490 0.057290 -0.037916
N22   N     N_R   0.451720 0.396350 0.057510 -0.039018
N23   N     N_R   0.895410 0.896350 0.944340 -0.040520
N24   N     N_R   0.548280 0.396350 0.942490 -0.038552
N25   N     N_R   0.951720 0.896350 0.057510 -0.039018
N26   N     N_R   0.048280 0.896350 0.942490 -0.038552
N27   N     N_R   0.104590 0.896350 0.055660 -0.039551
N28   N     N_R   0.449930 0.602500 0.055880 -0.034350
N29   N     N_R   0.550070 0.602500 0.944120 -0.041719
N30   N     N_R   0.949930 0.102500 0.055880 -0.034350
N31   N     N_R   0.050070 0.102500 0.944120 -0.041719
N32   N     N_R   0.525080 0.471030 0.205650 -0.055695
Ni1   Ni    Ni4+2 0.435420 0.434270 0.870230 0.202989
Ni2   Ni    Ni4+2 0.564580 0.434270 0.129770 0.200915
Ni3   Ni    Ni4+2 0.935420 0.934270 0.870230 0.202989
Ni4   Ni    Ni4+2 0.064580 0.934270 0.129770 0.200915
Ni5   Ni    Ni4+2 0.563430 0.564580 0.128740 0.265108
Ni6   Ni    Ni4+2 0.436570 0.564580 0.871260 0.249887
Ni7   Ni    Ni4+2 0.063430 0.064580 0.128740 0.265108
Ni8   Ni    Ni4+2 0.936570 0.064580 0.871260 0.249887

loop_
_geom_bond_atom_site_label_1
_geom_bond_atom_site_label_2
_ccdc_geom_bond_type
N26   Ni3   S    
C72   C100  A    
N13   Ni8   S    
C67   C71   A    
C5    C41   S    
C81   N2    A    
C51   C55   S    
N7    N16   A    
C71   H14   S    
N4    N13   A    
C32   C38   A    
N1    N22   A    
N19   Ni5   S    
N5    N14   A    
C23   C52   A    
N14   Ni1   S    
C29   C61   S    
C44   C53   A    
C35   C37   A    
C104  H51   S    
C68   C94   S    
C24   C53   A    
C3    C7    A    
N31   Ni8   S    
C95   H41   S    
C2    C81   A    
C62   H8    S    
C26   C31   A    
C65   C79   S    
N29   Ni6   S    
N23   Ni3   S    
C54   H62   S    
C79   H21   S    
C17   H12   S    
C8    C70   S    
C98   N18   A    
C55   C62   S    
C14   H53   S    
C97   N17   A    
C84   N4    A    
C102  N22   A    
C16   C21   D    
C45   C50   A    
C95   N15   A    
N3    Ni4   S    
C56   C58   S    
C14   C15   S    
C10   C20   S    
C57   C59   S    
C13   C97   A    
N15   Ni2   S    
Br4   C92   S    
C59   H6    S    
C7    C43   S    
C22   H61   S    
C58   H9    S    
C83   C101  A    
C42   C51   A    
C66   C70   A    
N2    Ni1   S    
C48   H30   S    
C37   C42   A    
C8    C91   A    
C7    C39   A    
C76   H18   S    
C74   H16   S    
C84   H35   S    
C28   H23   S    
C91   N11   A    
C11   C19   S    
C75   H17   S    
C25   C60   S    
C41   C49   A    
C57   H70   S    
C27   C50   S    
C60   H7    S    
C36   H72   S    
C77   H19   S    
C88   H39   S    
C54   C60   S    
C100  N20   A    
N18   Ni6   S    
C13   C88   A    
C31   C83   S    
C3    N26   A    
C55   H63   S    
N10   Ni6   S    
C1    N1    A    
C46   C61   A    
N9    Ni5   S    
C32   H45   S    
C4    C42   S    
N7    Ni8   S    
C96   N16   A    
C21   H60   S    
C12   C22   S    
C36   C41   A    
C54   H66   S    
N6    Ni5   S    
C69   C74   A    
C76   H22   S    
C6    C104  A    
C9    C92   A    
C39   N27   A    
C63   C64   A    
C56   H64   S    
N6    N15   A    
Br2   C90   S    
C20   H59   S    
C57   H65   S    
C47   C72   A    
C46   N29   A    
C58   H5    S    
C55   H68   S    
N5    Ni6   S    
N11   Ni7   S    
C59   H10   S    
C13   C21   S    
N26   N27   A    
C12   C96   A    
C17   N12   A    
C3    H52   S    
C86   N6    A    
C2    C90   A    
C56   H69   S    
C16   H55   S    
C23   C27   A    
C25   C30   A    
C97   H43   S    
C29   C33   A    
N30   Ni7   S    
C52   C56   S    
C4    C102  A    
N19   N29   A    
C15   H54   S    
C93   N14   A    
C31   C35   A    
C38   H3    S    
C90   N10   A    
C10   C85   A    
C68   C73   A    
C73   H15   S    
C23   C58   S    
C48   N31   A    
C19   H58   S    
N23   N25   A    
C99   H46   S    
C101  N21   A    
C14   C19   D    
C18   H57   S    
C45   N28   A    
C64   C68   A    
C80   N32   A    
N12   N24   A    
C62   H13   S    
N12   Ni2   S    
C99   N19   A    
N22   Ni2   S    
C65   C69   A    
C60   H11   S    
C81   H32   S    
C78   H20   S    
C26   C62   S    
N17   Ni4   S    
C80   H31   S    
C33   H56   S    
C40   H4    S    
C92   N13   A    
C16   C18   S    
C24   C29   A    
C63   C77   S    
C70   C75   A    
C6    C44   S    
C82   N3    A    
N20   Ni8   S    
C93   H40   S    
C1    H1    S    
C61   C99   A    
C64   C76   S    
C85   H36   S    
C47   H29   S    
C103  H50   S    
C10   C93   A    
N8    Ni7   S    
N28   Ni5   S    
N16   Ni3   S    
C87   N7    A    
C27   C32   A    
C30   C34   A    
N21   Ni7   S    
C85   N5    A    
C50   C98   A    
C48   C83   A    
N25   Ni4   S    
N4    Ni3   S    
C9    C69   S    
C76   C77   S    
C77   H24   S    
N9    N32   A    
N3    N11   A    
C1    C4    A    
C35   H71   S    
C49   C54   S    
C88   N8    A    
C53   C57   S    
C89   N9    A    
C5    C103  A    
C102  H49   S    
C26   C51   A    
C8    C82   A    
C37   H2    S    
C96   H42   S    
C78   H25   S    
C15   C20   D    
C80   C94   A    
C103  N24   A    
C40   C44   A    
C46   H28   S    
C11   C86   A    
C34   C36   A    
C74   C75   A    
C47   N30   A    
C5    C17   A    
C34   H67   S    
C25   C49   A    
N8    N17   A    
C28   N23   A    
N24   Ni1   S    
C9    C84   A    
N27   Ni4   S    
Br3   C91   S    
C63   C67   A    
C38   C43   A    
C87   H38   S    
C100  H47   S    
C45   H27   S    
C65   C66   A    
C66   C78   S    
C79   H26   S    
N20   N30   A    
N32   Ni2   S    
C18   C22   D    
C33   C40   A    
C6    C28   A    
C101  H48   S    
C12   C87   A    
Br1   C89   S    
C78   C79   S    
C11   C95   A    
C71   C73   A    
C30   C72   S    
C86   H37   S    
C24   C59   S    
C39   H34   S    
N1    Ni1   S    
N2    N10   A    
C89   C94   A    
N21   N31   A    
N18   N28   A    
C104  N25   A    
C82   H33   S    
C98   H44   S    
C43   C52   A    
C2    C67   S    
