data_mof_unit_61101.cif
_audit_creation_date              2012-12-10T19:38:58-0500
_audit_creation_method            fapswitch 2.2
_symmetry_space_group_name_H-M    P1
_symmetry_Int_Tables_number       1
_space_group_crystal_system       triclinic
_cell_length_a                    19.093283
_cell_length_b                    18.309558
_cell_length_c                    23.501468
_cell_angle_alpha                 90.004412
_cell_angle_beta                  90.141867
_cell_angle_gamma                 89.998554
_cell_volume                      8215.84293935

loop_
_atom_site_label
_atom_site_type_symbol
_atom_type_description
_atom_site_fract_x
_atom_site_fract_y
_atom_site_fract_z
_atom_type_partial_charge
Br1   Br    Br    0.593724 0.369822 0.335577 -0.456830
Br2   Br    Br    0.414544 0.363313 0.665360 -0.449371
Br3   Br    Br    0.410601 0.628899 0.331485 -0.428341
Br4   Br    Br    0.581088 0.635183 0.669374 -0.421988
Br5   Br    Br    0.432551 0.633608 0.191685 -0.343285
Br6   Br    Br    0.558362 0.638104 0.808828 -0.342122
C1    C     C_R   0.364959 0.500007 0.498909 0.888231
C2    C     C_R   0.529425 0.556895 0.705160 0.177315
C3    C     C_R   0.470309 0.553699 0.235664 0.315923
C4    C     C_R   0.526044 0.555723 0.764719 0.315246
C5    C     C_R   0.503041 0.494929 0.207997 0.120991
C6    C     C_R   0.497215 0.494810 0.792369 0.120992
C7    C     C_R   0.253762 0.566285 0.482961 -0.156474
C8    C     C_R   0.746162 0.433782 0.482986 -0.153913
C9    C     C_R   0.746723 0.566300 0.485955 -0.164597
C10   C     C_R   0.253305 0.433741 0.485115 -0.166366
C11   C     C_R   0.182754 0.566240 0.470423 -0.132915
C12   C     C_R   0.635041 0.499995 0.498997 0.885775
C13   C     C_R   0.817116 0.433898 0.470522 -0.135340
C14   C     C_R   0.817678 0.566435 0.473477 -0.137726
C15   C     C_R   0.182291 0.433678 0.472565 -0.140414
C16   C     C_R   0.146439 0.499940 0.465355 0.075652
C17   C     C_R   0.853435 0.500221 0.465830 0.074868
C18   C     C_R   0.289409 0.500041 0.490405 -0.035082
C19   C     C_R   0.710577 0.499980 0.490720 -0.036577
C20   C     C_R   0.500143 0.499947 0.389066 0.981565
C21   C     C_R   0.499832 0.499946 0.611019 0.981442
C22   C     C_R   0.929207 0.500181 0.457478 0.302748
C23   C     C_R   0.536374 0.440373 0.239233 -0.164507
C24   C     C_R   0.070585 0.500025 0.457191 0.302774
C25   C     C_R   0.451876 0.273559 0.468250 0.070544
C26   C     C_R   0.553469 0.726551 0.525413 0.062786
C27   C     C_R   0.548107 0.273541 0.531748 0.071889
C28   C     C_R   0.446568 0.726525 0.474510 0.061938
C29   C     C_R   0.450858 0.196794 0.467718 -0.237713
C30   C     C_R   0.554403 0.803313 0.526013 -0.230698
C31   C     C_R   0.549104 0.196777 0.532268 -0.236962
C32   C     C_R   0.445618 0.803289 0.473889 -0.231817
C33   C     C_R   0.499978 0.156934 0.499988 0.080099
C34   C     C_R   0.467510 0.438075 0.761145 -0.165094
C35   C     C_R   0.500000 0.843156 0.499957 0.069320
C36   C     C_R   0.499990 0.925199 0.499961 0.320303
C37   C     C_R   0.499978 0.074891 0.499978 0.318783
C38   C     C_R   0.561101 0.484693 0.880613 0.578948
C39   C     C_R   0.439941 0.480425 0.119753 0.578924
C40   C     C_R   0.435863 0.488646 0.881788 0.550825
C41   C     C_R   0.564649 0.493063 0.118580 0.550501
C42   C     C_R   0.435526 0.483786 0.941077 -0.029305
C43   C     C_R   0.565294 0.488262 0.059290 -0.029170
C44   C     C_R   0.499993 0.483772 0.970312 -0.013690
C45   C     C_R   0.537838 0.443097 0.298073 0.226223
C46   C     C_R   0.500970 0.483792 0.030054 -0.013699
C47   C     C_R   0.563467 0.484478 0.939966 -0.029427
C48   C     C_R   0.437593 0.480077 0.060400 -0.029398
C49   C     C_R   0.372587 0.480070 0.971684 -0.133636
C50   C     C_R   0.628330 0.488935 0.028683 -0.133941
C51   C     C_R   0.373657 0.477208 0.030873 -0.127008
C52   C     C_R   0.627445 0.486035 0.969493 -0.126897
C53   C     C_R   0.465805 0.440656 0.702309 0.227968
C54   C     C_R   0.501612 0.499391 0.326826 -0.256218
C55   C     C_R   0.498398 0.499339 0.673414 -0.260857
C56   C     C_R   0.466977 0.554637 0.295212 0.175067
H1    H     H_    0.322429 0.479351 0.950059 0.199691
H2    H     H_    0.444366 0.392047 0.783140 0.201131
H3    H     H_    0.280774 0.618147 0.486242 0.160746
H4    H     H_    0.719122 0.381910 0.485926 0.168790
H5    H     H_    0.720139 0.618105 0.491332 0.161559
H6    H     H_    0.279955 0.381902 0.490163 0.165087
H7    H     H_    0.156331 0.618163 0.465292 0.161072
H8    H     H_    0.843480 0.382009 0.465086 0.161513
H9    H     H_    0.844500 0.618391 0.470449 0.160988
H10   H     H_    0.155488 0.381734 0.469192 0.160785
H11   H     H_    0.414050 0.303662 0.443185 0.127571
H12   H     H_    0.678424 0.491685 0.050307 0.199570
H13   H     H_    0.595725 0.696617 0.545339 0.158865
H14   H     H_    0.585931 0.303627 0.556826 0.129970
H15   H     H_    0.404367 0.696570 0.454525 0.157179
H16   H     H_    0.324291 0.474413 0.053376 0.200735
H17   H     H_    0.676880 0.486681 0.946989 0.200853
H18   H     H_    0.411961 0.169007 0.442058 0.163996
H19   H     H_    0.597615 0.831108 0.546602 0.171514
H20   H     H_    0.587991 0.168976 0.557927 0.164484
H21   H     H_    0.402419 0.831065 0.453268 0.171109
H22   H     H_    0.562458 0.396059 0.217277 0.200929
N1    N     N_R   0.498075 0.489660 0.852985 -0.334188
N2    N     N_R   0.449747 0.963549 0.471654 -0.158223
N3    N     N_R   0.449778 0.036539 0.471618 -0.159663
N4    N     N_R   0.550227 0.963551 0.528277 -0.157833
N5    N     N_R   0.502510 0.489746 0.147382 -0.334155
N6    N     N_R   0.034565 0.436260 0.456149 -0.163955
N7    N     N_R   0.965214 0.563952 0.456535 -0.163164
N8    N     N_R   0.965090 0.436337 0.456280 -0.163659
N9    N     N_R   0.034687 0.563874 0.456390 -0.162837
N10   N     N_R   0.500000 0.310560 0.500000 -0.088991
N11   N     N_R   0.500000 0.689440 0.500000 -0.101157
N12   N     N_R   0.550184 0.036540 0.528328 -0.159439
O1    O     O_R   0.398130 0.560830 0.500010 -0.630488
O2    O     O_2   0.380280 0.472179 0.149789 -0.519500
O3    O     O_2   0.374694 0.493057 0.853069 -0.528012
O4    O     O_2   0.625401 0.501699 0.147300 -0.528844
O5    O     O_R   0.601870 0.439170 0.499990 -0.624182
O6    O     O_R   0.601870 0.560830 0.499990 -0.630956
O7    O     O_R   0.398130 0.439170 0.500010 -0.622803
O8    O     O_R   0.499970 0.560830 0.416150 -0.585875
O9    O     O_R   0.500030 0.439170 0.583850 -0.588346
O10   O     O_R   0.500030 0.560830 0.583850 -0.582683
O11   O     O_R   0.499970 0.439170 0.416150 -0.591363
O12   O     O_2   0.621157 0.480637 0.850574 -0.519114
Zn1   Zn    Zn3+2 0.500000 0.581210 0.500000 1.005411
Zn2   Zn    Zn3+2 0.500000 0.418790 0.500000 1.009621

loop_
_geom_bond_atom_site_label_1
_geom_bond_atom_site_label_2
_ccdc_geom_bond_type
C42   C49   A    
O9    Zn2   S    
N4    N12   A    
C11   H7    S    
C10   C15   A    
C32   H21   S    
C35   C36   S    
C29   C33   A    
C1    O1    A    
Br4   C2    S    
C27   N10   A    
C26   H13   S    
C41   C43   A    
C7    H3    S    
C6    N1    S    
O7    Zn2   S    
C26   C30   A    
C24   N9    A    
C39   O2    S    
C28   H15   S    
O8    Zn1   S    
C9    C19   A    
C21   O9    A    
C1    C18   S    
C29   H18   S    
C54   C56   A    
C12   O6    A    
C21   C55   S    
C20   O8    A    
C38   C47   A    
C49   H1    S    
C44   C46   A    
C14   H9    S    
C10   H6    S    
C39   N5    A    
C24   N6    A    
C2    C55   A    
C40   N1    A    
C42   C44   A    
C10   C18   A    
C34   C53   A    
C1    O7    A    
C15   C16   A    
C41   N5    A    
C30   C35   A    
C12   C19   S    
C8    C13   A    
C46   C48   A    
C38   O12   S    
C9    C14   A    
C40   C42   A    
C53   C55   A    
C44   C47   A    
C50   H12   S    
C15   H10   S    
C3    C56   A    
C28   N11   A    
C32   C35   A    
N11   Zn1   S    
N2    N3    A    
C33   C37   S    
C21   O10   A    
O5    Zn2   S    
N10   Zn2   S    
C27   C31   A    
C41   O4    S    
C7    C18   A    
C12   O5    A    
C28   C32   A    
C6    C34   A    
C13   C17   A    
Br5   C3    S    
N7    N9    A    
O1    Zn1   S    
C5    N5    S    
C27   H14   S    
N6    N8    A    
C14   C17   A    
C30   H19   S    
C43   C46   A    
C9    H5    S    
C37   N12   A    
C8    H4    S    
C22   N8    A    
C17   C22   S    
C3    C5    A    
C4    C6    A    
C52   H17   S    
C23   H22   S    
C36   N2    A    
C39   C48   A    
C49   C51   A    
O11   Zn2   S    
C25   C29   A    
C31   H20   S    
C36   N4    A    
C38   N1    A    
C25   N10   A    
C23   C45   A    
Br3   C56   S    
C16   C24   S    
Br2   C53   S    
C51   H16   S    
C13   H8    S    
C34   H2    S    
C20   O11   A    
Br6   C4    S    
C47   C52   A    
C43   C50   A    
C11   C16   A    
Br1   C45   S    
C7    C11   A    
C37   N3    A    
C40   O3    S    
C31   C33   A    
C50   C52   A    
C22   N7    A    
C8    C19   A    
C25   H11   S    
C26   N11   A    
C5    C23   A    
C2    C4    A    
O6    Zn1   S    
C45   C54   A    
C20   C54   S    
O10   Zn1   S    
C48   C51   A    
