data_mof_unit_38012.cif
_audit_creation_date              2012-12-11T15:37:21-0500
_audit_creation_method            fapswitch 2.2
_symmetry_space_group_name_H-M    P1
_symmetry_Int_Tables_number       1
_space_group_crystal_system       triclinic
_cell_length_a                    17.475319
_cell_length_b                    24.694014
_cell_length_c                    14.834938
_cell_angle_alpha                 89.999753
_cell_angle_beta                  126.286562
_cell_angle_gamma                 90.000302
_cell_volume                      5160.28559748

loop_
_atom_site_label
_atom_site_type_symbol
_atom_type_description
_atom_site_fract_x
_atom_site_fract_y
_atom_site_fract_z
_atom_type_partial_charge
C1    C     C_R   0.850612 0.651347 0.906918 0.302263
C2    C     C_R   0.183563 0.366771 0.091127 0.333918
C3    C     C_R   0.183560 0.633230 0.091132 0.333923
C4    C     C_R   0.850621 0.348652 0.906915 0.302267
C5    C     C_R   0.350619 0.151348 0.906916 0.302260
C6    C     C_R   0.683573 0.866783 0.091127 0.333956
C7    C     C_R   0.683566 0.133221 0.091128 0.333976
C8    C     C_R   0.350613 0.848654 0.906914 0.302252
C9    C     C_3   0.407101 0.499997 0.462956 -0.090559
C10   C     C_3   0.579118 0.500005 0.653149 -0.088508
C11   C     C_3   0.907052 0.000001 0.463052 -0.090554
C12   C     C_3   0.079105 1.000000 0.653197 -0.088502
C13   C     C_R   0.731847 0.271072 0.918864 -0.164630
C14   C     C_R   0.330827 0.684435 0.064165 -0.161407
C15   C     C_R   0.330819 0.315571 0.064131 -0.161441
C16   C     C_R   0.731839 0.728930 0.918870 -0.164652
C17   C     C_R   0.231842 0.771061 0.918836 -0.164626
C18   C     C_R   0.830824 0.184424 0.064129 -0.161441
C19   C     C_R   0.830828 0.815577 0.064126 -0.161450
C20   C     C_R   0.231843 0.228926 0.918859 -0.164633
C21   C     C_R   0.182562 0.727001 0.913643 -0.186446
C22   C     C_R   0.880966 0.228929 0.068455 -0.189159
C23   C     C_R   0.880962 0.771068 0.068459 -0.189159
C24   C     C_R   0.182554 0.272982 0.913663 -0.186436
C25   C     C_R   0.682560 0.227014 0.913666 -0.186423
C26   C     C_R   0.380962 0.728942 0.068488 -0.189154
C27   C     C_R   0.380962 0.271068 0.068458 -0.189159
C28   C     C_R   0.682559 0.772992 0.913667 -0.186423
C29   C     C_R   0.231754 0.684415 0.987810 0.162224
C30   C     C_R   0.830572 0.272014 0.995915 0.162227
C31   C     C_R   0.830562 0.727985 0.995923 0.162228
C32   C     C_R   0.231744 0.315578 0.987800 0.162189
C33   C     C_R   0.731749 0.184416 0.987801 0.162178
C34   C     C_R   0.330565 0.772015 0.995916 0.162221
C35   C     C_R   0.330568 0.227985 0.995914 0.162228
C36   C     C_R   0.731753 0.815589 0.987797 0.162186
C37   C     C_R   0.886796 0.450977 0.458145 -0.168090
C38   C     C_R   0.891188 0.548968 0.368007 -0.167959
C39   C     C_R   0.891294 0.450999 0.368091 -0.167939
C40   C     C_R   0.886691 0.548983 0.458067 -0.168078
C41   C     C_R   0.386699 0.950993 0.458075 -0.168061
C42   C     C_R   0.391207 0.048987 0.368019 -0.167936
C43   C     C_R   0.391205 0.951012 0.368019 -0.167936
C44   C     C_R   0.386703 0.049006 0.458077 -0.168068
C45   C     C_R   0.904842 0.499988 0.331529 0.140932
C46   C     C_R   0.895078 0.499982 0.511018 0.140730
C47   C     C_R   0.404817 0.999999 0.331509 0.140916
C48   C     C_R   0.395040 1.000000 0.510994 0.140710
C49   C     C_R   0.941257 0.350415 0.093471 -0.215532
C50   C     C_R   0.091126 0.625934 0.903509 -0.194013
C51   C     C_R   0.091115 0.374056 0.903502 -0.194010
C52   C     C_R   0.941245 0.649582 0.093477 -0.215514
C53   C     C_R   0.441247 0.850418 0.093473 -0.215522
C54   C     C_R   0.591118 0.125938 0.903504 -0.194026
C55   C     C_R   0.591124 0.874068 0.903504 -0.194023
C56   C     C_R   0.441251 0.149584 0.093474 -0.215522
C57   C     C_R   0.981402 0.545714 0.249645 -0.122067
C58   C     C_R   0.947078 0.454664 0.692756 -0.132502
C59   C     C_R   0.947070 0.545328 0.692744 -0.132515
C60   C     C_R   0.981397 0.454283 0.249631 -0.122082
C61   C     C_R   0.481400 0.045715 0.249642 -0.122061
C62   C     C_R   0.447060 0.954669 0.692743 -0.132501
C63   C     C_R   0.447058 0.045331 0.692741 -0.132494
C64   C     C_R   0.481397 0.954285 0.249639 -0.122064
C65   C     C_R   0.733928 0.455191 0.762164 -0.134753
C66   C     C_R   0.262755 0.544774 0.299300 -0.127960
C67   C     C_R   0.262747 0.455224 0.299310 -0.127986
C68   C     C_R   0.733930 0.544811 0.762160 -0.134773
C69   C     C_R   0.233926 0.955189 0.762160 -0.134766
C70   C     C_R   0.762710 0.044774 0.299357 -0.127946
C71   C     C_R   0.762710 0.955227 0.299360 -0.127935
C72   C     C_R   0.233926 0.044810 0.762162 -0.134760
C73   C     C_R   0.876820 0.679832 0.000064 0.010469
C74   C     C_R   0.176917 0.355273 0.995245 -0.011827
C75   C     C_R   0.176926 0.644720 0.995256 -0.011845
C76   C     C_R   0.876838 0.320163 0.000058 0.010487
C77   C     C_R   0.376833 0.179835 0.000060 0.010482
C78   C     C_R   0.676930 0.855287 0.995246 -0.011834
C79   C     C_R   0.676921 0.144720 0.995247 -0.011827
C80   C     C_R   0.376823 0.820169 0.000058 0.010488
C81   C     C_R   0.950544 0.499996 0.274802 0.037528
C82   C     C_R   0.929197 0.499993 0.627931 0.047757
C83   C     C_R   0.450537 1.000000 0.274798 0.037515
C84   C     C_R   0.429171 0.000000 0.627916 0.047742
C85   C     C_R   0.679437 0.500002 0.742484 0.126137
C86   C     C_R   0.315850 0.499997 0.354906 0.124465
C87   C     C_R   0.179435 0.999999 0.742493 0.126134
C88   C     C_R   0.815786 0.000000 0.355005 0.124424
C89   C     C_3   0.504578 0.455529 0.617056 0.216089
C90   C     C_3   0.481930 0.544437 0.499637 0.219455
C91   C     C_3   0.481912 0.455543 0.499683 0.219440
C92   C     C_3   0.504596 0.544497 0.617011 0.216118
C93   C     C_3   0.004583 0.955513 0.617112 0.216121
C94   C     C_3   0.981867 0.044450 0.499730 0.219453
C95   C     C_3   0.981870 0.955557 0.499717 0.219457
C96   C     C_3   0.004580 0.044481 0.617125 0.216123
C97   C     C_3   0.428802 0.500021 0.579695 0.203258
C98   C     C_3   0.555770 0.499982 0.534968 0.210010
C99   C     C_3   0.928802 0.999995 0.579816 0.203249
C100  C     C_3   0.055709 0.000005 0.534996 0.210016
H1    H     H_    0.983144 0.336796 0.179395 0.114867
H2    H     H_    0.061063 0.632080 0.816354 0.121178
H3    H     H_    0.061045 0.367903 0.816346 0.121172
H4    H     H_    0.983132 0.663201 0.179401 0.114870
H5    H     H_    0.483133 0.836798 0.179397 0.114861
H6    H     H_    0.561050 0.132087 0.816348 0.121182
H7    H     H_    0.561057 0.867919 0.816347 0.121181
H8    H     H_    0.483138 0.163203 0.179398 0.114868
H9    H     H_    0.971174 0.587490 0.260800 0.095712
H10   H     H_    0.927796 0.413372 0.663925 0.084773
H11   H     H_    0.927792 0.586620 0.663897 0.084774
H12   H     H_    0.971160 0.412505 0.260757 0.095715
H13   H     H_    0.471173 0.087493 0.260793 0.095708
H14   H     H_    0.427781 0.913377 0.663906 0.084776
H15   H     H_    0.427777 0.086623 0.663902 0.084774
H16   H     H_    0.471167 0.912507 0.260786 0.095710
H17   H     H_    0.105695 0.727950 0.857044 0.124098
H18   H     H_    0.957525 0.230262 0.128361 0.122514
H19   H     H_    0.957522 0.769732 0.128364 0.122515
H20   H     H_    0.105686 0.272024 0.857086 0.124103
H21   H     H_    0.605693 0.227972 0.857091 0.124103
H22   H     H_    0.457520 0.730285 0.128415 0.122504
H23   H     H_    0.457523 0.269734 0.128366 0.122516
H24   H     H_    0.605692 0.772037 0.857090 0.124106
H25   H     H_    0.886707 0.412298 0.492079 0.108636
H26   H     H_    0.893886 0.587613 0.335851 0.110169
H27   H     H_    0.894091 0.412354 0.336025 0.110163
H28   H     H_    0.886494 0.587656 0.491934 0.108643
H29   H     H_    0.386555 0.912313 0.491976 0.108628
H30   H     H_    0.393952 0.087633 0.335903 0.110160
H31   H     H_    0.393951 0.912365 0.335904 0.110158
H32   H     H_    0.386562 0.087686 0.491979 0.108630
N1    N     N_R   0.892620 0.603790 0.941800 -0.053213
N2    N     N_R   0.107380 0.396210 0.058200 -0.054478
N3    N     N_R   0.107380 0.603790 0.058200 -0.054475
N4    N     N_R   0.892620 0.396210 0.941800 -0.053210
N5    N     N_R   0.392620 0.103790 0.941800 -0.053213
N6    N     N_R   0.607380 0.896210 0.058200 -0.054477
N7    N     N_R   0.607380 0.103790 0.058200 -0.054474
N8    N     N_R   0.392620 0.896210 0.941800 -0.053210
N9    N     N_R   0.952210 0.397600 0.057910 -0.048716
N10   N     N_R   0.047790 0.602400 0.942090 -0.048605
N11   N     N_R   0.047790 0.397600 0.942090 -0.048605
N12   N     N_R   0.952210 0.602400 0.057910 -0.048712
N13   N     N_R   0.452210 0.897600 0.057910 -0.048714
N14   N     N_R   0.547790 0.102400 0.942090 -0.048610
N15   N     N_R   0.547790 0.897600 0.942090 -0.048609
N16   N     N_R   0.452210 0.102400 0.057910 -0.048714
N17   N     N_R   0.026300 0.529110 0.206760 -0.039736
N18   N     N_R   0.973700 0.470890 0.793240 -0.036035
N19   N     N_R   0.973700 0.529110 0.793240 -0.036037
N20   N     N_R   0.026300 0.470890 0.206760 -0.039738
N21   N     N_R   0.526300 0.029110 0.206760 -0.039737
N22   N     N_R   0.473700 0.970890 0.793240 -0.036039
N23   N     N_R   0.473700 0.029110 0.793240 -0.036038
N24   N     N_R   0.526300 0.970890 0.206760 -0.039738
N25   N     N_R   0.818530 0.472270 0.792960 -0.044573
N26   N     N_R   0.181470 0.527730 0.207040 -0.047519
N27   N     N_R   0.181470 0.472270 0.207040 -0.047509
N28   N     N_R   0.818530 0.527730 0.792960 -0.044576
N29   N     N_R   0.318530 0.972270 0.792960 -0.044571
N30   N     N_R   0.681470 0.027730 0.207040 -0.047510
N31   N     N_R   0.681470 0.972270 0.207040 -0.047512
N32   N     N_R   0.318530 0.027730 0.792960 -0.044572
Ni1   Ni    Ni4+2 0.934150 0.565840 0.869060 0.204024
Ni2   Ni    Ni4+2 0.065850 0.434160 0.130940 0.206392
Ni3   Ni    Ni4+2 0.065850 0.565840 0.130940 0.206395
Ni4   Ni    Ni4+2 0.934150 0.434160 0.869060 0.204025
Ni5   Ni    Ni4+2 0.434150 0.065840 0.869060 0.204025
Ni6   Ni    Ni4+2 0.565850 0.934160 0.130940 0.206390
Ni7   Ni    Ni4+2 0.565850 0.065840 0.130940 0.206394
Ni8   Ni    Ni4+2 0.434150 0.934160 0.869060 0.204024
C101  C     C_3   0.814694 0.675118 0.795137 -1.069449
H33   H     H_    0.828850 0.647007 0.748135 0.252395
H34   H     H_    0.737197 0.682586 0.745040 0.244425
H35   H     H_    0.851637 0.713934 0.806859 0.263907
C102  C     C_3   0.239156 0.334686 0.197251 -1.076412
H36   H     H_    0.206833 0.338223 0.242666 0.248432
H37   H     H_    0.237873 0.291100 0.177994 0.264769
H38   H     H_    0.313787 0.348545 0.249673 0.255527
C103  C     C_3   0.239109 0.665336 0.197232 -1.076431
H39   H     H_    0.206837 0.661745 0.242693 0.248412
H40   H     H_    0.313779 0.651550 0.249633 0.255533
H41   H     H_    0.237677 0.708926 0.177921 0.264760
C104  C     C_3   0.814702 0.324888 0.795130 -1.069489
H42   H     H_    0.828839 0.353007 0.748124 0.252401
H43   H     H_    0.851659 0.286079 0.806846 0.263910
H44   H     H_    0.737208 0.317410 0.745039 0.244436
C105  C     C_3   0.314703 0.175115 0.795132 -1.069477
H45   H     H_    0.328850 0.147000 0.748130 0.252402
H46   H     H_    0.237207 0.182590 0.745037 0.244431
H47   H     H_    0.351654 0.213927 0.806851 0.263910
C106  C     C_3   0.739177 0.834702 0.197256 -1.076496
H48   H     H_    0.706855 0.838230 0.242669 0.248438
H49   H     H_    0.737907 0.791119 0.178005 0.264780
H50   H     H_    0.813798 0.848569 0.249674 0.255554
C107  C     C_3   0.739166 0.165300 0.197257 -1.076605
H51   H     H_    0.706844 0.161772 0.242667 0.248458
H52   H     H_    0.813783 0.151434 0.249679 0.255566
H53   H     H_    0.737901 0.208880 0.178009 0.264802
C108  C     C_3   0.314707 0.824885 0.795135 -1.069471
H54   H     H_    0.328870 0.852997 0.748143 0.252405
H55   H     H_    0.351652 0.786070 0.806861 0.263911
H56   H     H_    0.237209 0.817417 0.745025 0.244420
H57   H     H_    0.710441 0.413793 0.745673 0.130998
H58   H     H_    0.276114 0.584815 0.333785 0.128350
H59   H     H_    0.276085 0.415187 0.333810 0.128360
H60   H     H_    0.710446 0.586209 0.745670 0.131023
H61   H     H_    0.210440 0.913791 0.745677 0.131013
H62   H     H_    0.776032 0.084816 0.333832 0.128345
H63   H     H_    0.776033 0.915185 0.333841 0.128334
H64   H     H_    0.210440 0.086208 0.745680 0.131008
C109  C     C_3   0.353706 0.500041 0.601008 -0.947174
H65   H     H_    0.388636 0.500057 0.692394 0.257505
H66   H     H_    0.308593 0.536671 0.563000 0.246695
H67   H     H_    0.308581 0.463411 0.563043 0.246703
C110  C     C_3   0.624485 0.499962 0.502991 -0.932519
H68   H     H_    0.583577 0.499954 0.410549 0.252091
H69   H     H_    0.669993 0.536601 0.536714 0.247631
H70   H     H_    0.669967 0.463313 0.536730 0.247622
C111  C     C_3   0.853746 0.999989 0.601190 -0.947197
H71   H     H_    0.888710 0.999984 0.692584 0.257514
H72   H     H_    0.808624 0.036619 0.563231 0.246705
H73   H     H_    0.808624 0.963359 0.563216 0.246697
C112  C     C_3   0.124388 0.000012 0.502966 -0.932551
H74   H     H_    0.083452 0.000014 0.410522 0.252093
H75   H     H_    0.169881 0.036657 0.536683 0.247631
H76   H     H_    0.169886 0.963369 0.536678 0.247635
C113  C     C_3   0.515357 0.405630 0.684031 -0.987074
H77   H     H_    0.445729 0.384973 0.641891 0.256785
H78   H     H_    0.566732 0.376961 0.689464 0.241847
H79   H     H_    0.540526 0.417895 0.769447 0.254091
C114  C     C_3   0.475437 0.595524 0.438018 -1.004152
H80   H     H_    0.546769 0.614286 0.482017 0.258229
H81   H     H_    0.449032 0.585273 0.351237 0.253324
H82   H     H_    0.427363 0.625023 0.437420 0.251860
C115  C     C_3   0.475404 0.404426 0.438129 -1.004152
H83   H     H_    0.546734 0.385659 0.482151 0.258237
H84   H     H_    0.427329 0.374945 0.437585 0.251871
H85   H     H_    0.448994 0.414641 0.351330 0.253299
C116  C     C_3   0.515388 0.594425 0.683923 -0.987162
H86   H     H_    0.445759 0.615081 0.641773 0.256804
H87   H     H_    0.540577 0.582197 0.769364 0.254089
H88   H     H_    0.566747 0.623085 0.689292 0.241855
C117  C     C_3   0.015403 0.905596 0.684063 -0.987151
H89   H     H_    0.945774 0.884946 0.641970 0.256806
H90   H     H_    0.066733 0.876927 0.689394 0.241856
H91   H     H_    0.040647 0.917836 0.769518 0.254092
C118  C     C_3   0.975355 0.095555 0.438145 -1.004155
H92   H     H_    0.046685 0.114321 0.482144 0.258231
H93   H     H_    0.948939 0.085322 0.351352 0.253310
H94   H     H_    0.927284 0.125043 0.437588 0.251882
C119  C     C_3   0.975361 0.904457 0.438122 -1.004170
H95   H     H_    0.046692 0.885694 0.482116 0.258232
H96   H     H_    0.927295 0.874964 0.437562 0.251883
H97   H     H_    0.948942 0.914695 0.351330 0.253316
C120  C     C_3   0.015397 0.094392 0.684090 -0.987160
H98   H     H_    0.945773 0.115045 0.641990 0.256808
H99   H     H_    0.040619 0.082143 0.769530 0.254099
H100  H     H_    0.066743 0.123060 0.689453 0.241855
H101  H     H_    0.692300 0.305467 0.865797 0.122168
H102  H     H_    0.368134 0.651207 0.122113 0.125089
H103  H     H_    0.368123 0.348807 0.122057 0.125115
H104  H     H_    0.692288 0.694536 0.865803 0.122190
H105  H     H_    0.192291 0.805449 0.865744 0.122184
H106  H     H_    0.868129 0.151189 0.122054 0.125126
H107  H     H_    0.868138 0.848813 0.122048 0.125126
H108  H     H_    0.192298 0.194531 0.865788 0.122179

loop_
_geom_bond_atom_site_label_1
_geom_bond_atom_site_label_2
_ccdc_geom_bond_type
C16   C28   A    
C107  H53   S    
C38   C40   A    
C99   C111  S    
N7    N14   A    
C7    C107  S    
C64   H16   S    
N6    Ni6   S    
C41   C43   A    
C108  H54   S    
N5    N16   A    
C89   C113  S    
C65   C85   A    
N17   Ni3   S    
C59   C82   A    
C70   C88   A    
C9    C91   S    
C71   C88   A    
C15   C32   A    
C10   C85   S    
C109  H65   S    
C16   C31   A    
C40   C46   A    
C106  H48   S    
C1    C101  S    
C118  H92   S    
C2    N2    A    
C71   N31   A    
C19   H107  S    
C8    C108  S    
C69   N29   A    
C120  H98   S    
C111  H73   S    
C19   C36   A    
C58   C82   A    
C49   H1    S    
C119  H95   S    
C66   H58   S    
C60   C81   A    
C104  H43   S    
C65   H57   S    
C51   H3    S    
C40   H28   S    
C96   C99   S    
C18   C33   A    
C112  H76   S    
C6    N6    A    
C11   C99   S    
C116  H86   S    
C60   N20   A    
N24   Ni6   S    
C107  H52   S    
N31   Ni6   S    
C89   C97   S    
C56   H8    S    
C38   C45   A    
C17   H105  S    
C14   H102  S    
C34   C80   S    
N2    N11   A    
C46   C82   S    
N29   Ni8   S    
C90   C92   S    
C26   C34   A    
N3    N10   A    
C57   H9    S    
N30   Ni7   S    
C20   C24   A    
C10   C89   S    
C96   C120  S    
C106  H49   S    
C57   N17   A    
C92   C97   S    
C21   H17   S    
N2    Ni2   S    
N7    Ni7   S    
C2    C102  S    
C47   C83   S    
C89   C91   S    
C18   C22   A    
C3    C75   A    
C114  H80   S    
C11   C88   S    
C110  H69   S    
N5    Ni5   S    
C69   C87   A    
C117  H91   S    
C4    N4    A    
C63   H15   S    
C106  H50   S    
C103  H40   S    
C10   C92   S    
C93   C95   S    
C97   C109  S    
C115  H83   S    
C68   C85   A    
C108  H55   S    
C20   H108  S    
N32   Ni5   S    
C105  H45   S    
C42   C44   A    
C1    N1    A    
C70   N30   A    
N25   Ni4   S    
C32   C74   S    
C38   H26   S    
C113  H77   S    
N26   Ni3   S    
C37   H25   S    
C109  H66   S    
C72   N32   A    
C112  H75   S    
C118  H93   S    
C3    N3    A    
C24   H20   S    
C54   H6    S    
N12   Ni3   S    
C15   H103  S    
C13   C30   A    
C53   C80   A    
C39   H27   S    
C63   N23   A    
C65   N25   A    
C52   C73   A    
C61   C83   A    
N17   N20   A    
C116  H87   S    
C18   H106  S    
C55   C78   A    
C27   H23   S    
C95   C100  S    
C33   C79   S    
C104  H44   S    
N4    Ni4   S    
C27   C35   A    
C110  H68   S    
C103  H39   S    
C21   C29   A    
C35   C77   S    
N30   N31   A    
C17   C21   A    
C56   C77   A    
C48   C84   S    
C90   C114  S    
C49   N9    A    
C110  H70   S    
C23   C31   A    
C4    C104  S    
C56   N16   A    
C105  H47   S    
C19   C23   A    
C24   C32   A    
C64   C83   A    
C68   H60   S    
C111  H71   S    
C60   H12   S    
C12   C100  S    
N1    Ni1   S    
C9    C86   S    
C30   C76   S    
C92   C116  S    
N23   Ni5   S    
C15   C27   A    
C107  H51   S    
C94   C100  S    
N6    N15   A    
C102  H38   S    
N18   Ni4   S    
C93   C99   S    
C91   C115  S    
C53   N13   A    
C112  H74   S    
N9    Ni2   S    
C49   C76   A    
N22   Ni8   S    
N21   Ni7   S    
C42   H30   S    
C52   N12   A    
N28   Ni1   S    
C14   C26   A    
N21   N24   A    
C94   C96   S    
C72   C87   A    
C114  H81   S    
N22   N23   A    
C101  H34   S    
C93   C117  S    
C3    C103  S    
C55   N15   A    
C11   C94   S    
C7    N7    A    
C31   C73   S    
C111  H72   S    
C50   H2    S    
N25   N28   A    
C71   H63   S    
C117  H90   S    
C61   H13   S    
N26   N27   A    
C70   H62   S    
C108  H56   S    
C57   C81   A    
C12   C93   S    
C115  H85   S    
C69   H61   S    
C17   C34   A    
C14   C29   A    
C5    C77   A    
C95   C119  S    
C94   C118  S    
C66   N26   A    
N29   N32   A    
C67   H59   S    
N15   Ni8   S    
C7    C79   A    
C54   C79   A    
C12   C96   S    
C109  H67   S    
C11   C95   S    
C22   H18   S    
C62   C84   A    
N13   Ni6   S    
C52   H4    S    
C67   C86   A    
C9    C97   S    
C103  H41   S    
C12   C87   S    
C58   H10   S    
C20   C35   A    
C45   C81   S    
C53   H5    S    
N1    N12   A    
C117  H89   S    
C43   C47   A    
C13   C25   A    
C61   N21   A    
C9    C90   S    
C66   C86   A    
C119  H97   S    
N20   Ni2   S    
C28   H24   S    
C62   H14   S    
C29   C75   S    
C59   N19   A    
C44   H32   S    
C10   C98   S    
C64   N24   A    
N8    N13   A    
N27   Ni2   S    
C39   C45   A    
C63   C84   A    
C8    N8    A    
C120  H100  S    
C1    C73   A    
C116  H88   S    
C115  H84   S    
C5    C105  S    
C5    N5    A    
C113  H78   S    
C44   C48   A    
C36   C78   S    
C50   C75   A    
N10   Ni1   S    
C41   H29   S    
C104  H42   S    
C72   H64   S    
C25   H21   S    
N16   Ni7   S    
C54   N14   A    
C43   H31   S    
C101  H35   S    
N4    N9    A    
C102  H37   S    
C58   N18   A    
C42   C47   A    
C51   N11   A    
C91   C98   S    
C100  C112  S    
C22   C30   A    
C114  H82   S    
N11   Ni4   S    
C118  H94   S    
C6    C78   A    
C41   C48   A    
N8    Ni8   S    
C101  H33   S    
C113  H79   S    
C16   H104  S    
C62   N22   A    
N19   Ni1   S    
C4    C76   A    
C28   C36   A    
C37   C39   A    
C102  H36   S    
C119  H96   S    
N14   Ni5   S    
C55   H7    S    
C59   H11   S    
C8    C80   A    
C51   C74   A    
N3    Ni3   S    
N18   N19   A    
C98   C110  S    
C23   H19   S    
C67   N27   A    
C26   H22   S    
C2    C74   A    
C120  H99   S    
C37   C46   A    
C68   N28   A    
C13   H101  S    
C90   C98   S    
C6    C106  S    
C50   N10   A    
C25   C33   A    
C105  H46   S    
