data_mof_unit_13753.cif
_audit_creation_date              2013-03-05T15:55:36-0500
_audit_creation_method            fapswitch 2.2
_symmetry_space_group_name_H-M    P1
_symmetry_Int_Tables_number       1
_space_group_crystal_system       triclinic
_cell_length_a                    12.330675
_cell_length_b                    13.171144
_cell_length_c                    15.870802
_cell_angle_alpha                 77.470155
_cell_angle_beta                  101.182997
_cell_angle_gamma                 115.973768
_cell_volume                      2247.60763865

loop_
_atom_site_label
_atom_site_type_symbol
_atom_site_description
_atom_site_fract_x
_atom_site_fract_y
_atom_site_fract_z
_atom_type_partial_charge
O1    O     O_R   0.972520 0.318130 0.524690 -0.539173
O2    O     O_R   0.806530 0.359650 0.491530 -0.629038
C1    C     C_R   0.855048 0.285857 0.509910 0.778881
O3    O     O_R   0.083030 0.479240 0.637150 -0.563290
O4    O     O_R   0.917040 0.520750 0.603990 -0.594659
C2    C     C_R   0.999612 0.499705 0.659647 0.815797
Cu1   Cu    Cu3+1 0.098280 0.475420 0.519630 1.020879
Cu2   Cu    Cu3+1 0.901720 0.524580 0.480370 1.019584
O5    O     O_R   0.193470 0.640350 0.508470 -0.536037
O6    O     O_R   0.027480 0.681870 0.475310 -0.514235
O7    O     O_R   0.082960 0.479250 0.396010 -0.600440
O8    O     O_R   0.916970 0.520760 0.362850 -0.541320
C3    C     C_R   0.144541 0.712979 0.497165 0.876140
C4    C     C_R   0.000400 0.500338 0.340338 0.828863
C5    C     C_3   0.049112 0.415148 0.973907 -0.338626
C6    C     C_3   0.870087 0.465100 0.937941 -0.457892
C7    C     C_3   0.870598 0.465455 0.035671 -0.360632
H1    H     H_    0.999220 0.330669 0.104158 0.176669
H2    H     H_    0.988350 0.327455 0.959323 0.166530
H3    H     H_    0.830808 0.524170 0.897949 0.185579
H4    H     H_    0.810588 0.378082 0.921440 0.192267
H5    H     H_    0.811321 0.378601 0.065948 0.183474
H6    H     H_    0.832057 0.525088 0.042558 0.195673
C8    C     C_1   0.001110 0.500830 0.250656 -0.109917
C9    C     C_3   0.001062 0.501848 0.916949 0.184357
C10   C     C_3   0.053045 0.418053 0.071503 -0.365989
C11   C     C_3   0.001629 0.502045 0.082737 0.235022
C12   C     C_3   0.081805 0.623296 0.039571 -0.415063
C13   C     C_3   0.079316 0.624457 0.940937 0.219057
C14   C     C_1   0.001449 0.501399 0.175018 -0.060311
C15   C     C_1   0.999746 0.500746 0.824708 -0.043066
C16   C     C_1   0.999382 0.500141 0.749196 -0.100458
H7    H     H_    0.033814 0.680442 0.904532 0.110601
H8    H     H_    0.176122 0.650994 0.072853 0.207968
H9    H     H_    0.140412 0.432608 0.958760 0.219203
H10   H     H_    0.148371 0.444588 0.102753 0.191705
H11   H     H_    0.047521 0.685501 0.047922 0.165548
C17   C     C_R   0.269183 0.033078 0.448933 -0.241445
H12   H     H_    0.441059 0.220782 0.376142 0.147493
H13   H     H_    0.237650 0.098771 0.418283 0.190021
C18   C     C_R   0.227279 0.834712 0.503942 -0.272197
C19   C     C_R   0.815712 0.085822 0.584034 0.281359
C20   C     C_R   0.734356 0.988481 0.629480 -0.149193
C21   C     C_R   0.611129 0.960893 0.613444 -0.153281
C22   C     C_R   0.563871 0.020190 0.542295 0.108161
C23   C     C_R   0.645773 0.125185 0.500343 0.037635
C24   C     C_R   0.437065 0.981297 0.514369 -0.012134
C25   C     C_R   0.393386 0.060015 0.462031 0.040348
C26   C     C_R   0.474072 0.163476 0.421631 -0.172286
C27   C     C_R   0.597564 0.190352 0.434523 -0.156342
C28   C     C_R   0.353463 0.865525 0.530515 0.247759
C29   C     C_R   0.185652 0.922655 0.476480 0.318803
C30   C     C_R   0.773081 0.162776 0.526525 -0.171878
H14   H     H_    0.554395 0.892979 0.658038 0.209327
H15   H     H_    0.767089 0.935079 0.679677 0.190435
H16   H     H_    0.654001 0.263564 0.392811 0.170547
C31   C     C_R   0.352115 0.335667 0.643444 -0.261686
H17   H     H_    0.177130 0.320664 0.660256 0.156359
H18   H     H_    0.552483 0.300887 0.671870 0.155729
H19   H     H_    0.353856 0.272926 0.699976 0.158405
N1    N     N_R   0.246300 0.438200 0.549400 -0.189905
C32   C     C_R   0.752707 0.640969 0.379414 0.558241
C33   C     C_R   0.655255 0.671859 0.355771 -0.247467
C34   C     C_R   0.555982 0.619889 0.402291 -0.213636
C35   C     C_R   0.551132 0.534067 0.473492 0.007558
C36   C     C_R   0.654353 0.506316 0.497908 0.219244
C37   C     C_R   0.447478 0.475120 0.521137 -0.005612
C38   C     C_R   0.450124 0.391885 0.593816 0.146778
C39   C     C_R   0.550601 0.365524 0.616783 -0.256190
C40   C     C_R   0.649899 0.420805 0.569662 -0.142035
C41   C     C_R   0.340244 0.494752 0.499835 0.107729
C42   C     C_R   0.251426 0.361509 0.620706 0.150186
N2    N     N_R   0.754300 0.561180 0.451130 -0.266165
H20   H     H_    0.329206 0.554900 0.444797 0.131506
H21   H     H_    0.483999 0.648052 0.380164 0.173481
H22   H     H_    0.655644 0.735432 0.299430 0.186413
H23   H     H_    0.721028 0.392998 0.591957 0.196769
N3    N     N_R   0.061821 0.902810 0.479065 0.183336
O9    O     O_R   0.004402 0.835275 0.544194 -0.309157
O10   O     O_R   0.016879 0.970907 0.429178 -0.301316
N4    N     N_R   0.397357 0.778300 0.564212 0.118762
O11   O     O_R   0.366312 0.713062 0.637739 -0.331905
O12   O     O_R   0.467373 0.763283 0.520960 -0.372596
Br1   Br    Br    0.982465 0.106992 0.608772 -0.460496
N5    N     N_R   0.845754 0.688935 0.322903 0.131835
O13   O     O_R   0.932285 0.789221 0.331206 -0.314657
O14   O     O_R   0.821070 0.653853 0.248009 -0.380276
N6    N     N_R   0.202672 0.673131 0.915529 0.137105
O15   O     O_R   0.282474 0.634663 0.956530 -0.359015
O16   O     O_R   0.235116 0.759967 0.853807 -0.324104

loop_
_geom_bond_atom_site_label_1
_geom_bond_atom_site_label_2
_geom_bond_distance
_ccdc_geom_bond_type
C9    C15   1.464030 S    
C2    C16   1.423029 S    
C6    H4    1.113385 S    
H1    C10   1.113222 S    
C3    C18   1.490847 S    
N4    O11   1.302568 A    
Cu1   Cu2   2.701050 S    
C22   C23   1.419018 A    
C5    H2    1.113428 S    
C10   C11   1.549624 S    
C7    H6    1.113139 S    
C12   C13   1.556617 S    
C19   C30   1.419819 A    
O4    C2    1.298408 A    
O7    C4    1.298640 A    
N3    O10   1.302103 A    
C5    C9    1.552179 S    
C17   C29   1.397833 A    
C33   H22   1.083515 S    
C13   H7    1.115418 S    
C4    C8    1.423652 S    
O5    C3    1.303983 A    
Cu1   N1    2.035586 S    
C13   N6    1.469292 S    
C15   C16   1.199317 T    
C6    C7    1.550857 S    
C35   C37   1.434964 A    
C32   N2    1.375018 A    
C28   N4    1.436865 S    
C18   C29   1.417760 A    
C17   C25   1.395407 A    
Cu2   O8    1.923973 S    
N1    C41   1.363423 A    
N5    O14   1.301440 A    
C12   H8    1.112812 S    
C40   H23   1.064595 S    
O3    Cu1   1.923973 S    
C29   N3    1.439284 S    
C5    H9    1.110086 S    
N4    O12   1.301562 A    
C22   C24   1.425410 A    
C9    C13   1.563102 S    
C32   N5    1.427677 S    
C37   C38   1.414746 A    
C7    C11   1.551359 S    
C19   Br1   1.921445 S    
O3    C2    1.298158 A    
N3    O9    1.301631 A    
C38   C39   1.391089 A    
C5    C10   1.548524 S    
C24   C28   1.417594 A    
N5    O13   1.298866 A    
C36   N2    1.390771 A    
C27   H16   1.079960 S    
O1    C1    1.306158 A    
Cu1   O7    1.925907 S    
C20   C21   1.382781 A    
C32   C33   1.391910 A    
O4    Cu2   1.925906 S    
C24   C25   1.413131 A    
C6    H3    1.113242 S    
H18   C39   1.084514 S    
N1    C42   1.355438 A    
C20   H15   1.083107 S    
C25   C26   1.392379 A    
H12   C26   1.084122 S    
N6    O16   1.301093 A    
C35   C36   1.434745 A    
C19   C20   1.386793 A    
C31   C38   1.400533 A    
C21   C22   1.409045 A    
C10   H10   1.113121 S    
C6    C9    1.551630 S    
Cu1   O5    1.951496 S    
O1    Cu1   1.966007 S    
O2    Cu2   1.951496 S    
O8    C4    1.298064 A    
C31   H19   1.083836 S    
O6    C3    1.311917 A    
C41   H20   1.075730 S    
C23   C27   1.413623 A    
C7    H5    1.113154 S    
C34   C35   1.403929 A    
O2    C1    1.306239 A    
C17   H13   1.084058 S    
C1    C30   1.483853 S    
H17   C42   1.080519 S    
C36   C40   1.407809 A    
C12   H11   1.113451 S    
C23   C30   1.427423 A    
Cu2   N2    2.023704 S    
C34   H21   1.076905 S    
C37   C41   1.420463 A    
C31   C42   1.389480 A    
C39   C40   1.388023 A    
C8    C14   1.199637 T    
C33   C34   1.381806 A    
C21   H14   1.076875 S    
N6    O15   1.301424 A    
Cu2   O6    1.966007 S    
C26   C27   1.387196 A    
C11   C12   1.549910 S    
C18   C28   1.424833 A    
C11   C14   1.463186 S    
