data_mof_unit_59879.cif
_audit_creation_date              2012-12-11T16:07:20-0500
_audit_creation_method            fapswitch 2.2
_symmetry_space_group_name_H-M    P1
_symmetry_Int_Tables_number       1
_space_group_crystal_system       triclinic
_cell_length_a                    17.066194
_cell_length_b                    17.176345
_cell_length_c                    17.295538
_cell_angle_alpha                 90.001342
_cell_angle_beta                  89.999793
_cell_angle_gamma                 89.870227
_cell_volume                      5069.91168887

loop_
_atom_site_label
_atom_site_type_symbol
_atom_type_description
_atom_site_fract_x
_atom_site_fract_y
_atom_site_fract_z
_atom_type_partial_charge
C1    C     C_R   0.424819 0.667527 0.647052 -0.079647
C2    C     C_R   0.608697 0.698824 0.601347 -0.082538
C3    C     C_3   0.733706 0.266490 0.712214 -0.391640
C4    C     C_3   0.715603 0.821327 0.319693 -0.397036
C5    C     C_3   0.257500 0.177165 0.651288 -0.379709
C6    C     C_3   0.729382 0.261156 0.288825 -0.386118
C7    C     C_3   0.266300 0.733496 0.712230 -0.391634
C8    C     C_3   0.811451 0.730431 0.757931 -0.397143
C9    C     C_3   0.162425 0.265790 0.268666 -0.385661
C10   C     C_3   0.710321 0.289300 0.864432 -0.370486
C11   C     C_3   0.284164 0.707899 0.136926 -0.372382
C12   C     C_3   0.188622 0.269551 0.757996 -0.397175
C13   C     C_R   0.668380 0.424517 0.353300 -0.067257
C14   C     C_3   0.837411 0.734103 0.268461 -0.385754
C15   C     C_3   0.289696 0.710696 0.864446 -0.370467
C16   C     C_3   0.715743 0.292064 0.136895 -0.372283
C17   C     C_R   0.332346 0.575402 0.647168 -0.074359
C18   C     C_R   0.606474 0.698889 0.396836 -0.093309
C19   C     C_R   0.391301 0.301179 0.601352 -0.082525
C20   C     C_R   0.331604 0.575490 0.353309 -0.067235
C21   C     C_R   0.667660 0.424595 0.647165 -0.074345
C22   C     C_R   0.895287 0.195847 0.112123 -0.093923
C23   C     C_R   0.104221 0.803754 0.888317 -0.090149
C24   C     C_R   0.171590 0.079071 0.144852 -0.023601
C25   C     C_R   0.575712 0.332555 0.352850 -0.090441
C26   C     C_R   0.826844 0.920704 0.856402 -0.032261
C27   C     C_R   0.104712 0.804163 0.112139 -0.093829
C28   C     C_R   0.895784 0.196242 0.888310 -0.090138
C29   C     C_R   0.828380 0.920907 0.144832 -0.023681
C30   C     C_R   0.173162 0.079294 0.856407 -0.032245
C31   C     C_R   0.918774 0.827138 0.856148 -0.076498
C32   C     C_R   0.080070 0.173103 0.143534 -0.060537
C33   C     C_R   0.196735 0.895527 0.888557 -0.095729
C34   C     C_R   0.803468 0.103282 0.112402 -0.096218
C35   C     C_R   0.081228 0.172857 0.856146 -0.076504
C36   C     C_R   0.699905 0.606136 0.601784 -0.066922
C37   C     C_R   0.919902 0.826873 0.143514 -0.060561
C38   C     C_R   0.803268 0.104469 0.888549 -0.095758
C39   C     C_R   0.196528 0.896733 0.112415 -0.096272
C40   C     C_3   0.265695 0.263656 0.341294 -0.274585
C41   C     C_3   0.738438 0.733572 0.655861 -0.271481
C42   C     C_3   0.323172 0.675574 0.251991 -0.248289
C43   C     C_3   0.675338 0.324609 0.748883 -0.247252
C44   C     C_3   0.734325 0.736333 0.341337 -0.274609
C45   C     C_3   0.261554 0.266439 0.655869 -0.271456
C46   C     C_3   0.676800 0.324437 0.251970 -0.248239
C47   C     C_R   0.300889 0.392650 0.396746 -0.057626
C48   C     C_3   0.324675 0.675384 0.748895 -0.247242
C49   C     C_3   0.815864 0.820048 0.754084 -0.272904
C50   C     C_3   0.181012 0.180769 0.246325 -0.260062
C51   C     C_3   0.768215 0.231620 0.826686 -0.252710
C52   C     C_3   0.232207 0.770708 0.174771 -0.248245
C53   C     C_3   0.184140 0.179940 0.754081 -0.272993
C54   C     C_3   0.818937 0.819192 0.246289 -0.260094
C55   C     C_3   0.231796 0.768370 0.826703 -0.252720
C56   C     C_3   0.767791 0.229330 0.174742 -0.248192
C57   C     C_R   0.367977 0.632101 0.691491 0.221587
C58   C     C_R   0.575186 0.332470 0.647049 -0.079644
C59   C     C_R   0.633118 0.367878 0.308871 0.221733
C60   C     C_R   0.686434 0.683251 0.614283 0.187419
C61   C     C_R   0.316578 0.315857 0.381908 0.196607
C62   C     C_R   0.632033 0.367894 0.691485 0.221604
C63   C     C_R   0.366860 0.632130 0.308882 0.221713
C64   C     C_R   0.313565 0.316758 0.614297 0.187526
C65   C     C_R   0.683449 0.684152 0.381979 0.196405
C66   C     C_R   0.821110 0.177102 0.136247 0.203887
C67   C     C_R   0.178762 0.821448 0.864959 0.198315
C68   C     C_R   0.139783 0.140153 0.185909 0.194579
C69   C     C_R   0.424282 0.667446 0.352851 -0.090404
C70   C     C_R   0.857934 0.860138 0.814586 0.197958
C71   C     C_R   0.178886 0.822921 0.136271 0.203941
C72   C     C_R   0.821245 0.178545 0.864945 0.198338
C73   C     C_R   0.860169 0.859809 0.185876 0.194650
C74   C     C_R   0.142073 0.139857 0.814588 0.197957
C75   C     C_3   0.826768 0.727388 0.670349 0.467147
C76   C     C_3   0.179208 0.244395 0.353810 0.467745
C77   C     C_3   0.647296 0.262204 0.805546 0.470351
C78   C     C_3   0.351970 0.733498 0.191208 0.468312
C79   C     C_3   0.173239 0.272675 0.670429 0.467207
C80   C     C_R   0.300095 0.393869 0.601788 -0.066972
C81   C     C_3   0.820881 0.755403 0.353674 0.467736
C82   C     C_3   0.352717 0.737793 0.805556 0.470345
C83   C     C_3   0.648007 0.266442 0.191249 0.468252
C84   C     C_3   0.744161 0.350160 0.199521 0.465176
C85   C     C_3   0.261979 0.647948 0.805850 0.463633
C86   C     C_3   0.750179 0.715813 0.256763 0.469486
C87   C     C_3   0.276836 0.262879 0.742995 0.477677
C88   C     C_3   0.255741 0.649879 0.199613 0.465120
C89   C     C_3   0.738039 0.352043 0.805833 0.463637
C90   C     C_3   0.249594 0.284267 0.256790 0.469370
C91   C     C_R   0.699121 0.607350 0.396776 -0.057644
C92   C     C_3   0.723220 0.737051 0.743001 0.477723
C93   C     C_3   0.267920 0.200383 0.234736 0.450763
C94   C     C_3   0.727217 0.825659 0.739357 0.439495
C95   C     C_3   0.203747 0.712863 0.235872 0.447723
C96   C     C_3   0.796013 0.294136 0.769753 0.447483
C97   C     C_3   0.731964 0.799764 0.234873 0.450744
C98   C     C_3   0.272771 0.174277 0.739282 0.439424
C99   C     C_3   0.796247 0.287250 0.235780 0.447669
C100  C     C_3   0.203999 0.705849 0.769773 0.447489
C101  C     C_3   0.294569 0.795491 0.769475 0.439924
C102  C     C_R   0.393543 0.301115 0.396802 -0.093429
C103  C     C_3   0.700480 0.203564 0.227418 0.441251
C104  C     C_3   0.167963 0.183177 0.667124 0.506283
C105  C     C_3   0.803571 0.840657 0.330827 0.484743
C106  C     C_3   0.705437 0.204500 0.769463 0.439939
C107  C     C_3   0.299586 0.796453 0.227376 0.441262
C108  C     C_3   0.831974 0.816892 0.667112 0.506102
C109  C     C_3   0.196630 0.159208 0.330793 0.484631
C110  C     C_3   0.284530 0.178728 0.319481 -0.396966
C111  C     C_3   0.742422 0.822852 0.651350 -0.379865
C112  C     C_3   0.270680 0.738932 0.288846 -0.386104
Cl1   Cl    Cl    0.894829 0.662587 0.625975 -0.407293
Cl2   Cl    Cl    0.241873 0.549325 0.830646 -0.469730
Cl3   Cl    Cl    0.713252 0.634117 0.204790 -0.422381
Cl4   Cl    Cl    0.347914 0.317314 0.795964 -0.412886
Cl5   Cl    Cl    0.225743 0.553108 0.178726 -0.451967
Cl6   Cl    Cl    0.758154 0.450665 0.830629 -0.469687
Cl7   Cl    Cl    0.286255 0.366084 0.204833 -0.422515
Cl8   Cl    Cl    0.652213 0.682528 0.795973 -0.412905
Cl9   Cl    Cl    0.331244 0.174921 0.156465 -0.429006
Cl10  Cl    Cl    0.653462 0.886196 0.781203 -0.427798
Cl11  Cl    Cl    0.106248 0.698443 0.270217 -0.517733
Cl12  Cl    Cl    0.122135 0.274301 0.434570 -0.424935
Cl13  Cl    Cl    0.893669 0.316741 0.740743 -0.483927
Cl14  Cl    Cl    0.668495 0.825457 0.156793 -0.429063
Cl15  Cl    Cl    0.346518 0.113653 0.781014 -0.427804
Cl16  Cl    Cl    0.893755 0.301797 0.270047 -0.518185
Cl17  Cl    Cl    0.106344 0.683233 0.740765 -0.483989
Cl18  Cl    Cl    0.317612 0.892375 0.740309 -0.491424
Cl19  Cl    Cl    0.669894 0.107231 0.251030 -0.520664
Cl20  Cl    Cl    0.094526 0.128497 0.618362 -0.376074
Cl21  Cl    Cl    0.840869 0.924887 0.378015 -0.417741
Cl22  Cl    Cl    0.682387 0.107614 0.740301 -0.491524
Cl23  Cl    Cl    0.548102 0.242047 0.830259 -0.395951
Cl24  Cl    Cl    0.330283 0.892774 0.250899 -0.520538
Cl25  Cl    Cl    0.905334 0.871661 0.618336 -0.376210
Cl26  Cl    Cl    0.159617 0.074833 0.377943 -0.418000
Cl27  Cl    Cl    0.451122 0.745368 0.161384 -0.416128
Cl28  Cl    Cl    0.105178 0.337551 0.626165 -0.407344
Cl29  Cl    Cl    0.878111 0.725263 0.434238 -0.424586
Cl30  Cl    Cl    0.451913 0.757953 0.830261 -0.395950
Cl31  Cl    Cl    0.548845 0.254451 0.161504 -0.416434
Cl32  Cl    Cl    0.774010 0.446966 0.178570 -0.452029
H1    H     H_    0.459538 0.717794 0.662114 0.168312
H2    H     H_    0.580780 0.755428 0.601262 0.133504
H3    H     H_    0.719115 0.458902 0.338606 0.168712
H4    H     H_    0.281752 0.541056 0.662447 0.166300
H5    H     H_    0.577618 0.754997 0.397618 0.121278
H6    H     H_    0.419214 0.244573 0.601267 0.133544
H7    H     H_    0.280864 0.541109 0.338625 0.168767
H8    H     H_    0.718255 0.458941 0.662442 0.166296
H9    H     H_    0.921602 0.253032 0.111048 0.152057
H10   H     H_    0.077271 0.746895 0.889826 0.154283
H11   H     H_    0.221798 0.044208 0.160562 0.164723
H12   H     H_    0.541480 0.282073 0.337444 0.160948
H13   H     H_    0.778016 0.957379 0.841442 0.175531
H14   H     H_    0.078400 0.746975 0.111078 0.151980
H15   H     H_    0.922734 0.253101 0.889817 0.154286
H16   H     H_    0.778181 0.955784 0.160541 0.164815
H17   H     H_    0.221993 0.042620 0.841453 0.175546
H18   H     H_    0.952697 0.776189 0.841146 0.152244
H19   H     H_    0.045964 0.224171 0.157409 0.141428
H20   H     H_    0.254145 0.921909 0.890322 0.171600
H21   H     H_    0.746331 0.076391 0.110627 0.169535
H22   H     H_    0.047307 0.223806 0.841142 0.152279
H23   H     H_    0.755782 0.576493 0.601494 0.164321
H24   H     H_    0.954008 0.775805 0.157386 0.141407
H25   H     H_    0.745858 0.078088 0.890311 0.171603
H26   H     H_    0.253663 0.923626 0.110636 0.169539
H27   H     H_    0.334510 0.143350 0.340921 0.228121
H28   H     H_    0.714115 0.859547 0.606448 0.230580
H29   H     H_    0.265042 0.751543 0.351625 0.230516
H30   H     H_    0.743298 0.257138 0.649338 0.231203
H31   H     H_    0.665747 0.856763 0.341317 0.228080
H32   H     H_    0.285744 0.140485 0.606333 0.230639
H33   H     H_    0.735082 0.248596 0.351608 0.230505
H34   H     H_    0.244024 0.420588 0.396808 0.151831
H35   H     H_    0.256703 0.742844 0.649354 0.231214
H36   H     H_    0.838662 0.691805 0.801916 0.237552
H37   H     H_    0.112822 0.302469 0.248609 0.238704
H38   H     H_    0.701827 0.297472 0.927514 0.214537
H39   H     H_    0.288599 0.696429 0.073943 0.213608
H40   H     H_    0.161474 0.308160 0.802036 0.237580
H41   H     H_    0.886882 0.697348 0.248223 0.238584
H42   H     H_    0.298195 0.702529 0.927528 0.214557
H43   H     H_    0.711245 0.303483 0.073908 0.213598
H44   H     H_    0.540468 0.282202 0.662109 0.168325
H45   H     H_    0.458518 0.717923 0.337442 0.160962
H46   H     H_    0.244220 0.423515 0.601494 0.164356
H47   H     H_    0.755980 0.579401 0.396833 0.151858
H48   H     H_    0.422398 0.245007 0.397595 0.121257
N1    N     N_R   0.424590 0.632770 0.578330 -0.064527
N2    N     N_R   0.575410 0.632770 0.578330 -0.056450
N3    N     N_R   0.632770 0.424590 0.421670 -0.064174
N4    N     N_R   0.367230 0.575410 0.578330 -0.063403
N5    N     N_R   0.575410 0.632770 0.421670 -0.057289
N6    N     N_R   0.424590 0.367230 0.578330 -0.056450
N7    N     N_R   0.367230 0.575410 0.421670 -0.064174
N8    N     N_R   0.632770 0.424590 0.578330 -0.063412
N9    N     N_R   0.924590 0.132770 0.078330 -0.063824
N10   N     N_R   0.075410 0.867230 0.921670 -0.063428
N11   N     N_R   0.132770 0.075410 0.078330 -0.058941
N12   N     N_R   0.575410 0.367230 0.421670 -0.062979
N13   N     N_R   0.867230 0.924590 0.921670 -0.060554
N14   N     N_R   0.075410 0.867230 0.078330 -0.063814
N15   N     N_R   0.924590 0.132770 0.921670 -0.063430
N16   N     N_R   0.867230 0.924590 0.078330 -0.058975
N17   N     N_R   0.132770 0.075410 0.921670 -0.060554
N18   N     N_R   0.924590 0.867230 0.921670 -0.059894
N19   N     N_R   0.075410 0.132770 0.078330 -0.061027
N20   N     N_R   0.132770 0.924590 0.921670 -0.066521
N21   N     N_R   0.867230 0.075410 0.078330 -0.066608
N22   N     N_R   0.075410 0.132770 0.921670 -0.059883
N23   N     N_R   0.632770 0.575410 0.578330 -0.062225
N24   N     N_R   0.924590 0.867230 0.078330 -0.061052
N25   N     N_R   0.867230 0.075410 0.921670 -0.066517
N26   N     N_R   0.132770 0.924590 0.078330 -0.066618
N27   N     N_R   0.367230 0.424590 0.421670 -0.062292
N28   N     N_R   0.575410 0.367230 0.578330 -0.064528
N29   N     N_R   0.424590 0.632770 0.421670 -0.062988
N30   N     N_R   0.367230 0.424590 0.578330 -0.062236
N31   N     N_R   0.632770 0.575410 0.421670 -0.062268
N32   N     N_R   0.424590 0.367230 0.421670 -0.057311
Ni1   Ni    Ni4+2 0.500000 0.631570 0.500000 0.243822
Ni2   Ni    Ni4+2 0.500000 0.368430 0.500000 0.243832
Ni3   Ni    Ni4+2 0.631570 0.500000 0.500000 0.261101
Ni4   Ni    Ni4+2 0.368430 0.500000 0.500000 0.261112
Ni5   Ni    Ni4+2 0.000000 0.131570 0.000000 0.249476
Ni6   Ni    Ni4+2 0.000000 0.868430 0.000000 0.249432
Ni7   Ni    Ni4+2 0.131570 0.000000 0.000000 0.272311
Ni8   Ni    Ni4+2 0.868430 0.000000 0.000000 0.272290

loop_
_geom_bond_atom_site_label_1
_geom_bond_atom_site_label_2
_ccdc_geom_bond_type
C58   C62   A    
C110  H27   S    
N4    Ni4   S    
C35   C74   A    
C46   C59   S    
N14   Ni6   S    
C107  C112  S    
C39   N26   A    
C1    H1    S    
C53   C74   S    
C83   Cl31  S    
C82   Cl30  S    
C25   N12   A    
C78   Cl27  S    
C19   H6    S    
C30   N17   A    
C102  N32   A    
C48   C57   S    
C24   N11   A    
C32   C68   A    
N14   N26   A    
C18   C65   A    
C3    C43   S    
C43   C89   S    
C29   N16   A    
C83   C103  S    
C52   C95   S    
C43   C77   S    
N2    Ni1   S    
C85   Cl2   S    
N6    N30   A    
C90   Cl7   S    
C93   Cl9   S    
C55   C101  S    
C39   H26   S    
C7    C101  S    
C95   C112  S    
C36   N23   A    
C108  Cl25  S    
C30   C74   A    
C33   N20   A    
N31   Ni3   S    
C46   C83   S    
C29   C73   A    
C84   Cl32  S    
C53   C104  S    
C104  Cl20  S    
C12   C79   S    
N29   Ni1   S    
C94   C111  S    
C16   C84   S    
C35   H22   S    
C36   H23   S    
C26   H13   S    
C111  H28   S    
N17   Ni7   S    
C21   H8    S    
C23   C67   A    
C86   C97   S    
C42   C112  S    
C22   C66   A    
C11   C52   S    
C41   C60   S    
C50   C68   S    
N27   N32   A    
C58   N28   A    
C52   C107  S    
C31   C70   A    
C63   C69   A    
C10   C89   S    
C76   C109  S    
C4    H31   S    
C55   C100  S    
N24   Ni6   S    
C56   C66   S    
C54   C97   S    
C3    C96   S    
C8    C92   S    
C9    C76   S    
C16   C83   S    
C49   C94   S    
C29   H16   S    
C18   H5    S    
N19   Ni5   S    
N7    Ni4   S    
C11   C88   S    
C37   N24   A    
C69   N29   A    
C12   C53   S    
C54   C105  S    
C24   H11   S    
C93   C110  S    
N10   Ni6   S    
C87   C98   S    
C32   H19   S    
N9    Ni5   S    
C79   Cl28  S    
C31   H18   S    
C75   C108  S    
N16   N24   A    
C4    C97   S    
C25   H12   S    
C64   C80   A    
C38   N25   A    
N11   N19   A    
C44   C65   S    
C28   C72   A    
C2    C60   A    
C44   C86   S    
C10   C51   S    
C14   C81   S    
C34   C66   A    
C10   C77   S    
C15   C82   S    
C81   C105  S    
N25   Ni8   S    
C3    C106  S    
C37   H24   S    
C15   H42   S    
C38   C72   A    
N15   N25   A    
C7    C100  S    
C23   N10   A    
C58   H44   S    
C76   Cl12  S    
C33   H20   S    
C11   H39   S    
C14   C86   S    
C44   C81   S    
C69   H45   S    
N2    N23   A    
C47   N27   A    
N20   Ni7   S    
C24   C68   A    
C100  Cl17  S    
N15   Ni5   S    
C40   C110  S    
N3    N12   A    
C4    C44   S    
C36   C60   A    
C5    C45   S    
C16   H43   S    
C50   C109  S    
C40   C61   S    
C40   C76   S    
C14   H41   S    
C78   C107  S    
C27   H14   S    
N8    Ni3   S    
C15   C55   S    
N27   Ni4   S    
C1    N1    A    
C16   C56   S    
C20   N7    A    
C107  Cl24  S    
C11   C78   S    
C1    C57   A    
C41   C75   S    
C54   C73   S    
C8    H36   S    
C3    H30   S    
C102  H48   S    
N8    N28   A    
N30   Ni4   S    
C19   C64   A    
N1    N4    A    
C17   H4    S    
C18   N5    A    
C92   C94   S    
N18   Ni6   S    
N28   Ni2   S    
C45   C79   S    
C6    C103  S    
C89   Cl6   S    
N9    N21   A    
C87   Cl4   S    
N21   Ni8   S    
N16   Ni8   S    
N7    N29   A    
C94   Cl10  S    
C98   Cl15  S    
C14   C54   S    
C42   C78   S    
C49   C70   S    
C6    H33   S    
C41   C111  S    
C26   C70   A    
C5    H32   S    
C46   C84   S    
C79   C104  S    
C26   N13   A    
C42   C88   S    
C51   C72   S    
C13   H3    S    
C21   N8    A    
C91   N31   A    
C34   H21   S    
N5    Ni1   S    
C27   C71   A    
C33   C67   A    
C90   C93   S    
C105  Cl21  S    
C6    C99   S    
C95   Cl11  S    
C65   C91   A    
C37   C73   A    
C77   C106  S    
C19   N6    A    
C6    C46   S    
C22   N9    A    
C45   C87   S    
C84   C99   S    
C80   H46   S    
C9    C50   S    
C56   C103  S    
N10   N20   A    
C97   Cl14  S    
N5    N31   A    
C34   N21   A    
N32   Ni2   S    
C9    C90   S    
C47   C61   A    
C55   C67   S    
C86   Cl3   S    
C20   H7    S    
C50   C93   S    
C88   C95   S    
C99   Cl16  S    
C13   C59   A    
N3    Ni3   S    
C53   C98   S    
C2    H2    S    
C77   Cl23  S    
C4    C105  S    
C51   C96   S    
C45   C64   S    
N17   N22   A    
C30   H17   S    
C108  C111  S    
C15   C85   S    
C7    H35   S    
C27   N14   A    
C40   C90   S    
C7    C48   S    
C89   C96   S    
C61   C102  A    
C92   Cl8   S    
N1    Ni1   S    
C12   C87   S    
C52   C71   S    
C109  C110  S    
C32   N19   A    
N11   Ni7   S    
C12   H40   S    
C31   N18   A    
C103  Cl19  S    
N13   N18   A    
C20   C63   A    
C51   C106  S    
C10   H38   S    
C8    C49   S    
C81   Cl29  S    
C47   H34   S    
C82   C101  S    
C48   C82   S    
C96   Cl13  S    
C112  H29   S    
N23   Ni3   S    
C28   H15   S    
C91   H47   S    
C35   N22   A    
C49   C108  S    
N26   Ni7   S    
C5    C104  S    
C9    H37   S    
C8    C75   S    
C101  Cl18  S    
C80   N30   A    
C38   H25   S    
C106  Cl22  S    
C41   C92   S    
C5    C98   S    
C13   N3    A    
C23   H10   S    
C85   C100  S    
C28   N15   A    
C39   C71   A    
C48   C85   S    
C109  Cl26  S    
C17   N4    A    
N13   Ni8   S    
C25   C59   A    
C56   C99   S    
C2    N2    A    
C88   Cl5   S    
C21   C62   A    
N22   Ni5   S    
N12   Ni2   S    
C42   C63   S    
N6    Ni2   S    
C43   C62   S    
C17   C57   A    
C22   H9    S    
C75   Cl1   S    
