data_mof_unit_54080.cif
_audit_creation_date              2012-12-11T15:50:36-0500
_audit_creation_method            fapswitch 2.2
_symmetry_space_group_name_H-M    P1
_symmetry_Int_Tables_number       1
_space_group_crystal_system       triclinic
_cell_length_a                    18.85465
_cell_length_b                    11.055739
_cell_length_c                    18.697906
_cell_angle_alpha                 90.109511
_cell_angle_beta                  90.965044
_cell_angle_gamma                 89.862614
_cell_volume                      3897.04669516

loop_
_atom_site_label
_atom_site_type_symbol
_atom_type_description
_atom_site_fract_x
_atom_site_fract_y
_atom_site_fract_z
_atom_type_partial_charge
C1    C     C_R   0.271773 0.043160 0.853308 0.549567
C2    C     C_R   0.746750 0.598965 0.919136 0.018290
C3    C     C_R   0.229544 0.546790 0.353058 0.551226
C4    C     C_R   0.468403 0.822816 0.646037 0.541679
C5    C     C_R   0.529409 0.824261 0.352365 0.549965
C6    C     C_R   0.968402 0.322816 0.646037 0.541679
C7    C     C_R   0.029409 0.324261 0.352365 0.549965
C8    C     C_R   0.259683 0.638417 0.643259 0.546880
C9    C     C_R   0.725246 0.690948 0.363117 0.571027
C10   C     C_R   0.759683 0.138417 0.643259 0.546879
C11   C     C_R   0.225246 0.190948 0.363117 0.571027
C12   C     C_3   0.452349 0.897869 0.032541 0.263626
C13   C     C_R   0.739600 0.066670 0.070140 0.011518
C14   C     C_3   0.503450 0.946546 0.976532 0.275376
C15   C     C_3   0.952349 0.397869 0.032541 0.263628
C16   C     C_3   0.003450 0.446544 0.976532 0.275370
C17   C     C_3   0.436833 0.786517 0.985815 -0.144386
C18   C     C_3   0.565794 0.878760 0.013298 -0.140752
C19   C     C_3   0.936833 0.286517 0.985815 -0.144385
C20   C     C_3   0.065794 0.378758 0.013299 -0.140755
C21   C     C_3   0.489472 0.834059 0.930434 0.031689
C22   C     C_3   0.513135 0.829064 0.068249 0.030766
C23   C     C_3   0.989472 0.334057 0.930434 0.031692
C24   C     C_R   0.246747 0.098962 0.919136 0.018293
C25   C     C_3   0.013135 0.329063 0.068249 0.030768
C26   C     C_R   0.291173 0.503212 0.032620 -0.000844
C27   C     C_R   0.690406 0.551222 0.957779 -0.009071
C28   C     C_R   0.791170 0.003198 0.032619 -0.000840
C29   C     C_R   0.190412 0.051200 0.957784 -0.009061
C30   C     C_R   0.294096 0.507377 0.958562 -0.002413
C31   C     C_R   0.680758 0.582037 0.029075 0.010604
C32   C     C_R   0.794093 0.007369 0.958560 -0.002408
C33   C     C_R   0.726937 0.040221 0.145225 0.540303
C34   C     C_R   0.180766 0.082012 0.029080 0.010613
C35   C     C_R   0.185652 0.621694 0.955999 -0.146296
C36   C     C_R   0.780686 0.715608 0.023973 -0.101164
C37   C     C_R   0.685653 0.121699 0.956000 -0.146290
C38   C     C_R   0.280674 0.215620 0.023968 -0.101177
C39   C     C_R   0.184623 0.621748 0.030084 -0.160445
C40   C     C_R   0.788288 0.689363 0.951766 -0.107289
C41   C     C_R   0.684624 0.121752 0.030085 -0.160442
C42   C     C_R   0.288275 0.189376 0.951761 -0.107293
C43   C     C_3   0.369733 0.505013 0.041139 -0.283450
C44   C     C_R   0.771773 0.543161 0.853308 0.549568
C45   C     C_3   0.670225 0.423013 0.969964 -0.255009
C46   C     C_3   0.869731 0.005007 0.041136 -0.283446
C47   C     C_3   0.170251 0.922984 0.969972 -0.255005
C48   C     C_3   0.373222 0.499942 0.959778 -0.272661
C49   C     C_3   0.659032 0.456317 0.047711 -0.245612
C50   C     C_3   0.873220 0.999940 0.959775 -0.272657
C51   C     C_3   0.159061 0.956284 0.047719 -0.245617
C52   C     C_R   0.245133 0.578118 0.919623 0.011096
C53   C     C_R   0.729056 0.658220 0.064495 0.038734
C54   C     C_R   0.745131 0.078117 0.919623 0.011099
C55   C     C_R   0.226937 0.540223 0.145226 0.540301
C56   C     C_R   0.229056 0.158215 0.064495 0.038741
C57   C     C_R   0.496533 0.838284 0.421408 0.020924
C58   C     C_R   0.485310 0.828378 0.570825 0.020955
C59   C     C_R   0.996533 0.338284 0.421409 0.020924
C60   C     C_R   0.985310 0.328378 0.570825 0.020955
C61   C     C_R   0.469419 0.822370 0.855566 0.561053
C62   C     C_R   0.532026 0.821306 0.143587 0.581175
C63   C     C_R   0.969419 0.322369 0.855566 0.561056
C64   C     C_R   0.032026 0.321306 0.143588 0.581178
C65   C     C_R   0.461590 0.742158 0.453528 0.021193
C66   C     C_3   0.550975 0.766227 0.966080 -0.181275
C67   C     C_R   0.458335 0.736670 0.526630 0.046031
C68   C     C_R   0.961589 0.242158 0.453528 0.021193
C69   C     C_R   0.958335 0.236670 0.526630 0.046030
C70   C     C_R   0.508590 0.935071 0.538566 -0.180971
C71   C     C_R   0.514100 0.940174 0.464021 -0.165114
C72   C     C_R   0.008590 0.435071 0.538566 -0.180971
C73   C     C_R   0.014100 0.440174 0.464021 -0.165114
C74   C     C_3   0.467901 0.607487 0.446915 -0.275306
C75   C     C_3   0.469387 0.603038 0.528020 -0.265162
C76   C     C_3   0.967901 0.107487 0.446915 -0.275306
C77   C     C_3   0.499103 0.716966 0.021842 -0.171884
C78   C     C_3   0.969387 0.103038 0.528020 -0.265162
C79   C     C_R   0.253162 0.590046 0.421433 0.022124
C80   C     C_R   0.747936 0.612939 0.583463 0.024341
C81   C     C_R   0.753162 0.090046 0.421433 0.022124
C82   C     C_R   0.247936 0.112939 0.583463 0.024341
C83   C     C_R   0.223096 0.692022 0.452453 0.021132
C84   C     C_R   0.798251 0.683100 0.548095 0.022668
C85   C     C_R   0.723096 0.192022 0.452453 0.021133
C86   C     C_R   0.298251 0.183100 0.548095 0.022668
C87   C     C_R   0.223011 0.701688 0.525292 0.046765
C88   C     C_3   0.050975 0.266224 0.966080 -0.181274
C89   C     C_R   0.789332 0.710610 0.477344 0.008867
C90   C     C_R   0.723011 0.201688 0.525292 0.046765
C91   C     C_R   0.289332 0.210610 0.477344 0.008867
C92   C     C_R   0.291230 0.518397 0.538443 -0.173741
C93   C     C_R   0.672264 0.624949 0.478322 -0.161304
C94   C     C_R   0.791230 0.018397 0.538443 -0.173742
C95   C     C_R   0.172264 0.124949 0.478322 -0.161304
C96   C     C_R   0.293115 0.509867 0.464591 -0.170851
C97   C     C_R   0.681656 0.594614 0.550620 -0.166577
C98   C     C_R   0.793115 0.009867 0.464591 -0.170851
C99   C     C_3   0.999102 0.216965 0.021843 -0.171885
C100  C     C_R   0.181656 0.094614 0.550620 -0.166576
C101  C     C_3   0.151198 0.749492 0.445081 -0.274579
C102  C     C_3   0.876291 0.662068 0.539610 -0.264273
C103  C     C_3   0.651198 0.249492 0.445081 -0.274579
C104  C     C_3   0.376291 0.162069 0.539610 -0.264273
C105  C     C_3   0.150711 0.756916 0.525827 -0.267364
C106  C     C_3   0.866091 0.690089 0.461401 -0.266292
C107  C     C_3   0.650712 0.256916 0.525827 -0.267365
C108  C     C_3   0.366091 0.190089 0.461401 -0.266293
C109  C     C_R   0.259957 0.634220 0.850842 0.541513
C110  C     C_R   0.239600 0.566674 0.070141 0.011517
C111  C     C_R   0.725642 0.684205 0.140971 0.568334
C112  C     C_R   0.759957 0.134220 0.850841 0.541516
C113  C     C_R   0.225642 0.184203 0.140971 0.568330
C114  C     C_R   0.252465 0.611379 0.569063 0.029606
C115  C     C_R   0.728818 0.673717 0.439830 0.017587
C116  C     C_R   0.752465 0.111379 0.569063 0.029606
C117  C     C_R   0.228818 0.173716 0.439830 0.017587
C118  C     C_R   0.270799 0.048528 0.647107 0.541196
C119  C     C_R   0.729544 0.046789 0.353058 0.551228
C120  C     C_R   0.770799 0.548528 0.647107 0.541196
Cl1   Cl    Cl    0.386899 0.981362 0.079209 -0.578243
Cl2   Cl    Cl    0.502627 0.098977 0.945966 -0.624621
Cl3   Cl    Cl    0.886900 0.481360 0.079210 -0.578243
Cl4   Cl    Cl    0.002627 0.598975 0.945966 -0.624643
Cr1   Cr    Cr6+3 0.229640 0.835880 0.747370 1.019860
Cr2   Cr    Cr6+3 0.614230 0.677220 0.250660 1.010738
Cr3   Cr    Cr6+3 0.885770 0.177220 0.749340 1.012753
Cr4   Cr    Cr6+3 0.114230 0.177220 0.250660 1.010738
Cr5   Cr    Cr6+3 0.770360 0.835880 0.252630 1.020158
Cr6   Cr    Cr6+3 0.729640 0.335880 0.747370 1.019860
Cr7   Cr    Cr6+3 0.270360 0.335880 0.252630 1.020160
Cr8   Cr    Cr6+3 0.387390 0.989720 0.750850 1.057495
Cr9   Cr    Cr6+3 0.612610 0.989720 0.249150 1.034373
Cr10  Cr    Cr6+3 0.887390 0.489720 0.750850 1.057493
Cr11  Cr    Cr6+3 0.112610 0.489720 0.249150 1.034372
Cr12  Cr    Cr6+3 0.385770 0.677220 0.749340 1.012752
H1    H     H_    0.381305 0.758738 0.974360 0.129409
H2    H     H_    0.924860 0.053567 0.551450 0.155289
H3    H     H_    0.516670 0.572805 0.422592 0.150972
H4    H     H_    0.424860 0.553567 0.551450 0.155288
H5    H     H_    0.419587 0.567948 0.422177 0.141296
H6    H     H_    0.521988 0.577764 0.550793 0.126686
H7    H     H_    0.919587 0.067948 0.422177 0.141297
H8    H     H_    0.021988 0.077764 0.550793 0.126686
H9    H     H_    0.318823 0.452158 0.571315 0.122239
H10   H     H_    0.623857 0.601116 0.451246 0.128736
H11   H     H_    0.818823 0.952158 0.571315 0.122239
H12   H     H_    0.619584 0.911839 0.027005 0.129976
H13   H     H_    0.123857 0.101116 0.451246 0.128736
H14   H     H_    0.320577 0.434346 0.441491 0.139074
H15   H     H_    0.640254 0.547872 0.578580 0.111061
H16   H     H_    0.820577 0.934346 0.441491 0.139074
H17   H     H_    0.140254 0.047872 0.578580 0.111061
H18   H     H_    0.109006 0.689171 0.423765 0.155698
H19   H     H_    0.891542 0.566489 0.549147 0.170617
H20   H     H_    0.609006 0.189171 0.423765 0.155698
H21   H     H_    0.391542 0.066489 0.549147 0.170617
H22   H     H_    0.153600 0.839762 0.419111 0.147461
H23   H     H_    0.881305 0.258738 0.974360 0.129411
H24   H     H_    0.908921 0.730438 0.568770 0.132194
H25   H     H_    0.653600 0.339762 0.419111 0.147461
H26   H     H_    0.408921 0.230438 0.568770 0.132194
H27   H     H_    0.151492 0.850599 0.546443 0.150113
H28   H     H_    0.894466 0.773100 0.444950 0.125746
H29   H     H_    0.651492 0.350599 0.546443 0.150113
H30   H     H_    0.394466 0.273100 0.444950 0.125746
H31   H     H_    0.110656 0.696880 0.550405 0.131577
H32   H     H_    0.875078 0.609862 0.426660 0.170813
H33   H     H_    0.610656 0.196880 0.550405 0.131576
H34   H     H_    0.119585 0.411836 0.027006 0.129975
H35   H     H_    0.375078 0.109862 0.426660 0.170813
H36   H     H_    0.590372 0.715231 0.934833 0.138380
H37   H     H_    0.501266 0.622140 0.040892 0.142985
H38   H     H_    0.090373 0.215225 0.934837 0.138378
H39   H     H_    0.001264 0.122140 0.040893 0.142993
H40   H     H_    0.143598 0.669957 0.928213 0.197517
H41   H     H_    0.819214 0.772829 0.049730 0.159336
H42   H     H_    0.643601 0.169970 0.928215 0.197513
H43   H     H_    0.319194 0.272858 0.049722 0.159321
H44   H     H_    0.139568 0.663639 0.055536 0.180850
H45   H     H_    0.524306 0.012363 0.570739 0.121466
H46   H     H_    0.832071 0.729900 0.924017 0.166108
H47   H     H_    0.639572 0.163649 0.055538 0.180845
H48   H     H_    0.332048 0.229931 0.924007 0.166083
H49   H     H_    0.892397 0.924025 0.068002 0.153389
H50   H     H_    0.215905 0.860908 0.962265 0.166246
H51   H     H_    0.392396 0.424031 0.068006 0.153398
H52   H     H_    0.715872 0.360920 0.962261 0.166243
H53   H     H_    0.386605 0.591627 0.065767 0.151082
H54   H     H_    0.620372 0.398247 0.940999 0.155845
H55   H     H_    0.886601 0.091623 0.065765 0.151082
H56   H     H_    0.538181 0.019216 0.440859 0.135601
H57   H     H_    0.120399 0.898198 0.941011 0.155846
H58   H     H_    0.399780 0.576563 0.934129 0.176950
H59   H     H_    0.602540 0.451682 0.063540 0.141453
H60   H     H_    0.899776 0.076564 0.934127 0.176950
H61   H     H_    0.102572 0.951626 0.063554 0.141457
H62   H     H_    0.392446 0.411197 0.940073 0.153049
H63   H     H_    0.697148 0.411037 0.085065 0.180674
H64   H     H_    0.892447 0.911197 0.940069 0.153045
H65   H     H_    0.197186 0.911023 0.085070 0.180689
H66   H     H_    0.024306 0.512363 0.570739 0.121466
H67   H     H_    0.038181 0.519216 0.440859 0.135601
H68   H     H_    0.016670 0.072805 0.422592 0.150972
O1    O     O_R   0.214300 0.709080 0.827500 -0.522937
O2    O     O_R   0.543340 0.717710 0.330180 -0.534330
O3    O     O_R   0.956660 0.217710 0.669820 -0.519149
O4    O     O_R   0.043340 0.217710 0.330180 -0.534329
O5    O     O_R   0.320590 0.625770 0.672930 -0.506660
O6    O     O_R   0.679410 0.625770 0.327070 -0.499116
O7    O     O_R   0.820590 0.125770 0.672930 -0.506660
O8    O     O_R   0.179410 0.125770 0.327070 -0.499117
O9    O     O_3   0.334270 0.834280 0.749190 -0.259094
O10   O     O_3   0.665730 0.834280 0.250810 -0.307783
O11   O     O_3   0.834270 0.334280 0.749190 -0.259093
O12   O     O_R   0.785700 0.709080 0.172500 -0.468063
O13   O     O_3   0.165730 0.334280 0.250810 -0.307781
O14   O     O_R   0.236190 0.958390 0.823150 -0.507401
O15   O     O_R   0.763810 0.958390 0.176850 -0.518648
O16   O     O_R   0.736190 0.458390 0.823150 -0.507399
O17   O     O_R   0.263810 0.458390 0.176850 -0.518648
O18   O     O_R   0.332090 0.075280 0.831290 -0.492152
O19   O     O_R   0.667910 0.075280 0.168710 -0.517754
O20   O     O_R   0.832090 0.575280 0.831290 -0.492161
O21   O     O_R   0.167910 0.575280 0.168710 -0.517756
O22   O     O_R   0.446280 0.918040 0.826620 -0.453148
O23   O     O_R   0.714300 0.209080 0.827500 -0.522937
O24   O     O_R   0.553720 0.918040 0.173380 -0.473633
O25   O     O_R   0.946280 0.418040 0.826620 -0.453148
O26   O     O_R   0.053720 0.418040 0.173380 -0.473633
O27   O     O_R   0.457080 0.716270 0.831760 -0.534867
O28   O     O_R   0.542920 0.716270 0.168240 -0.534269
O29   O     O_R   0.957080 0.216270 0.831760 -0.534867
O30   O     O_R   0.042920 0.216270 0.168240 -0.534267
O31   O     O_R   0.320980 0.624440 0.823040 -0.506258
O32   O     O_R   0.679020 0.624440 0.176960 -0.491065
O33   O     O_R   0.820980 0.124440 0.823040 -0.506259
O34   O     O_R   0.285700 0.209080 0.172500 -0.468056
O35   O     O_R   0.179020 0.124440 0.176960 -0.491069
O36   O     O_R   0.213880 0.710510 0.665560 -0.519598
O37   O     O_R   0.786120 0.710510 0.334440 -0.510015
O38   O     O_R   0.713880 0.210510 0.665560 -0.519598
O39   O     O_R   0.286120 0.210510 0.334440 -0.510016
O40   O     O_R   0.235800 0.959720 0.673040 -0.509113
O41   O     O_R   0.764200 0.959720 0.326960 -0.529977
O42   O     O_R   0.735800 0.459720 0.673040 -0.509113
O43   O     O_R   0.264200 0.459720 0.326960 -0.529977
O44   O     O_R   0.331670 0.076720 0.669350 -0.526198
O45   O     O_R   0.445900 0.919370 0.676500 -0.508647
O46   O     O_R   0.668330 0.076720 0.330650 -0.522235
O47   O     O_R   0.831670 0.576720 0.669350 -0.526197
O48   O     O_R   0.168330 0.576720 0.330650 -0.522236
O49   O     O_R   0.554100 0.919370 0.323500 -0.504013
O50   O     O_R   0.945900 0.419370 0.676500 -0.508647
O51   O     O_R   0.054100 0.419370 0.323500 -0.504013
O52   O     O_R   0.456660 0.717710 0.669820 -0.519149

loop_
_geom_bond_atom_site_label_1
_geom_bond_atom_site_label_2
_ccdc_geom_bond_type
C100  H17   S    
C62   O28   A    
C83   C87   A    
C80   C120  S    
C34   C56   A    
C14   Cl2   S    
C93   C97   A    
C21   C66   S    
C36   C40   A    
C84   C102  S    
C14   C18   S    
Cr2   O28   S    
C44   O16   A    
Cr9   O24   S    
Cr11  O48   S    
C80   C84   A    
C86   C104  S    
Cr2   O32   S    
Cr6   O16   S    
C13   C41   A    
C39   H44   S    
Cr6   O42   S    
C98   H16   S    
C24   C42   A    
C95   C117  A    
Cr4   O35   S    
C15   C19   S    
C37   H42   S    
C73   H67   S    
C111  O12   A    
C28   C46   S    
C34   C51   S    
C15   Cl3   S    
C29   C47   S    
C37   C41   A    
Cr8   O18   S    
C35   H40   S    
C52   C109  S    
C14   C21   S    
C30   C48   S    
C76   C78   S    
C90   C107  S    
C38   C42   A    
C49   H63   S    
C18   H12   S    
C86   C91   A    
C104  H26   S    
C35   C39   A    
C80   C97   A    
C118  O44   A    
C15   C25   S    
C82   C118  S    
C22   C62   S    
C81   C98   A    
C94   C98   A    
Cr7   O34   S    
C15   C16   S    
Cr11  O13   S    
Cr12  O31   S    
C12   C22   S    
C60   C69   A    
C92   C96   A    
Cr11  O21   S    
C88   H38   S    
C47   H57   S    
C6    O50   A    
Cr1   O40   S    
C6    O3    A    
C93   C115  A    
Cr10  O25   S    
C5    O49   A    
Cr5   O10   S    
Cr3   O3    S    
C24   C29   A    
C87   C114  A    
C108  H30   S    
C36   C53   A    
C51   H61   S    
Cr9   O19   S    
C5    O2    A    
C63   O25   A    
Cr1   O9    S    
C25   C99   S    
C39   C110  A    
C12   Cl1   S    
C2    C44   S    
C68   C69   A    
C65   C67   A    
Cr11  O26   S    
C10   O38   A    
C12   C17   S    
Cr8   O45   S    
C56   C113  S    
C91   C117  A    
C13   C28   A    
C2    C27   A    
C95   H13   S    
C106  H28   S    
C71   H56   S    
Cr2   O10   S    
C43   C48   S    
C59   C73   A    
C21   C61   S    
C85   C103  S    
C104  H21   S    
C8    C114  S    
C55   O17   A    
C7    O51   A    
Cr1   O14   S    
C53   C111  S    
C46   C50   S    
C23   C63   S    
C9    O37   A    
C112  O23   A    
C89   C115  A    
Cr4   O30   S    
C69   C78   S    
C120  O42   A    
Cr10  O47   S    
C31   C49   S    
C78   H2    S    
C7    C59   S    
C118  O40   A    
C26   C43   S    
C40   H46   S    
C33   O15   A    
C101  C105  S    
Cr12  O27   S    
Cr9   O46   S    
Cr3   O29   S    
C103  H25   S    
C74   C75   S    
C27   C31   A    
C9    C115  S    
C6    C60   S    
C28   C32   A    
C3    O48   A    
Cr10  O50   S    
C4    O52   A    
Cr2   O6    S    
C119  O46   A    
Cr9   O49   S    
C59   C68   A    
C94   C116  A    
C95   C100  A    
C58   C70   A    
Cr5   O41   S    
C49   H59   S    
C42   H48   S    
C82   C86   A    
C29   C34   A    
C31   C53   A    
C65   C74   S    
C105  H31   S    
C48   H62   S    
C1    O18   A    
C25   C64   S    
C106  H32   S    
C89   C106  S    
C19   C23   S    
C13   C33   S    
C75   H6    S    
C78   H8    S    
C11   O8    A    
C63   O29   A    
C17   C77   S    
C45   H54   S    
C70   H45   S    
C87   C105  S    
C45   C49   S    
C9    O6    A    
C16   C20   S    
C96   H14   S    
C105  H27   S    
C111  O32   A    
C97   H15   S    
C54   C112  S    
Cr6   O11   S    
Cr7   O17   S    
C46   H55   S    
C57   C71   A    
C47   H50   S    
C109  O1    A    
C107  H29   S    
Cr1   O36   S    
Cr8   O22   S    
C32   C50   S    
C3    C79   S    
C1    O14   A    
C8    O36   A    
Cr7   O43   S    
C44   O20   A    
C26   C110  A    
C33   O19   A    
C103  H20   S    
Cr3   O7    S    
C113  O34   A    
C74   H5    S    
C12   C14   S    
C101  H22   S    
Cr3   O33   S    
C16   C23   S    
C90   C116  A    
C23   C88   S    
C55   C110  S    
C92   C114  A    
C67   C75   S    
C84   C89   A    
Cr9   O10   S    
C102  H24   S    
C8    O5    A    
C11   C117  S    
C109  O31   A    
C104  C108  S    
C70   C71   A    
C10   C116  S    
C72   H66   S    
Cr12  O9    S    
C107  H33   S    
C66   H36   S    
C94   H11   S    
C3    O43   A    
C66   C77   S    
C30   C52   A    
Cr6   O23   S    
C77   H37   S    
C38   H43   S    
C83   C101  S    
C48   H58   S    
C92   H9    S    
C18   C22   S    
C82   C100  A    
C91   C108  S    
Cr12  O52   S    
C10   O7    A    
Cr8   O44   S    
C36   H41   S    
C2    C40   A    
C22   C77   S    
C57   C65   A    
C7    O4    A    
C43   H51   S    
C4    O45   A    
C47   C51   S    
C85   C90   A    
C76   H68   S    
C45   H52   S    
C26   C30   A    
C120  O47   A    
C68   C76   S    
C37   C54   A    
C74   H3    S    
C81   C119  S    
Cr10  O20   S    
C61   O22   A    
C32   C54   A    
C5    C57   S    
C11   O39   A    
C75   H4    S    
C19   H23   S    
C55   O21   A    
Cr5   O12   S    
C17   H1    S    
C20   H34   S    
C119  O41   A    
C79   C96   A    
Cr5   O15   S    
C64   O26   A    
Cr7   O39   S    
Cr4   O8    S    
C79   C83   A    
Cr6   O38   S    
C27   C45   S    
C99   H39   S    
Cr5   O37   S    
C101  H18   S    
Cr2   O2    S    
C72   C73   A    
C62   O24   A    
C20   C88   S    
Cr1   O1    S    
C61   O27   A    
C102  C106  S    
C46   H49   S    
C16   Cl4   S    
C18   C66   S    
C17   C21   S    
Cr4   O13   S    
C88   C99   S    
Cr10  O11   S    
C4    C58   S    
Cr12  O5    S    
Cr3   O11   S    
C76   H7    S    
C93   H10   S    
C58   C67   A    
C113  O35   A    
C38   C56   A    
C43   H53   S    
C1    C24   S    
C112  O33   A    
C20   C25   S    
C108  H35   S    
C50   H60   S    
C35   C52   A    
C60   C72   A    
C41   H47   S    
C103  C107  S    
Cr8   O9    S    
Cr4   O4    S    
Cr11  O51   S    
Cr7   O13   S    
C50   H64   S    
C102  H19   S    
C64   O30   A    
C81   C85   A    
C51   H65   S    
C19   C99   S    
