data_mof_unit_52494.cif
_audit_creation_date              2012-12-10T16:56:31-0500
_audit_creation_method            fapswitch 2.2
_symmetry_space_group_name_H-M    P1
_symmetry_Int_Tables_number       1
_space_group_crystal_system       triclinic
_cell_length_a                    7.77204
_cell_length_b                    8.602866
_cell_length_c                    15.692226
_cell_angle_alpha                 90.458759
_cell_angle_beta                  87.906006
_cell_angle_gamma                 93.08642
_cell_volume                      1046.9700555

loop_
_atom_site_label
_atom_site_type_symbol
_atom_type_description
_atom_site_fract_x
_atom_site_fract_y
_atom_site_fract_z
_atom_type_partial_charge
C1    C     C_R   0.544607 0.794041 0.497021 0.907984
C2    C     C_3   0.387754 0.362625 0.024241 0.236168
C3    C     C_1   0.517806 0.493869 0.750226 -0.194557
C4    C     C_1   0.479996 0.492834 0.249907 -0.185897
C5    C     C_3   0.345948 0.498350 0.967198 0.198960
C6    C     C_3   0.647853 0.458637 0.033172 0.211938
C7    C     C_3   0.516047 0.479892 0.916184 0.019321
C8    C     C_3   0.478005 0.479770 0.083932 0.053237
C9    C     C_1   0.523501 0.487205 0.825305 -0.031988
C10   C     C_1   0.472169 0.486234 0.174874 -0.017307
C11   C     C_3   0.792012 0.822839 0.014090 -0.790921
C12   C     C_R   0.455299 0.206001 0.502616 0.907836
C13   C     C_3   0.337096 0.111212 0.094980 -0.818798
C14   C     C_3   0.817423 0.291447 0.118572 -0.806596
C15   C     C_3   0.104980 0.396279 0.881489 -0.795967
C16   C     C_3   0.634689 0.021719 0.335370 -0.781425
C17   C     C_3   0.363036 0.981467 0.663795 -0.764076
C18   C     C_R   0.505367 0.499873 0.661807 0.893202
C19   C     C_R   0.494489 0.499213 0.338230 0.891238
C20   C     C_2   0.561741 0.955343 0.482552 -0.020742
C21   C     C_2   0.437665 0.044679 0.516509 -0.022483
C22   C     C_3   0.436247 0.618251 0.027166 -0.313937
C23   C     C_3   0.558182 0.339870 0.972292 -0.286503
C24   C     C_3   0.607595 0.595259 0.976741 0.192642
H1    H     H_    0.827845 0.678247 0.908756 0.226064
H2    H     H_    0.609981 0.228885 0.949005 0.164706
H3    H     H_    0.916167 0.466236 0.036562 0.252945
H4    H     H_    0.918252 0.303191 0.166754 0.241523
H5    H     H_    0.848204 0.197491 0.072397 0.232737
H6    H     H_    0.694277 0.258043 0.153179 0.255136
H7    H     H_    0.179620 0.629664 0.900273 0.232938
H8    H     H_    0.976436 0.427646 0.860577 0.232001
H9    H     H_    0.086025 0.289882 0.920794 0.260616
H10   H     H_    0.186741 0.371703 0.824077 0.256908
H11   H     H_    0.807230 0.958410 0.424663 0.240150
H12   H     H_    0.874833 0.918597 0.984700 0.235351
H13   H     H_    0.740791 0.073942 0.293788 0.240768
H14   H     H_    0.522934 0.096582 0.332691 0.229057
H15   H     H_    0.597664 0.903584 0.310688 0.229369
H16   H     H_    0.191135 0.040127 0.573165 0.239317
H17   H     H_    0.257227 0.928480 0.705274 0.239794
H18   H     H_    0.397187 0.100723 0.687767 0.225981
H19   H     H_    0.476373 0.908729 0.667460 0.232898
H20   H     H_    0.012684 0.383083 0.436733 0.196455
H21   H     H_    0.987313 0.616916 0.563265 0.196224
H22   H     H_    0.869289 0.760190 0.059582 0.247990
H23   H     H_    0.682212 0.874917 0.049012 0.244444
H24   H     H_    0.160824 0.281747 0.084331 0.235902
H25   H     H_    0.234066 0.019109 0.107969 0.240795
H26   H     H_    0.390510 0.151000 0.156603 0.236813
H27   H     H_    0.439627 0.060053 0.054326 0.250300
H28   H     H_    0.384550 0.729803 0.049658 0.159782
N1    N     N_2   0.950320 0.457950 0.477300 -0.171000
N2    N     N_2   0.049680 0.542050 0.522700 -0.171528
N3    N     N_2   0.730401 0.717975 0.948114 -0.298501
N4    N     N_2   0.265404 0.239335 0.051880 -0.304169
N5    N     N_2   0.808440 0.437726 0.074336 -0.297856
N6    N     N_2   0.181381 0.523769 0.930423 -0.326339
N7    N     N_2   0.692082 0.012111 0.421832 -0.289527
N8    N     N_2   0.306969 0.987879 0.576999 -0.293058
O1    O     O_R   0.389250 0.738570 0.505570 -0.583855
O2    O     O_R   0.610750 0.261430 0.494430 -0.584411
O3    O     O_R   0.678390 0.711630 0.491020 -0.644644
O4    O     O_R   0.321610 0.288370 0.508980 -0.645431
O5    O     O_R   0.355460 0.513480 0.630490 -0.605565
O6    O     O_R   0.644540 0.486520 0.369510 -0.598928
O7    O     O_R   0.644600 0.486540 0.615950 -0.623628
O8    O     O_R   0.355400 0.513460 0.384050 -0.625295
Zn1   Zn    Zn3+2 0.306940 0.517990 0.509710 0.951295
Zn2   Zn    Zn3+2 0.693060 0.482010 0.490290 0.954148

loop_
_geom_bond_atom_site_label_1
_geom_bond_atom_site_label_2
_ccdc_geom_bond_type
C8    C22   S    
C16   H14   S    
C17   H19   S    
C3    C9    T    
C24   N3    S    
C12   O2    A    
C16   H15   S    
O6    Zn2   S    
C15   H10   S    
C11   H23   S    
C7    C23   S    
O3    Zn2   S    
H24   N4    S    
C16   H13   S    
O7    Zn2   S    
C6    C24   S    
C13   N4    S    
C5    C7    S    
C15   H8    S    
C2    N4    S    
O4    Zn1   S    
C18   O5    A    
C6    N5    S    
C21   N8    S    
C13   H25   S    
N2    Zn1   S    
C5    N6    S    
C3    C18   S    
O5    Zn1   S    
N1    Zn2   S    
C1    O3    A    
H7    N6    S    
C22   H28   S    
C11   H12   S    
C14   H6    S    
H21   N2    S    
C17   H17   S    
C2    C23   S    
C13   H27   S    
C12   O4    A    
C15   N6    S    
C22   C24   S    
C2    C5    S    
H11   N7    S    
C6    C23   S    
C17   N8    S    
C4    C10   T    
C7    C24   S    
C12   C21   S    
H1    N3    S    
C19   O8    A    
C11   N3    S    
C20   C21   D    
O2    Zn2   S    
C19   O6    A    
C8    C10   S    
H3    N5    S    
C23   H2    S    
O1    Zn1   S    
H16   N8    S    
C7    C9    S    
C14   N5    S    
C17   H18   S    
C11   H22   S    
C6    C8    S    
C14   H5    S    
C14   H4    S    
C18   O7    A    
N1    N2    D    
C4    C19   S    
H20   N1    S    
C15   H9    S    
C2    C8    S    
C5    C22   S    
C13   H26   S    
C20   N7    S    
O8    Zn1   S    
C1    C20   S    
C16   N7    S    
C1    O1    A    
