data_mof_unit_8285.cif
_audit_creation_date              2013-03-05T16:10:14-0500
_audit_creation_method            fapswitch 2.2
_symmetry_space_group_name_H-M    P1
_symmetry_Int_Tables_number       1
_space_group_crystal_system       triclinic
_cell_length_a                    9.874098
_cell_length_b                    10.692498
_cell_length_c                    13.108866
_cell_angle_alpha                 90.498503
_cell_angle_beta                  70.113322
_cell_angle_gamma                 89.587199
_cell_volume                      1301.35989113

loop_
_atom_site_label
_atom_site_type_symbol
_atom_site_description
_atom_site_fract_x
_atom_site_fract_y
_atom_site_fract_z
_atom_type_partial_charge
O1    O     O_R   0.385370 0.683250 0.500010 -0.610873
O2    O     O_R   0.614700 0.683220 0.500010 -0.625040
C1    C     C_R   0.499615 0.739989 0.500306 0.883489
O3    O     O_R   0.328400 0.499990 0.653620 -0.551092
O4    O     O_R   0.557730 0.499960 0.653620 -0.622031
C2    C     C_R   0.420214 0.494300 0.704178 0.881416
Zn1   Zn    Zn3+2 0.346870 0.500020 0.500000 1.015306
Zn2   Zn    Zn3+2 0.653130 0.499980 0.500000 0.961697
O5    O     O_R   0.385300 0.316780 0.499990 -0.622393
O6    O     O_R   0.614630 0.316750 0.499990 -0.639026
O7    O     O_R   0.442270 0.500040 0.346380 -0.590206
O8    O     O_R   0.671600 0.500010 0.346380 -0.603934
C3    C     C_R   0.500431 0.260016 0.499675 0.860928
C4    C     C_R   0.579976 0.499812 0.295503 0.900378
C5    C     C_R   0.776526 0.366759 0.018322 0.310610
H1    H     H_    0.829669 0.389603 0.164000 0.199847
H2    H     H_    0.766807 0.268693 0.828171 0.196694
C6    C     C_R   0.628764 0.480886 0.178509 -0.119928
C7    C     C_R   0.234020 0.538327 0.881219 -0.118913
C8    C     C_R   0.189505 0.545405 0.993227 -0.151599
C9    C     C_R   0.281906 0.508344 0.048238 -0.023364
C10   C     C_R   0.424871 0.465162 0.987661 0.030195
C11   C     C_R   0.456851 0.436057 0.876859 0.081962
C12   C     C_R   0.538802 0.452074 0.030391 0.062701
C13   C     C_R   0.666262 0.382976 0.972443 0.037825
C14   C     C_R   0.678081 0.329987 0.871812 -0.169338
C15   C     C_R   0.576790 0.358569 0.823575 -0.178920
C16   C     C_R   0.532864 0.512392 0.126273 -0.188933
C17   C     C_R   0.752761 0.410989 0.124013 -0.269679
C18   C     C_R   0.367826 0.485155 0.822235 -0.122210
H3    H     H_    0.449549 0.580524 0.164922 0.155329
H4    H     H_    0.162834 0.573774 0.840885 0.220043
H5    H     H_    0.081436 0.579353 0.037223 0.185473
H6    H     H_    0.592257 0.317658 0.744561 0.162394
C19   C     C_R   0.598297 0.935667 0.536606 -0.155874
H7    H     H_    0.673683 0.886316 0.566043 0.165206
C20   C     C_R   0.599121 0.063848 0.535953 -0.180430
H8    H     H_    0.674869 0.112832 0.565021 0.155548
C21   C     C_R   0.500832 0.127556 0.499412 -0.015180
C22   C     C_R   0.402077 0.064344 0.463168 -0.161162
H9    H     H_    0.326723 0.113671 0.433690 0.162003
C23   C     C_R   0.401605 0.936185 0.463489 -0.175936
H10   H     H_    0.326533 0.887213 0.433768 0.183500
C24   C     C_R   0.499430 0.872463 0.500448 -0.024076
C25   C     C_R   0.947857 0.400597 0.458508 -0.082797
H11   H     H_    0.909883 0.321300 0.424525 0.153094
C26   C     C_R   0.091413 0.400588 0.458636 -0.025098
H12   H     H_    0.161281 0.321208 0.424955 0.168834
N1    N     N_R   0.142790 0.500030 0.500030 -0.121131
C27   C     C_R   0.048754 0.598191 0.544985 0.015702
C28   C     C_R   0.906511 0.598191 0.542802 -0.097676
H13   H     H_    0.833763 0.675453 0.578254 0.161309
N2    N     N_R   0.857180 0.499940 0.500010 -0.094757
C29   C     C_2   0.087862 0.704388 0.601107 0.924813
O9    O     O_2   0.141546 0.686135 0.670896 -0.610905
O10   O     O_R   0.053624 0.826175 0.579556 -0.839328
H14   H     H_    0.082836 0.891331 0.624561 0.350227
N3    N     N_R   0.910956 0.305057 0.960200 0.194692
O11   O     O_R   0.973619 0.234804 0.011930 -0.377206
O12   O     O_R   0.983442 0.337089 0.861177 -0.413162
C30   C     C_2   0.216265 0.501316 0.167496 0.882863
O13   O     O_2   0.243033 0.412374 0.215685 -0.624934
O14   O     O_R   0.120728 0.595618 0.224187 -0.805266
H15   H     H_    0.085089 0.583290 0.305347 0.348317

loop_
_geom_bond_atom_site_label_1
_geom_bond_atom_site_label_2
_geom_bond_distance
_ccdc_geom_bond_type
Zn2   N2    2.014851 S    
O1    C1    1.285855 A    
O4    Zn2   1.911055 S    
C16   H3    1.079608 S    
C20   H8    1.083975 S    
C11   C15   1.410652 A    
C5    N3    1.438162 S    
C4    C6    1.454539 S    
C9    C30   1.477553 S    
C26   H12   1.081248 S    
Zn2   O8    1.959271 S    
C13   C14   1.398610 A    
Zn1   O5    1.993005 S    
C8    C9    1.398883 A    
C22   C23   1.370423 A    
O2    C1    1.283271 A    
H1    C17   1.083572 S    
C25   N2    1.367773 A    
C26   N1    1.366523 A    
C6    C17   1.396577 A    
O1    Zn1   1.998421 S    
C25   H11   1.081470 S    
C12   C13   1.425931 A    
Zn1   O7    1.911056 S    
C19   C24   1.397543 A    
C14   C15   1.386639 A    
C27   C29   1.471329 S    
C23   C24   1.395223 A    
O3    Zn1   1.959270 S    
O4    C2    1.294719 A    
C7    H4    1.081552 S    
C8    H5    1.084042 S    
O3    C2    1.293649 A    
C22   H9    1.083799 S    
C2    C18   1.459760 S    
O8    C4    1.293757 A    
C5    C17   1.401480 A    
C29   O10   1.398174 S    
C25   C26   1.418061 A    
C15   H6    1.082153 S    
C30   O13   1.222190 D    
C20   C21   1.395637 A    
O7    C4    1.294847 A    
C10   C12   1.423611 A    
C1    C24   1.416452 S    
C3    C21   1.416279 S    
C5    C13   1.421878 A    
C23   H10   1.083508 S    
H2    C14   1.081005 S    
N3    O12   1.301449 A    
C28   H13   1.082627 S    
C11   C18   1.410385 A    
C12   C16   1.390844 A    
C6    C16   1.385497 A    
O10   H14   1.013971 S    
Zn1   N1    2.014971 S    
Zn2   O6    1.998423 S    
N1    C27   1.383470 A    
C19   C20   1.370744 A    
C21   C22   1.397321 A    
C30   O14   1.398283 S    
O5    C3    1.283572 A    
C29   O9    1.219660 D    
C27   C28   1.414514 A    
N3    O11   1.301763 A    
C9    C10   1.434615 A    
C7    C18   1.397581 A    
O6    C3    1.285499 A    
C10   C11   1.408890 A    
O2    Zn2   1.993005 S    
C7    C8    1.383237 A    
O14   H15   1.010704 S    
C28   N2    1.355957 A    
C19   H7    1.083851 S    
