data_mof_unit_29708.cif
_audit_creation_date              2012-12-10T20:01:19-0500
_audit_creation_method            fapswitch 2.2
_symmetry_space_group_name_H-M    P1
_symmetry_Int_Tables_number       1
_space_group_crystal_system       triclinic
_cell_length_a                    18.416388
_cell_length_b                    18.433381
_cell_length_c                    39.485729
_cell_angle_alpha                 89.974925
_cell_angle_beta                  89.966504
_cell_angle_gamma                 90.280472
_cell_volume                      13404.3048576

loop_
_atom_site_label
_atom_site_type_symbol
_atom_type_description
_atom_site_fract_x
_atom_site_fract_y
_atom_site_fract_z
_atom_type_partial_charge
C1    C     C_R   0.499939 0.999756 0.909255 0.830803
C2    C     C_R   0.500527 0.993605 0.801626 -0.096902
C3    C     C_R   0.750839 0.697646 0.028258 0.019586
C4    C     C_R   0.323379 0.268537 0.011391 0.082919
C5    C     C_R   0.234417 0.710103 0.032220 0.077814
C6    C     C_R   0.697250 0.752202 0.028185 0.088726
C7    C     C_R   0.763216 0.292043 0.032513 0.070629
C8    C     C_R   0.788565 0.264965 0.532667 0.018062
C9    C     C_R   0.768388 0.821193 0.513775 0.019325
C10   C     C_R   0.215872 0.730654 0.532148 0.035909
C11   C     C_R   0.249471 0.196292 0.527665 0.017738
C12   C     C_R   0.821973 0.767105 0.513385 0.083827
C13   C     C_R   0.489621 0.998703 0.302049 -0.110509
C14   C     C_R   0.733573 0.210901 0.532515 0.077147
C15   C     C_R   0.195791 0.250714 0.527523 0.089030
C16   C     C_R   0.270006 0.785090 0.531780 0.078051
C17   C     C_3   0.179360 0.760441 0.940042 0.468494
C18   C     C_3   0.200377 0.140117 0.963685 0.479689
C19   C     C_3   0.820140 0.239333 0.942680 0.487279
C20   C     C_3   0.784586 0.844457 0.949197 0.466618
C21   C     C_3   0.139433 0.198487 0.964395 0.452603
C22   C     C_3   0.241774 0.819039 0.939732 0.424631
C23   C     C_3   0.841941 0.781589 0.947992 0.439329
C24   C     C_R   0.005123 0.499508 0.301678 -0.099593
C25   C     C_3   0.758312 0.181155 0.942680 0.438753
C26   C     C_3   0.681176 0.258490 0.439779 0.470744
C27   C     C_3   0.705403 0.645578 0.458827 0.483417
C28   C     C_3   0.315151 0.745912 0.439086 0.445981
C29   C     C_3   0.286785 0.346222 0.450223 0.467298
C30   C     C_3   0.648523 0.707686 0.457597 0.456675
C31   C     C_3   0.743710 0.316846 0.439468 0.426613
C32   C     C_3   0.344126 0.283409 0.449085 0.443814
C33   C     C_3   0.255927 0.684719 0.439534 0.471275
C34   C     C_R   0.944078 0.533097 0.819492 0.458415
C35   C     C_1   0.001519 0.500161 0.765888 0.036959
C36   C     C_R   0.521450 0.931872 0.820016 0.470029
C37   C     C_R   0.059555 0.468459 0.819627 0.471840
C38   C     C_R   0.478710 0.057134 0.818428 0.461647
C39   C     C_R   0.431911 0.028060 0.320752 0.463941
C40   C     C_R   0.025743 0.437044 0.319624 0.466572
C41   C     C_R   0.550504 0.969598 0.318470 0.470791
C42   C     C_R   0.983266 0.562469 0.318947 0.479914
C43   C     C_R   0.945128 0.534018 0.854921 -0.321104
C44   C     C_R   0.519306 0.933921 0.855511 -0.338377
C45   C     C_R   0.058006 0.467150 0.855048 -0.336619
C46   C     C_1   0.501365 0.991996 0.765323 0.040229
C47   C     C_R   0.479196 0.058870 0.853932 -0.344042
C48   C     C_R   0.436852 0.030334 0.356134 -0.329295
C49   C     C_R   0.021543 0.437116 0.355081 -0.340253
C50   C     C_R   0.552548 0.968858 0.353886 -0.332720
C51   C     C_R   0.982501 0.562438 0.354465 -0.338637
C52   C     C_3   0.178047 0.711073 0.885008 0.140883
C53   C     C_3   0.115099 0.663771 0.872703 -0.313956
C54   C     C_3   0.099120 0.678134 0.835376 -1.019157
C55   C     C_3   0.221629 0.107485 0.906314 0.131517
C56   C     C_3   0.280854 0.058003 0.892538 -0.282028
C57   C     C_1   0.487302 0.999286 0.265894 0.036369
C58   C     C_3   0.256741 0.020275 0.860042 -1.054432
C59   C     C_3   0.806551 0.304386 0.891682 0.136555
C60   C     C_3   0.871266 0.349156 0.879190 -0.318066
C61   C     C_3   0.878121 0.344518 0.840733 -1.010467
C62   C     C_3   0.756377 0.885280 0.893883 0.110538
C63   C     C_3   0.709438 0.952589 0.889897 -0.280822
C64   C     C_3   0.732269 0.997210 0.859071 -1.044603
C65   C     C_3   0.083858 0.224992 0.912040 0.108300
C66   C     C_3   0.095815 0.266667 0.879084 -0.326651
C67   C     C_3   0.048642 0.236567 0.850572 -0.971358
C68   C     C_1   0.005473 0.498783 0.265362 0.041379
C69   C     C_3   0.309894 0.840536 0.889601 0.109755
C70   C     C_3   0.361687 0.801357 0.865535 -0.341231
C71   C     C_3   0.358513 0.832906 0.829806 -0.932811
C72   C     C_3   0.877084 0.746979 0.892638 0.142135
C73   C     C_3   0.840528 0.717427 0.860656 -0.354843
C74   C     C_3   0.884357 0.735811 0.828974 -0.913621
C75   C     C_3   0.674645 0.172193 0.897125 0.110617
C76   C     C_3   0.616276 0.216614 0.879156 -0.374363
C77   C     C_3   0.611798 0.197612 0.841584 -0.917633
C78   C     C_3   0.681732 0.205156 0.385563 0.139012
C79   C     C_1   0.487328 0.999634 0.235584 0.126401
C80   C     C_3   0.616840 0.159330 0.374227 -0.312048
C81   C     C_3   0.600973 0.170951 0.336698 -1.025586
C82   C     C_3   0.736347 0.611723 0.402643 0.113965
C83   C     C_3   0.791449 0.553576 0.393517 -0.269012
C84   C     C_3   0.771077 0.515254 0.360603 -1.058327
C85   C     C_3   0.326475 0.773010 0.380878 0.142730
C86   C     C_3   0.385470 0.821334 0.365405 -0.328813
C87   C     C_3   0.402054 0.799115 0.328991 -1.010878
C88   C     C_3   0.259692 0.392085 0.395571 0.081943
C89   C     C_3   0.212773 0.460052 0.394212 -0.264802
C90   C     C_1   0.004883 0.498472 0.234966 0.123623
C91   C     C_3   0.236842 0.511737 0.366143 -0.966549
C92   C     C_3   0.616549 0.747644 0.402555 0.142390
C93   C     C_3   0.652093 0.785787 0.372372 -0.359446
C94   C     C_3   0.608255 0.775080 0.340038 -0.934592
C95   C     C_3   0.815649 0.334676 0.390201 0.109271
C96   C     C_3   0.868773 0.293513 0.367539 -0.349542
C97   C     C_3   0.868594 0.322724 0.331346 -0.930667
C98   C     C_3   0.380430 0.251008 0.393629 0.139221
C99   C     C_3   0.344766 0.221303 0.361481 -0.337430
C100  C     C_3   0.391248 0.235969 0.330219 -0.928091
C101  C     C_1   0.001080 0.500086 0.735610 0.122690
C102  C     C_3   0.155105 0.736280 0.408407 0.122210
C103  C     C_3   0.081261 0.703067 0.417461 -0.330029
C104  C     C_3   0.018949 0.753712 0.408399 -0.987923
C105  C     C_3   0.823992 0.533556 0.803503 0.084993
C106  C     C_3   0.816660 0.480954 0.773647 -0.357042
C107  C     C_3   0.740815 0.447508 0.771951 -0.967737
C108  C     C_3   0.608323 0.846477 0.807112 0.094136
C109  C     C_3   0.655557 0.880504 0.779322 -0.365614
C110  C     C_3   0.731794 0.848305 0.779119 -0.968744
C111  C     C_3   0.179854 0.474913 0.804497 0.098719
C112  C     C_R   0.000488 0.500017 0.909338 0.823137
C113  C     C_1   0.501721 0.991808 0.734927 0.121627
C114  C     C_3   0.184012 0.531260 0.776008 -0.363110
C115  C     C_3   0.255988 0.572543 0.776620 -0.967505
C116  C     C_3   0.392380 0.139913 0.801829 0.091965
C117  C     C_3   0.347962 0.099503 0.774908 -0.368418
C118  C     C_3   0.273704 0.134062 0.769581 -0.945997
C119  C     C_3   0.310530 0.016008 0.308634 0.090494
C120  C     C_3   0.306533 0.956830 0.281423 -0.356019
C121  C     C_3   0.237705 0.911117 0.285046 -0.963838
C122  C     C_3   0.115874 0.354958 0.307181 0.096406
C123  C     C_3   0.164416 0.392953 0.281035 -0.364506
C124  C     C_R   0.514057 0.937874 0.182327 0.320786
C125  C     C_3   0.242321 0.365237 0.282694 -0.967584
C126  C     C_3   0.669679 0.976902 0.301189 0.090336
C127  C     C_3   0.672296 0.031570 0.272004 -0.358562
C128  C     C_3   0.745311 0.070874 0.270429 -0.968901
C129  C     C_3   0.898238 0.648021 0.303707 0.092105
C130  C     C_3   0.851119 0.608753 0.277421 -0.373723
C131  C     C_3   0.776684 0.644067 0.273917 -0.955045
C132  C     C_3   0.483517 0.821721 0.198130 0.146464
C133  C     C_3   0.427246 0.828053 0.226601 -0.376413
C134  C     C_3   0.376399 0.762484 0.227410 -0.980838
C135  C     C_R   0.036757 0.556225 0.180952 0.334219
C136  C     C_3   0.144974 0.609033 0.196693 0.143327
C137  C     C_3   0.175276 0.564814 0.226315 -0.381895
C138  C     C_3   0.257946 0.569317 0.227785 -0.970221
C139  C     C_3   0.494374 0.178580 0.198674 0.150362
C140  C     C_3   0.549236 0.169725 0.227568 -0.395493
C141  C     C_3   0.598739 0.235959 0.230818 -0.970596
C142  C     C_3   0.863944 0.385428 0.199305 0.155048
C143  C     C_3   0.836891 0.425008 0.230969 -0.396410
C144  C     C_3   0.754841 0.417474 0.235129 -0.968500
C145  C     C_3   0.987847 0.322351 0.698151 0.142691
C146  C     C_R   0.468997 0.061960 0.181545 0.346674
C147  C     C_3   0.931031 0.333092 0.726112 -0.381551
C148  C     C_3   0.877523 0.269724 0.727675 -0.977400
C149  C     C_3   0.642308 0.104353 0.698618 0.145453
C150  C     C_3   0.671738 0.059073 0.728090 -0.384444
C151  C     C_3   0.754327 0.063810 0.730258 -0.969602
C152  C     C_3   0.009865 0.678358 0.698917 0.154648
C153  C     C_3   0.064206 0.669424 0.728019 -0.388097
C154  C     C_3   0.115558 0.734370 0.730606 -0.979670
C155  C     C_3   0.362415 0.879604 0.697047 0.141707
C156  C     C_3   0.333368 0.920171 0.728037 -0.386625
C157  C     C_R   0.968483 0.442182 0.181155 0.357350
C158  C     C_3   0.251223 0.911938 0.731380 -0.972267
C159  C     C_3   0.628447 0.879490 0.134483 0.148731
C160  C     C_3   0.666242 0.919065 0.105171 -0.381399
C161  C     C_3   0.748308 0.908178 0.106118 -0.985104
C162  C     C_3   0.017459 0.677655 0.128984 0.121277
C163  C     C_3   0.967620 0.680601 0.097921 -0.376470
C164  C     C_3   0.927119 0.752513 0.095873 -0.985499
C165  C     C_3   0.367951 0.110291 0.121841 0.142205
C166  C     C_3   0.339320 0.177286 0.103423 -0.311696
C167  C     C_3   0.261015 0.166667 0.091704 -0.998116
C168  C     C_R   0.021401 0.437460 0.681991 0.323685
C169  C     C_3   0.991998 0.335336 0.117475 0.109121
C170  C     C_3   0.966843 0.298617 0.084765 -0.322841
C171  C     C_3   0.024625 0.247812 0.070655 -0.991477
C172  C     C_3   0.130357 0.376417 0.632566 0.149696
C173  C     C_3   0.167500 0.416085 0.603105 -0.381330
C174  C     C_3   0.249310 0.403291 0.603000 -0.987858
C175  C     C_3   0.514925 0.175257 0.631027 0.120485
C176  C     C_3   0.463933 0.178370 0.600370 -0.378021
C177  C     C_3   0.422616 0.249891 0.598997 -0.984472
C178  C     C_3   0.873949 0.613254 0.624637 0.140634
C179  C     C_R   0.535007 0.051572 0.681619 0.333294
C180  C     C_3   0.845801 0.679314 0.605383 -0.313730
C181  C     C_3   0.766012 0.670601 0.595731 -1.000073
C182  C     C_3   0.484172 0.820227 0.625958 0.113117
C183  C     C_3   0.531362 0.819844 0.593949 -0.366359
C184  C     C_3   0.570634 0.747761 0.589553 -0.977816
C185  C     C_R   0.979821 0.562752 0.682019 0.342392
C186  C     C_R   0.467886 0.936939 0.680431 0.333314
C187  C     C_R   0.522736 0.939908 0.146912 0.308848
C188  C     C_R   0.000054 0.500076 0.409272 0.824659
C189  C     C_R   0.031934 0.558792 0.145350 0.296749
C190  C     C_R   0.468258 0.060661 0.145970 0.278843
C191  C     C_R   0.969502 0.441535 0.145557 0.282039
C192  C     C_R   0.026909 0.439265 0.646442 0.307967
C193  C     C_R   0.530768 0.055747 0.646041 0.290813
C194  C     C_R   0.975305 0.561300 0.646534 0.281944
C195  C     C_R   0.470140 0.937601 0.644729 0.291087
C196  C     C_R   0.497034 0.000234 0.128410 -0.342392
C197  C     C_R   0.000168 0.500444 0.127789 -0.322917
C198  C     C_R   0.000699 0.500113 0.628433 -0.343976
C199  C     C_R   0.499704 0.000016 0.409330 0.830029
C200  C     C_R   0.500019 0.997869 0.627764 -0.307238
C201  C     C_R   0.489511 0.999677 0.199389 -0.222211
C202  C     C_R   0.003468 0.498834 0.198630 -0.221738
C203  C     C_R   0.000674 0.500095 0.699453 -0.222926
C204  C     C_R   0.501810 0.993183 0.698591 -0.212996
C205  C     C_R   0.499656 0.000037 0.091000 0.871525
C206  C     C_R   0.999998 0.500387 0.090770 0.930310
C207  C     C_R   0.000223 0.500011 0.591003 0.872813
C208  C     C_R   0.499976 0.999861 0.590773 0.935788
C209  C     C_R   0.640621 0.860698 0.000604 0.857525
C210  C     C_R   0.001133 0.500127 0.872561 -0.099377
C211  C     C_R   0.139156 0.640631 0.000554 0.869820
C212  C     C_R   0.360666 0.140726 0.999718 0.852341
C213  C     C_R   0.860758 0.359094 0.000665 0.872593
C214  C     C_R   0.640907 0.139353 0.000759 0.853597
C215  C     C_R   0.140873 0.360649 0.999743 0.829111
C216  C     C_R   0.359448 0.860594 0.000580 0.847728
C217  C     C_R   0.860224 0.640287 0.000487 0.846100
C218  C     C_R   0.140546 0.360610 0.500558 0.855905
C219  C     C_R   0.639130 0.140665 0.500576 0.872024
C220  C     C_R   0.860573 0.640674 0.499740 0.853310
C221  C     C_R   0.499601 0.997565 0.872362 -0.096575
C222  C     C_R   0.360286 0.859768 0.500248 0.869300
C223  C     C_R   0.140937 0.638988 0.500774 0.806103
C224  C     C_R   0.641027 0.860798 0.499686 0.831438
C225  C     C_R   0.859415 0.360602 0.500593 0.848916
C226  C     C_R   0.360208 0.140260 0.500486 0.844172
C227  C     C_R   0.254982 0.796805 0.975684 -0.030199
C228  C     C_R   0.181478 0.233830 0.992592 -0.060313
C229  C     C_R   0.756122 0.191308 0.980308 -0.064696
C230  C     C_R   0.804113 0.752401 0.978781 -0.030274
C231  C     C_R   0.234121 0.181455 0.992387 -0.108311
C232  C     C_R   0.496516 0.999988 0.372570 -0.099678
C233  C     C_R   0.202504 0.745648 0.975723 -0.052241
C234  C     C_R   0.753500 0.805085 0.979146 -0.047162
C235  C     C_R   0.809284 0.243175 0.980301 -0.072812
C236  C     C_R   0.754530 0.297194 0.475899 -0.033439
C237  C     C_R   0.682792 0.735637 0.489574 -0.080803
C238  C     C_R   0.226624 0.720036 0.471300 -0.126376
C239  C     C_R   0.305052 0.253249 0.479301 -0.031389
C240  C     C_R   0.734800 0.682385 0.489955 -0.102684
C241  C     C_R   0.702030 0.246063 0.475946 -0.054156
C242  C     C_R   0.254245 0.305750 0.479543 -0.048295
C243  C     C_R   0.000545 0.499683 0.372393 -0.096073
C244  C     C_R   0.279649 0.772540 0.471071 -0.056537
C245  C     C_R   0.301706 0.807124 0.002802 -0.117676
C246  C     C_R   0.197798 0.305885 0.000572 -0.074257
C247  C     C_R   0.700890 0.190725 0.004348 -0.081391
C248  C     C_R   0.805162 0.696415 0.002345 -0.130419
C249  C     C_R   0.306003 0.197479 0.000416 -0.045589
C250  C     C_R   0.191872 0.698781 0.002737 -0.108624
C251  C     C_R   0.697338 0.806452 0.002577 -0.116007
C252  C     C_R   0.810068 0.298728 0.004177 -0.071685
C253  C     C_R   0.801322 0.307483 0.502981 -0.114300
C254  C     C_R   0.001693 0.500419 0.802010 -0.113490
C255  C     C_R   0.698038 0.806085 0.500482 -0.066592
C256  C     C_R   0.196142 0.695233 0.501486 -0.117154
C257  C     C_R   0.305047 0.196269 0.502333 -0.128879
C258  C     C_R   0.805674 0.697261 0.500444 -0.048089
C259  C     C_R   0.691471 0.199150 0.502929 -0.105046
C260  C     C_R   0.197067 0.306148 0.502460 -0.115616
C261  C     C_R   0.304270 0.804354 0.500982 -0.126129
C262  C     C_R   0.289384 0.764122 0.032374 0.018228
C263  C     C_R   0.269664 0.322702 0.011561 0.017124
C264  C     C_R   0.708391 0.238143 0.032693 0.016700
H1    H     H_    0.901809 0.559725 0.868804 0.152915
H2    H     H_    0.383642 0.758594 0.059069 0.232118
H3    H     H_    0.568064 0.174306 0.389192 0.247650
H4    H     H_    0.584056 0.227855 0.332079 0.267988
H5    H     H_    0.556564 0.134134 0.328532 0.275819
H6    H     H_    0.649977 0.159329 0.321337 0.272234
H7    H     H_    0.736689 0.652024 0.381907 0.143222
H8    H     H_    0.681063 0.587563 0.403339 0.099533
H9    H     H_    0.845486 0.579649 0.390427 0.225824
H10   H     H_    0.794702 0.513296 0.414346 0.268151
H11   H     H_    0.721318 0.481896 0.364220 0.264282
H12   H     H_    0.816204 0.479709 0.352555 0.271813
H13   H     H_    0.265948 0.409197 0.043551 0.221343
H14   H     H_    0.761374 0.555269 0.340188 0.274486
H15   H     H_    0.277381 0.776690 0.364681 0.153056
H16   H     H_    0.344064 0.715292 0.380284 0.124031
H17   H     H_    0.366961 0.878640 0.365576 0.229125
H18   H     H_    0.435773 0.817601 0.380830 0.236467
H19   H     H_    0.426021 0.743955 0.328409 0.271652
H20   H     H_    0.441243 0.838110 0.317672 0.273075
H21   H     H_    0.351786 0.799348 0.313490 0.275268
H22   H     H_    0.251018 0.361591 0.371724 0.137798
H23   H     H_    0.318089 0.407179 0.396044 0.100599
H24   H     H_    0.277304 0.430976 0.001577 0.206055
H25   H     H_    0.156002 0.443110 0.389322 0.231567
H26   H     H_    0.215025 0.488787 0.418899 0.280573
H27   H     H_    0.293620 0.530072 0.370439 0.256160
H28   H     H_    0.200911 0.559937 0.365926 0.302940
H29   H     H_    0.233048 0.484650 0.341121 0.257350
H30   H     H_    0.561963 0.771426 0.407013 0.175027
H31   H     H_    0.610183 0.689199 0.396402 0.083145
H32   H     H_    0.657605 0.844382 0.377963 0.224320
H33   H     H_    0.707748 0.764911 0.368295 0.217048
H34   H     H_    0.600602 0.716385 0.334682 0.249542
H35   H     H_    0.660741 0.180812 0.070832 0.199069
H36   H     H_    0.637566 0.800091 0.318390 0.299248
H37   H     H_    0.554596 0.801349 0.342675 0.285858
H38   H     H_    0.838883 0.389130 0.395716 0.184826
H39   H     H_    0.763659 0.341017 0.376350 0.114683
H40   H     H_    0.924421 0.298079 0.378232 0.223068
H41   H     H_    0.853608 0.235124 0.366863 0.229143
H42   H     H_    0.814176 0.315264 0.319691 0.254199
H43   H     H_    0.909038 0.292834 0.315933 0.294700
H44   H     H_    0.882949 0.381167 0.331048 0.267076
H45   H     H_    0.434159 0.224771 0.397156 0.169701
H46   H     H_    0.609178 0.250019 0.054706 0.229792
H47   H     H_    0.388925 0.310195 0.390247 0.086310
H48   H     H_    0.335740 0.162093 0.364106 0.233848
H49   H     H_    0.290837 0.246734 0.357906 0.217155
H50   H     H_    0.400303 0.295190 0.326976 0.247163
H51   H     H_    0.363133 0.214843 0.307366 0.295517
H52   H     H_    0.444340 0.208322 0.332630 0.277873
H53   H     H_    0.152788 0.754685 0.381646 0.153020
H54   H     H_    0.166014 0.785844 0.423619 0.152430
H55   H     H_    0.074143 0.651079 0.403629 0.237414
H56   H     H_    0.078841 0.691725 0.444944 0.212933
H57   H     H_    0.797795 0.645856 0.068266 0.211204
H58   H     H_    0.024868 0.806068 0.422064 0.271261
H59   H     H_    0.966546 0.728201 0.415842 0.270100
H60   H     H_    0.018024 0.763973 0.380678 0.271201
H61   H     H_    0.093829 0.821498 0.959484 0.142069
H62   H     H_    0.095038 0.816855 0.917139 0.127267
H63   H     H_    0.166286 0.064848 0.999984 0.139380
H64   H     H_    0.135768 0.047407 0.960999 0.122001
H65   H     H_    0.909638 0.172992 0.951444 0.144412
H66   H     H_    0.895722 0.192071 0.910445 0.124268
H67   H     H_    0.831201 0.916232 0.983976 0.138408
H68   H     H_    0.736828 0.594157 0.045457 0.227575
H69   H     H_    0.854081 0.933160 0.943846 0.125887
H70   H     H_    0.071685 0.152448 0.001026 0.146118
H71   H     H_    0.047489 0.133174 0.961176 0.120852
H72   H     H_    0.187328 0.909509 0.958561 0.160195
H73   H     H_    0.186650 0.902895 0.916297 0.120768
H74   H     H_    0.922116 0.823701 0.979742 0.142008
H75   H     H_    0.936194 0.840406 0.938588 0.122082
H76   H     H_    0.816473 0.085889 0.951647 0.159012
H77   H     H_    0.805997 0.106161 0.910587 0.128472
H78   H     H_    0.594680 0.321071 0.457102 0.143539
H79   H     H_    0.415070 0.327943 0.004208 0.201471
H80   H     H_    0.598471 0.313393 0.414886 0.127229
H81   H     H_    0.658609 0.570485 0.492084 0.139853
H82   H     H_    0.635421 0.557648 0.451726 0.122933
H83   H     H_    0.397506 0.699907 0.468488 0.151994
H84   H     H_    0.406614 0.685684 0.426614 0.125749
H85   H     H_    0.331197 0.416761 0.486191 0.139983
H86   H     H_    0.357162 0.434643 0.446564 0.126475
H87   H     H_    0.565901 0.661836 0.486810 0.143096
H88   H     H_    0.555046 0.650473 0.445010 0.119208
H89   H     H_    0.688508 0.408909 0.456047 0.161121
H90   H     H_    0.396530 0.307437 0.045205 0.193576
H91   H     H_    0.690415 0.399029 0.413915 0.122898
H92   H     H_    0.423017 0.325103 0.481605 0.140718
H93   H     H_    0.438997 0.341729 0.440568 0.122710
H94   H     H_    0.314039 0.610452 0.468873 0.136674
H95   H     H_    0.317621 0.596102 0.426485 0.159842
H96   H     H_    0.780476 0.574879 0.801572 0.166656
H97   H     H_    0.814830 0.504548 0.827948 0.123585
H98   H     H_    0.827864 0.510282 0.749580 0.244754
H99   H     H_    0.857080 0.436862 0.776330 0.214440
H100  H     H_    0.727912 0.418328 0.795832 0.260918
H101  H     H_    0.269121 0.640991 0.068603 0.203410
H102  H     H_    0.738222 0.408297 0.750636 0.269959
H103  H     H_    0.699646 0.490376 0.767673 0.267645
H104  H     H_    0.610311 0.786512 0.804516 0.171475
H105  H     H_    0.631143 0.859227 0.832553 0.122112
H106  H     H_    0.629964 0.870956 0.754213 0.242749
H107  H     H_    0.659460 0.939988 0.783495 0.210486
H108  H     H_    0.758233 0.855340 0.804165 0.258066
H109  H     H_    0.765320 0.876140 0.759626 0.272194
H110  H     H_    0.729293 0.789541 0.772985 0.270945
H111  H     H_    0.225823 0.436639 0.801527 0.166361
H112  H     H_    0.532151 0.885644 0.869930 0.149213
H113  H     H_    0.207750 0.703084 0.081904 0.198501
H114  H     H_    0.187438 0.501697 0.829594 0.122960
H115  H     H_    0.177817 0.503731 0.751125 0.238530
H116  H     H_    0.139123 0.570660 0.778918 0.215713
H117  H     H_    0.263020 0.600924 0.801224 0.262283
H118  H     H_    0.256619 0.613549 0.756009 0.269969
H119  H     H_    0.301941 0.534652 0.772708 0.268231
H120  H     H_    0.389687 0.199066 0.796609 0.173474
H121  H     H_    0.367950 0.131740 0.827375 0.125384
H122  H     H_    0.377821 0.100401 0.750436 0.241322
H123  H     H_    0.340485 0.042123 0.782892 0.209916
H124  H     H_    0.614662 0.703171 0.053454 0.204365
H125  H     H_    0.243463 0.137378 0.793825 0.259209
H126  H     H_    0.241688 0.100853 0.751434 0.268566
H127  H     H_    0.280135 0.189568 0.759000 0.268648
H128  H     H_    0.262705 0.051970 0.305738 0.165489
H129  H     H_    0.306115 0.991542 0.334399 0.121760
H130  H     H_    0.307557 0.982334 0.255910 0.234915
H131  H     H_    0.354275 0.920683 0.283634 0.218224
H132  H     H_    0.236363 0.884142 0.310210 0.263233
H133  H     H_    0.236682 0.868711 0.265087 0.268198
H134  H     H_    0.188839 0.945662 0.282202 0.267940
H135  H     H_    0.669537 0.755555 0.077868 0.191983
H136  H     H_    0.120137 0.295395 0.303472 0.171218
H137  H     H_    0.136040 0.366084 0.333275 0.120360
H138  H     H_    0.142529 0.383057 0.255207 0.240451
H139  H     H_    0.164436 0.452353 0.285799 0.211230
H140  H     H_    0.265715 0.374685 0.308223 0.256456
H141  H     H_    0.276118 0.394407 0.263738 0.270332
H142  H     H_    0.243905 0.306273 0.276963 0.273106
H143  H     H_    0.715457 0.938398 0.298215 0.165394
H144  H     H_    0.678468 0.005173 0.325838 0.124514
H145  H     H_    0.662742 0.002958 0.247616 0.241246
H146  H     H_    0.720963 0.368073 0.063783 0.204734
H147  H     H_    0.628686 0.072158 0.275538 0.214667
H148  H     H_    0.756370 0.099507 0.294639 0.261040
H149  H     H_    0.744419 0.111425 0.249627 0.270452
H150  H     H_    0.789602 0.031616 0.265433 0.268199
H151  H     H_    0.896780 0.707200 0.298430 0.174551
H152  H     H_    0.875037 0.640717 0.329553 0.122435
H153  H     H_    0.878720 0.610147 0.252381 0.241449
H154  H     H_    0.843939 0.551168 0.285127 0.211294
H155  H     H_    0.748812 0.646862 0.298808 0.257694
H156  H     H_    0.742658 0.611699 0.256239 0.270284
H157  H     H_    0.779448 0.309816 0.082568 0.196790
H158  H     H_    0.782546 0.699866 0.263606 0.268911
H159  H     H_    0.512409 0.769308 0.200970 0.162854
H160  H     H_    0.455798 0.819666 0.173016 0.144802
H161  H     H_    0.455540 0.832492 0.251378 0.248028
H162  H     H_    0.394287 0.877657 0.222714 0.210635
H163  H     H_    0.346909 0.757362 0.202988 0.263705
H164  H     H_    0.336042 0.769244 0.248055 0.270301
H165  H     H_    0.407595 0.712091 0.232193 0.270462
H166  H     H_    0.166435 0.665342 0.198444 0.161425
H167  H     H_    0.165173 0.586696 0.172192 0.149798
H168  H     H_    0.827500 0.330741 0.569895 0.189459
H169  H     H_    0.152522 0.585465 0.250529 0.247201
H170  H     H_    0.159004 0.507084 0.223347 0.211701
H171  H     H_    0.281969 0.547969 0.204004 0.265683
H172  H     H_    0.277967 0.536374 0.249366 0.270849
H173  H     H_    0.275799 0.626397 0.231505 0.272889
H174  H     H_    0.464455 0.230110 0.202522 0.163092
H175  H     H_    0.523392 0.184046 0.174001 0.153286
H176  H     H_    0.519825 0.161441 0.251876 0.248518
H177  H     H_    0.583413 0.121473 0.222525 0.210564
H178  H     H_    0.629503 0.244780 0.206950 0.264368
H179  H     H_    0.882617 0.259555 0.559502 0.231932
H180  H     H_    0.638033 0.227160 0.251735 0.272261
H181  H     H_    0.566303 0.285059 0.236616 0.268699
H182  H     H_    0.844149 0.328425 0.200153 0.164936
H183  H     H_    0.839789 0.410250 0.176141 0.146653
H184  H     H_    0.864012 0.402539 0.253809 0.251106
H185  H     H_    0.850812 0.483476 0.228862 0.210646
H186  H     H_    0.726513 0.440309 0.212731 0.266427
H187  H     H_    0.737240 0.447594 0.258040 0.271496
H188  H     H_    0.739384 0.359498 0.238167 0.269571
H189  H     H_    0.014564 0.269113 0.702094 0.163219
H190  H     H_    0.760623 0.903497 0.547976 0.221642
H191  H     H_    0.960868 0.319387 0.672895 0.148225
H192  H     H_    0.958686 0.338374 0.751020 0.246173
H193  H     H_    0.900188 0.383590 0.721107 0.210423
H194  H     H_    0.848484 0.263953 0.703165 0.264020
H195  H     H_    0.836971 0.279753 0.747952 0.272507
H196  H     H_    0.906482 0.218484 0.733473 0.268324
H197  H     H_    0.663428 0.160672 0.701042 0.161698
H198  H     H_    0.663468 0.083139 0.674072 0.148625
H199  H     H_    0.648021 0.078646 0.752304 0.246633
H200  H     H_    0.655841 0.001405 0.724480 0.211682
H201  H     H_    0.778288 0.930506 0.507070 0.210267
H202  H     H_    0.779283 0.043641 0.706461 0.265873
H203  H     H_    0.773667 0.029890 0.751653 0.271031
H204  H     H_    0.771854 0.120776 0.734686 0.270875
H205  H     H_    0.981510 0.730978 0.702084 0.163437
H206  H     H_    0.039205 0.681580 0.674226 0.148100
H207  H     H_    0.034358 0.663301 0.752348 0.251142
H208  H     H_    0.097021 0.619925 0.723660 0.210677
H209  H     H_    0.146809 0.740978 0.706722 0.264380
H210  H     H_    0.154348 0.725618 0.751728 0.271801
H211  H     H_    0.084519 0.784706 0.735724 0.270552
H212  H     H_    0.190623 0.653219 0.567023 0.181065
H213  H     H_    0.342773 0.822561 0.698063 0.161745
H214  H     H_    0.339608 0.903536 0.673396 0.150753
H215  H     H_    0.359557 0.898950 0.751370 0.250042
H216  H     H_    0.346814 0.978661 0.725517 0.210911
H217  H     H_    0.223773 0.933304 0.708434 0.266796
H218  H     H_    0.232143 0.942960 0.753761 0.271896
H219  H     H_    0.236308 0.853966 0.734898 0.272031
H220  H     H_    0.645383 0.821742 0.134280 0.154629
H221  H     H_    0.647257 0.902326 0.159156 0.143681
H222  H     H_    0.645082 0.898329 0.080682 0.255495
H223  H     H_    0.102147 0.442330 0.868842 0.147923
H224  H     H_    0.130914 0.723711 0.564896 0.229803
H225  H     H_    0.654510 0.978038 0.106718 0.196166
H226  H     H_    0.771044 0.929386 0.130230 0.269627
H227  H     H_    0.773872 0.937858 0.084695 0.265694
H228  H     H_    0.761635 0.849692 0.103698 0.267182
H229  H     H_    0.053368 0.726259 0.128768 0.161722
H230  H     H_    0.984468 0.681118 0.152653 0.150376
H231  H     H_    0.000393 0.673476 0.074506 0.221744
H232  H     H_    0.927095 0.635948 0.099414 0.215131
H233  H     H_    0.892611 0.759987 0.118678 0.268247
H234  H     H_    0.891745 0.752739 0.073101 0.262900
H235  H     H_    0.294203 0.143010 0.567816 0.212022
H236  H     H_    0.966171 0.798425 0.093868 0.267048
H237  H     H_    0.336630 0.103122 0.145794 0.146586
H238  H     H_    0.359533 0.061857 0.105387 0.109576
H239  H     H_    0.342267 0.224911 0.120635 0.215530
H240  H     H_    0.373967 0.188735 0.081023 0.254920
H241  H     H_    0.257428 0.120920 0.073455 0.256889
H242  H     H_    0.241884 0.216694 0.078893 0.272132
H243  H     H_    0.225097 0.155369 0.113709 0.267313
H244  H     H_    0.999705 0.293503 0.137436 0.165480
H245  H     H_    0.045655 0.361819 0.112476 0.117651
H246  H     H_    0.234995 0.091966 0.543677 0.226880
H247  H     H_    0.916271 0.267207 0.089724 0.220700
H248  H     H_    0.954763 0.340781 0.065469 0.222027
H249  H     H_    0.074913 0.278596 0.064429 0.261938
H250  H     H_    0.004019 0.221871 0.047159 0.269207
H251  H     H_    0.037522 0.204738 0.089356 0.266579
H252  H     H_    0.145892 0.318304 0.631782 0.153970
H253  H     H_    0.151070 0.397981 0.657151 0.144731
H254  H     H_    0.144593 0.396599 0.578753 0.257016
H255  H     H_    0.157181 0.475258 0.605174 0.195538
H256  H     H_    0.273833 0.423227 0.626967 0.269724
H257  H     H_    0.914168 0.827011 0.509054 0.200683
H258  H     H_    0.274387 0.433028 0.581471 0.264658
H259  H     H_    0.261134 0.344590 0.600042 0.268623
H260  H     H_    0.550185 0.224330 0.630816 0.162153
H261  H     H_    0.482753 0.177681 0.654964 0.152484
H262  H     H_    0.495928 0.172119 0.576667 0.222082
H263  H     H_    0.423909 0.133275 0.601958 0.215624
H264  H     H_    0.388929 0.256539 0.622124 0.268439
H265  H     H_    0.386352 0.250219 0.576531 0.263169
H266  H     H_    0.461107 0.296248 0.596873 0.267076
H267  H     H_    0.844867 0.609431 0.649346 0.148877
H268  H     H_    0.892066 0.803249 0.549271 0.193703
H269  H     H_    0.862320 0.563627 0.609401 0.108854
H270  H     H_    0.852444 0.728564 0.621339 0.216220
H271  H     H_    0.878335 0.686832 0.581977 0.256962
H272  H     H_    0.758737 0.623300 0.578619 0.259733
H273  H     H_    0.747417 0.720063 0.582283 0.274892
H274  H     H_    0.732190 0.662897 0.618763 0.267497
H275  H     H_    0.448427 0.771504 0.625653 0.161998
H276  H     H_    0.519187 0.815187 0.648900 0.150671
H277  H     H_    0.496851 0.829803 0.571332 0.222856
H278  H     H_    0.572670 0.863716 0.595696 0.220611
H279  H     H_    0.768033 0.142059 0.569050 0.203894
H280  H     H_    0.605920 0.736953 0.611774 0.269814
H281  H     H_    0.605062 0.749964 0.566462 0.265038
H282  H     H_    0.530786 0.702753 0.586711 0.263231
H283  H     H_    0.706488 0.204160 0.582147 0.198451
H284  H     H_    0.111944 0.200164 0.551203 0.203502
H285  H     H_    0.165279 0.251341 0.576876 0.191986
H286  H     H_    0.248324 0.841844 0.574482 0.206775
H287  H     H_    0.465597 0.108568 0.867078 0.152539
H288  H     H_    0.312449 0.776857 0.578974 0.194857
H289  H     H_    0.227537 0.695628 0.870745 0.154003
H290  H     H_    0.166463 0.768527 0.878622 0.093631
H291  H     H_    0.129253 0.605706 0.876130 0.221988
H292  H     H_    0.065697 0.675554 0.887860 0.245930
H293  H     H_    0.080019 0.734690 0.831830 0.267148
H294  H     H_    0.056226 0.640495 0.826389 0.277561
H295  H     H_    0.148647 0.669758 0.819876 0.271956
H296  H     H_    0.209813 0.149202 0.886853 0.153120
H297  H     H_    0.171349 0.075143 0.910245 0.098342
H298  H     H_    0.393504 0.053944 0.370882 0.154367
H299  H     H_    0.330438 0.090706 0.887280 0.218691
H300  H     H_    0.294412 0.016612 0.911922 0.263647
H301  H     H_    0.211345 0.982068 0.865322 0.262582
H302  H     H_    0.302919 0.989686 0.849232 0.272510
H303  H     H_    0.238721 0.060709 0.841094 0.272691
H304  H     H_    0.756002 0.328527 0.881415 0.156071
H305  H     H_    0.810235 0.248796 0.881077 0.097506
H306  H     H_    0.864004 0.406724 0.886744 0.220661
H307  H     H_    0.922025 0.328822 0.890933 0.252081
H308  H     H_    0.884303 0.287292 0.832510 0.267617
H309  H     H_    0.034144 0.388231 0.369102 0.152149
H310  H     H_    0.926454 0.375524 0.832187 0.282555
H311  H     H_    0.829019 0.367305 0.828600 0.267501
H312  H     H_    0.748029 0.851341 0.871095 0.138760
H313  H     H_    0.814598 0.901039 0.894082 0.100053
H314  H     H_    0.652334 0.935062 0.886692 0.233230
H315  H     H_    0.713160 0.986448 0.913045 0.267895
H316  H     H_    0.787620 0.019962 0.862771 0.264670
H317  H     H_    0.693592 0.042280 0.855170 0.267502
H318  H     H_    0.731893 0.963215 0.835951 0.275373
H319  H     H_    0.029771 0.240250 0.922084 0.188553
H320  H     H_    0.598594 0.945924 0.366833 0.148829
H321  H     H_    0.084507 0.165832 0.906698 0.092827
H322  H     H_    0.081794 0.324268 0.883432 0.234040
H323  H     H_    0.153755 0.263823 0.871360 0.227385
H324  H     H_    0.066896 0.181215 0.843572 0.256509
H325  H     H_    0.053156 0.272246 0.827988 0.294858
H326  H     H_    0.990981 0.233892 0.858625 0.263761
H327  H     H_    0.332911 0.894973 0.895347 0.184501
H328  H     H_    0.256838 0.847127 0.876704 0.112374
H329  H     H_    0.418036 0.805760 0.875388 0.224837
H330  H     H_    0.347139 0.742886 0.864269 0.226168
H331  H     H_    0.969049 0.611612 0.368042 0.150687
H332  H     H_    0.303046 0.826654 0.819116 0.253632
H333  H     H_    0.397196 0.803667 0.813187 0.297532
H334  H     H_    0.373433 0.891231 0.830085 0.264219
H335  H     H_    0.930390 0.719847 0.896053 0.168790
H336  H     H_    0.886756 0.805903 0.889015 0.087306
H337  H     H_    0.833775 0.657911 0.862702 0.226421
H338  H     H_    0.785322 0.740328 0.858025 0.216940
H339  H     H_    0.890828 0.795508 0.826411 0.243268
H340  H     H_    0.855541 0.715122 0.806229 0.293940
H341  H     H_    0.938715 0.710289 0.830278 0.284567
H342  H     H_    0.328337 0.829472 0.069782 0.189816
H343  H     H_    0.652950 0.116704 0.901815 0.183296
H344  H     H_    0.722717 0.168516 0.880286 0.118566
H345  H     H_    0.562826 0.206221 0.891371 0.214543
H346  H     H_    0.628878 0.275422 0.881526 0.237097
H347  H     H_    0.662055 0.215509 0.828362 0.254013
H348  H     H_    0.564702 0.225560 0.829971 0.289280
H349  H     H_    0.605256 0.138249 0.838153 0.275476
H350  H     H_    0.730595 0.186433 0.371673 0.152957
H351  H     H_    0.672786 0.262467 0.378031 0.094751
H352  H     H_    0.628763 0.101105 0.378762 0.219898
N1    N     N_3   0.329988 0.774676 0.063012 -0.470481
N2    N     N_3   0.789116 0.891856 0.525760 -0.469374
N3    N     N_3   0.185698 0.709386 0.564208 -0.473195
N4    N     N_3   0.245618 0.142973 0.554147 -0.472410
N5    N     N_3   0.894325 0.784871 0.524246 -0.421266
N6    N     N_3   0.720126 0.168797 0.562473 -0.404527
N7    N     N_3   0.140367 0.249231 0.553119 -0.403484
N8    N     N_3   0.293284 0.817718 0.562975 -0.408722
N9    N     N_3   0.103869 0.786690 0.939107 -0.443555
N10   N     N_3   0.181073 0.065791 0.974392 -0.457763
N11   N     N_3   0.894007 0.214153 0.934762 -0.472888
N12   N     N_3   0.291420 0.394884 0.020887 -0.468148
N13   N     N_3   0.810813 0.917168 0.959245 -0.461752
N14   N     N_3   0.067439 0.174552 0.976704 -0.480533
N15   N     N_3   0.219253 0.895662 0.937641 -0.467636
N16   N     N_3   0.918087 0.800825 0.955566 -0.451037
N17   N     N_3   0.779523 0.106294 0.933967 -0.478507
N18   N     N_3   0.605842 0.284794 0.437425 -0.447523
N19   N     N_3   0.678863 0.572040 0.467322 -0.463422
N20   N     N_3   0.391107 0.723910 0.444682 -0.422454
N21   N     N_3   0.312667 0.418504 0.461154 -0.463654
N22   N     N_3   0.571837 0.687686 0.463369 -0.462951
N23   N     N_3   0.661434 0.234028 0.061661 -0.469645
N24   N     N_3   0.721627 0.393317 0.435810 -0.472545
N25   N     N_3   0.419984 0.302262 0.457393 -0.451943
N26   N     N_3   0.283909 0.611756 0.446451 -0.418876
N27   N     N_3   0.748343 0.645551 0.055294 -0.472256
N28   N     N_3   0.396628 0.287073 0.020493 -0.424765
N29   N     N_3   0.221194 0.667837 0.062155 -0.403417
N30   N     N_3   0.643284 0.752249 0.054453 -0.405046
N31   N     N_3   0.770059 0.340566 0.060764 -0.410368
N32   N     N_3   0.828983 0.275825 0.563331 -0.470275
O1    O     O_3   0.500000 0.000000 0.000020 -0.496077
O2    O     O_R   0.500000 0.939230 0.425200 -0.638523
O3    O     O_R   0.060770 0.500000 0.425200 -0.650618
O4    O     O_R   0.500000 0.060770 0.425200 -0.641988
O5    O     O_R   0.500000 0.939250 0.074840 -0.609947
O6    O     O_R   0.060750 0.500000 0.074840 -0.626393
O7    O     O_R   0.500000 0.060750 0.074840 -0.614398
O8    O     O_R   0.939250 0.500000 0.074840 -0.641893
O9    O     O_R   1.000000 0.439250 0.574840 -0.609407
O10   O     O_R   0.560750 0.000000 0.574840 -0.634514
O11   O     O_R   0.000000 0.560750 0.574840 -0.613100
O12   O     O_3   0.000000 0.500000 0.000020 -0.499773
O13   O     O_R   0.439250 0.000000 0.574840 -0.636160
O14   O     O_R   0.646140 0.914530 0.980400 -0.617806
O15   O     O_R   0.085470 0.646140 0.980400 -0.620610
O16   O     O_R   0.353860 0.085470 0.980400 -0.608332
O17   O     O_R   0.914530 0.353860 0.980400 -0.617668
O18   O     O_R   0.646140 0.085470 0.980400 -0.624132
O19   O     O_R   0.085470 0.353860 0.980400 -0.594392
O20   O     O_R   0.353860 0.914530 0.980400 -0.621194
O21   O     O_R   0.914530 0.646140 0.980400 -0.607443
O22   O     O_R   0.146140 0.414530 0.480400 -0.619582
O23   O     O_3   1.000000 0.500000 0.500020 -0.495439
O24   O     O_R   0.585470 0.146140 0.480400 -0.621710
O25   O     O_R   0.853860 0.585470 0.480400 -0.610494
O26   O     O_R   0.414530 0.853860 0.480400 -0.620366
O27   O     O_R   0.146140 0.585470 0.480400 -0.620846
O28   O     O_R   0.585470 0.853860 0.480400 -0.601259
O29   O     O_R   0.853860 0.414530 0.480400 -0.624133
O30   O     O_R   0.414530 0.146140 0.480400 -0.606372
O31   O     O_R   0.414550 0.146130 0.019630 -0.642929
O32   O     O_R   0.853870 0.414550 0.019630 -0.632986
O33   O     O_R   0.585450 0.853870 0.019630 -0.631582
O34   O     O_3   0.500000 0.000000 0.500020 -0.500545
O35   O     O_R   0.146130 0.585450 0.019630 -0.628964
O36   O     O_R   0.414550 0.853870 0.019630 -0.661734
O37   O     O_R   0.853870 0.585450 0.019630 -0.671969
O38   O     O_R   0.585450 0.146130 0.019630 -0.665380
O39   O     O_R   0.146130 0.414550 0.019630 -0.677475
O40   O     O_R   0.914550 0.646130 0.519630 -0.642559
O41   O     O_R   0.353870 0.914550 0.519630 -0.625497
O42   O     O_R   0.085450 0.353870 0.519630 -0.632127
O43   O     O_R   0.646130 0.085450 0.519630 -0.629025
O44   O     O_R   0.914550 0.353870 0.519630 -0.660893
O45   O     O_R   0.439230 0.000000 0.925200 -0.653839
O46   O     O_R   0.353870 0.085450 0.519630 -0.674803
O47   O     O_R   0.085450 0.646130 0.519630 -0.654970
O48   O     O_R   0.646130 0.914550 0.519630 -0.677943
O49   O     O_3   0.191113 0.697963 0.919818 -0.600015
O50   O     O_3   0.248285 0.143167 0.935486 -0.592859
O51   O     O_3   0.802619 0.306891 0.927483 -0.604051
O52   O     O_3   0.733028 0.844793 0.922442 -0.593121
O53   O     O_3   0.138139 0.244949 0.935575 -0.594643
O54   O     O_3   0.303566 0.800114 0.919910 -0.605316
O55   O     O_3   0.832508 0.731479 0.920923 -0.595500
O56   O     O_R   1.000000 0.439230 0.925200 -0.648709
O57   O     O_3   0.691638 0.205500 0.928372 -0.608785
O58   O     O_3   0.694264 0.194770 0.420611 -0.600979
O59   O     O_3   0.758620 0.647170 0.432735 -0.593620
O60   O     O_3   0.308203 0.799434 0.413473 -0.633323
O61   O     O_3   0.236783 0.347329 0.422806 -0.591133
O62   O     O_3   0.660406 0.759338 0.431353 -0.598550
O63   O     O_3   0.806637 0.296131 0.420870 -0.604784
O64   O     O_3   0.335677 0.234104 0.421658 -0.594667
O65   O     O_3   0.209965 0.682605 0.410360 -0.641467
O66   O     O_3   0.891319 0.570675 0.801817 -0.637918
O67   O     O_R   0.560770 0.000000 0.925200 -0.658430
O68   O     O_3   0.534999 0.867456 0.803095 -0.639983
O69   O     O_3   0.114714 0.434067 0.802086 -0.633945
O70   O     O_3   0.466341 0.119855 0.799995 -0.636100
O71   O     O_3   0.373571 0.059278 0.304204 -0.638426
O72   O     O_3   0.042237 0.373978 0.302185 -0.637574
O73   O     O_3   0.604469 0.936033 0.299803 -0.638948
O74   O     O_3   0.971540 0.625984 0.300982 -0.632137
O75   O     O_3   0.536116 0.877778 0.200689 -0.627449
O76   O     O_3   0.068308 0.612983 0.198757 -0.626437
O77   O     O_3   0.442546 0.121501 0.199016 -0.619501
O78   O     O_R   1.000000 0.560770 0.925200 -0.639324
O79   O     O_3   0.940812 0.383394 0.198943 -0.616840
O80   O     O_3   0.042575 0.376499 0.699974 -0.627336
O81   O     O_3   0.565564 0.107872 0.700099 -0.626356
O82   O     O_3   0.956346 0.622915 0.699937 -0.620660
O83   O     O_3   0.439268 0.877835 0.697684 -0.629503
O84   O     O_3   0.552058 0.880749 0.130214 -0.608469
O85   O     O_3   0.062785 0.615846 0.127445 -0.632260
O86   O     O_3   0.442567 0.120572 0.128671 -0.607963
O87   O     O_3   0.937741 0.384411 0.128179 -0.624811
O88   O     O_3   0.053802 0.379617 0.629230 -0.608299
O89   O     O_R   0.939230 0.500000 0.425200 -0.658184
O90   O     O_3   0.561023 0.114101 0.628836 -0.632094
O91   O     O_3   0.949395 0.621767 0.629768 -0.606633
O92   O     O_3   0.438525 0.881878 0.626239 -0.630682
Zn1   Zn    Zn3+2 0.500000 0.913220 0.028040 0.963789
Zn2   Zn    Zn3+2 1.000000 0.586730 0.971990 0.989883
Zn3   Zn    Zn3+2 0.413270 0.000000 0.971990 0.974262
Zn4   Zn    Zn3+2 1.000000 0.413270 0.971990 0.984822
Zn5   Zn    Zn3+2 0.086730 0.500000 0.471990 0.969219
Zn6   Zn    Zn3+2 0.500000 0.086730 0.471990 0.988932
Zn7   Zn    Zn3+2 0.913270 0.500000 0.471990 0.967504
Zn8   Zn    Zn3+2 0.500000 0.913270 0.471990 0.989784
Zn9   Zn    Zn3+2 0.086780 0.500000 0.028040 0.960996
Zn10  Zn    Zn3+2 0.500000 0.086780 0.028040 0.954858
Zn11  Zn    Zn3+2 0.913220 0.500000 0.028040 0.956881
Zn12  Zn    Zn3+2 1.000000 0.413220 0.528040 0.964585
Zn13  Zn    Zn3+2 0.586780 0.000000 0.528040 0.958124
Zn14  Zn    Zn3+2 1.000000 0.586780 0.528040 0.952552
Zn15  Zn    Zn3+2 0.413220 0.000000 0.528040 0.960766
Zn16  Zn    Zn3+2 0.586730 0.000000 0.971990 0.969109

loop_
_geom_bond_atom_site_label_1
_geom_bond_atom_site_label_2
_ccdc_geom_bond_type
H79   N28   S    
C33   N26   S    
C144  H186  S    
C199  O4    A    
C80   H3    S    
C215  O39   A    
C264  N23   S    
O2    Zn8   S    
C74   H341  S    
C131  H155  S    
C55   C56   S    
C222  C261  S    
C30   N22   S    
C114  C115  S    
C141  H180  S    
C159  H220  S    
C154  H209  S    
C5    N29   S    
C158  H217  S    
C91   H27   S    
C97   H42   S    
C126  C127  S    
C139  H174  S    
C114  H115  S    
C64   H316  S    
C178  H267  S    
C102  O65   S    
C73   H338  S    
C71   H332  S    
C146  C201  A    
C14   C259  A    
C190  O86   S    
H190  N2    S    
C189  O85   S    
O15   Zn2   S    
C106  C107  S    
C143  C144  S    
C164  H236  S    
O9    Zn12  S    
C184  H282  S    
C65   H321  S    
C108  C109  S    
C213  C252  S    
C1    C221  S    
C182  C183  S    
O34   Zn13  S    
C136  O76   S    
C107  H103  S    
O31   Zn10  S    
C79   C201  S    
C56   H299  S    
C161  H227  S    
C54   H295  S    
C165  O86   S    
C81   H4    S    
C68   C90   T    
O17   Zn4   S    
C59   O51   S    
C144  H188  S    
C192  C198  A    
C236  C253  A    
C83   H10   S    
H246  N4    S    
C231  C249  A    
C217  O37   A    
O14   Zn16  S    
C59   C60   S    
C200  C208  S    
O24   Zn6   S    
C179  O81   S    
O4    Zn6   S    
O23   Zn5   S    
H87   N22   S    
C93   H33   S    
C197  C206  S    
C67   H326  S    
C31   N24   S    
H66   N11   S    
C226  C257  S    
C23   O55   S    
C32   N25   S    
C72   H336  S    
C27   C240  S    
C183  H278  S    
H257  N5    S    
C227  C233  A    
O18   Zn16  S    
C125  H142  S    
H88   N22   S    
C122  O72   S    
C183  H277  S    
C140  C141  S    
H2    N1    S    
O35   Zn9   S    
H113  N29   S    
O39   Zn9   S    
C24   C68   S    
O34   Zn8   S    
H168  N32   S    
C129  H152  S    
C163  H232  S    
C176  H263  S    
C219  O43   A    
C183  C184  S    
C157  C191  A    
O27   Zn5   S    
C151  H202  S    
C209  O33   A    
C145  O80   S    
C186  C195  A    
C21   O53   S    
C175  C176  S    
C19   N11   S    
C58   H302  S    
C138  H172  S    
C127  H145  S    
C205  O7    A    
C18   C231  S    
C128  H150  S    
C64   H317  S    
C223  O47   A    
C175  O90   S    
C167  H242  S    
C166  H239  S    
C195  O92   S    
C30   O62   S    
C28   C33   S    
C199  O2    A    
C29   O61   S    
C84   H12   S    
H68   N27   S    
C36   C44   A    
C119  O71   S    
C3    C248  A    
C37   C45   A    
C142  H182  S    
C105  H96   S    
H64   N10   S    
C100  H51   S    
C179  C193  A    
C189  C197  A    
C14   N6    S    
C138  H173  S    
C97   H44   S    
C103  H56   S    
C38   O70   S    
C78   H351  S    
C37   O69   S    
C5    C250  A    
C239  C257  A    
C137  H170  S    
C87   H21   S    
C207  O11   A    
C72   C73   S    
C124  O75   S    
H78   N18   S    
C139  C140  S    
H77   N17   S    
C22   C227  S    
C206  O8    A    
C172  H252  S    
C175  H261  S    
C168  C192  A    
C124  C201  A    
C174  H258  S    
C168  O80   S    
C156  C158  S    
C130  C131  S    
C154  H211  S    
C6    N30   S    
C10   C16   A    
C58   H301  S    
C130  H154  S    
C169  O87   S    
C166  C167  S    
C38   C47   A    
C34   O66   S    
H13   N12   S    
C54   H293  S    
C33   O65   S    
C81   H6    S    
H279  N6    S    
C177  H266  S    
C77   H347  S    
C61   H310  S    
C119  H129  S    
C121  H133  S    
C171  H249  S    
C165  H237  S    
C88   C89   S    
C108  O68   S    
C37   C254  A    
C11   N4    S    
C162  H229  S    
C95   H39   S    
H92   N25   S    
C188  C243  S    
C67   H324  S    
C28   C244  S    
C94   H36   S    
C109  C110  S    
C228  C231  A    
C108  H104  S    
C211  O35   A    
C8    N32   S    
C90   C202  S    
C66   H322  S    
H75   N16   S    
C236  C241  A    
O6    Zn9   S    
C40   O72   S    
C181  H273  S    
C110  H108  S    
C126  H143  S    
O19   Zn4   S    
C147  C148  S    
C123  H138  S    
C3    C6    A    
O46   Zn15  S    
H288  N8    S    
C120  H131  S    
C85   C86   S    
H24   N12   S    
C117  H122  S    
O34   Zn6   S    
C92   H31   S    
C173  H254  S    
C118  H125  S    
C80   H352  S    
C3    N27   S    
H81   N19   S    
C11   C257  A    
C130  H153  S    
C142  O79   S    
C160  H225  S    
O38   Zn10  S    
C78   C80   S    
C228  C246  A    
C170  C171  S    
C76   H346  S    
C40   C49   A    
C177  H264  S    
C139  H175  S    
C55   O50   S    
C74   H340  S    
C104  H58   S    
C87   H20   S    
C33   C238  S    
C132  H160  S    
C84   H14   S    
C175  H260  S    
O3    Zn5   S    
O48   Zn13  S    
C218  O42   A    
C230  C234  A    
C214  C247  S    
C22   O54   S    
O10   Zn13  S    
C152  H205  S    
C111  O69   S    
C72   O55   S    
C170  H248  S    
C135  O76   S    
C47   C221  A    
C71   H333  S    
C178  H269  S    
C99   H48   S    
C9    C255  A    
C11   C15   A    
C235  C252  A    
C49   C243  A    
C262  N1    S    
C75   H344  S    
C87   H19   S    
C206  O6    A    
H95   N26   S    
H85   N21   S    
C157  O79   S    
H285  N7    S    
C109  H107  S    
C174  H256  S    
H124  N30   S    
C101  C203  S    
C1    O45   A    
C155  H214  S    
O67   Zn16  S    
C45   H223  S    
C53   H292  S    
C153  H208  S    
C148  H195  S    
C152  O82   S    
C82   H7    S    
C194  O91   S    
C220  C258  S    
C21   N14   S    
C172  O88   S    
C134  H165  S    
C96   H41   S    
C181  H272  S    
C2    C38   A    
C83   C84   S    
C20   C23   S    
C122  H136  S    
C110  H110  S    
C86   H18   S    
C176  H262  S    
O43   Zn13  S    
C94   H34   S    
H61   N9    S    
C151  H203  S    
C224  O48   A    
C156  H215  S    
C140  H177  S    
C169  H244  S    
C89   H25   S    
H70   N14   S    
C65   O53   S    
C150  H199  S    
C59   H305  S    
C112  O78   A    
C55   H296  S    
O12   Zn2   S    
C16   C261  A    
H286  N8    S    
O26   Zn8   S    
C26   O58   S    
C51   H331  S    
C155  C156  S    
C167  H243  S    
C52   C53   S    
C16   N8    S    
C88   O61   S    
O40   Zn14  S    
C129  C130  S    
C122  H137  S    
C112  O56   A    
C225  O44   A    
C191  O87   S    
C46   C113  T    
C102  H54   S    
C198  C207  S    
C51   C243  A    
C161  H226  S    
C131  H158  S    
C136  C137  S    
C214  O38   A    
C222  O41   A    
C167  H241  S    
C234  C251  A    
C69   H328  S    
C100  H50   S    
C143  H184  S    
O37   Zn11  S    
C13   C41   A    
C115  H119  S    
C223  O27   A    
C154  H210  S    
C106  H98   S    
C186  O83   S    
C158  H218  S    
H212  N3    S    
H69   N13   S    
C98   O64   S    
C34   C254  A    
C114  H116  S    
C104  H60   S    
C136  H167  S    
C73   H337  S    
C32   O64   S    
C117  C118  S    
O20   Zn3   S    
C219  O24   A    
C208  O13   A    
C105  H97   S    
O45   Zn3   S    
C66   H323  S    
C171  H251  S    
H235  N4    S    
H57   N27   S    
C56   C58   S    
C102  C103  S    
C9    C12   A    
C215  O19   A    
C63   C64   S    
C229  C247  A    
C102  H53   S    
C27   O59   S    
C152  C153  S    
C224  C255  S    
C56   H300  S    
C237  C240  A    
C98   H47   S    
H201  N2    S    
C96   H40   S    
C240  C258  A    
C129  O74   S    
C83   H9    S    
C220  O40   A    
C15   C260  A    
C143  H185  S    
C263  N12   S    
O30   Zn6   S    
C133  H162  S    
H157  N31   S    
H342  N1    S    
C145  H189  S    
C29   N21   S    
C187  C196  A    
O28   Zn8   S    
C24   C42   A    
C73   C74   S    
C67   H325  S    
C185  C194  A    
C18   N10   S    
O42   Zn12  S    
C214  O18   A    
C26   C241  S    
C17   N9    S    
C4    N28   S    
C4    C249  A    
C120  C121  S    
C18   C21   S    
C55   H297  S    
C25   C229  S    
C93   C94   S    
C125  H141  S    
C6    C251  A    
C225  C253  S    
C10   C256  A    
C107  H100  S    
C123  H139  S    
C193  O90   S    
C43   H1    S    
C29   C32   S    
C134  H163  S    
O22   Zn5   S    
C89   C91   S    
C205  O5    A    
C123  C125  S    
C120  H130  S    
O44   Zn12  S    
O5    Zn1   S    
C98   C99   S    
C92   H30   S    
C8    C253  A    
C129  H151  S    
C163  H231  S    
H86   N21   S    
C70   H329  S    
C145  C147  S    
C116  H121  S    
C223  C256  S    
C95   C96   S    
C58   H303  S    
C125  H140  S    
C39   O71   S    
C149  H198  S    
C233  C250  A    
C29   C242  S    
C70   C71   S    
O12   Zn4   S    
O47   Zn14  S    
C64   H318  S    
H46   N23   S    
C119  H128  S    
C115  H117  S    
O1    Zn3   S    
O16   Zn3   S    
C41   O73   S    
C161  H228  S    
O23   Zn7   S    
C131  H156  S    
C157  C202  A    
C92   O62   S    
C142  H183  S    
C216  O20   A    
C12   N5    S    
C100  H52   S    
O32   Zn11  S    
C63   H315  S    
C187  O84   S    
C91   H28   S    
C97   H43   S    
C103  H55   S    
C185  O82   S    
C34   C43   A    
O12   Zn9   S    
C191  C197  A    
C99   H49   S    
C137  H169  S    
O1    Zn1   S    
C188  O89   A    
C116  H120  S    
C88   H23   S    
H90   N28   S    
C23   N16   S    
C128  H148  S    
C86   C87   S    
C216  C245  S    
C53   C54   S    
C184  H281  S    
C18   O50   S    
C174  H259  S    
C112  C210  S    
C229  C235  A    
C199  C232  S    
C7    N31   S    
C62   C63   S    
C15   N7    S    
C227  C245  A    
C222  O26   A    
C159  C160  S    
H67   N13   S    
C162  O85   S    
O13   Zn15  S    
C54   H294  S    
C98   H45   S    
C81   H5    S    
C177  H265  S    
C144  H187  S    
C10   N3    S    
C178  O91   S    
H283  N6    S    
C75   O57   S    
C121  H132  S    
C32   C239  S    
O29   Zn7   S    
H84   N20   S    
C133  C134  S    
C162  H230  S    
C69   H327  S    
C52   O49   S    
C94   H37   S    
C127  C128  S    
O78   Zn2   S    
C41   C50   A    
C72   H335  S    
C180  C181  S    
C111  H111  S    
C162  C163  S    
C137  C138  S    
C52   H290  S    
O56   Zn4   S    
C21   C228  S    
C27   N19   S    
C50   C232  A    
C62   H313  S    
C211  O15   A    
C126  H144  S    
C237  C255  A    
C61   H308  S    
C35   C101  T    
C126  O73   S    
C19   C235  S    
C69   O54   S    
C218  O22   A    
C178  C180  S    
C119  C120  S    
C28   N20   S    
C35   C254  S    
C25   O57   S    
C17   C233  S    
C193  C200  A    
C105  C106  S    
C17   C22   S    
C118  H126  S    
C185  C203  A    
C9    N2    S    
C218  C260  S    
H135  N30   S    
C213  O17   A    
C149  C150  S    
C111  H114  S    
C182  O92   S    
C105  O66   S    
C226  O30   A    
C180  H271  S    
C138  H171  S    
C92   C93   S    
C28   O60   S    
C128  H149  S    
C60   H307  S    
C211  C250  S    
C69   C70   S    
H72   N15   S    
C118  H127  S    
H101  N29   S    
C166  H240  S    
H179  N32   S    
C147  H193  S    
C13   C57   S    
C93   H32   S    
C215  C246  S    
C95   O63   S    
C82   C83   S    
C84   H11   S    
H35   N23   S    
C103  C104  S    
C53   H291  S    
C142  C143  S    
C60   C61   S    
H146  N31   S    
C36   O68   S    
C213  O32   A    
C152  H206  S    
H63   N10   S    
H93   N25   S    
C39   C48   A    
C108  H105  S    
C217  O21   A    
C165  C166  S    
C78   H350  S    
O12   Zn11  S    
C169  C170  S    
C57   C79   T    
C77   H349  S    
C163  C164  S    
C217  C248  S    
C75   C76   S    
C31   O63   S    
C147  H192  S    
C75   H343  S    
C212  O31   A    
C194  C198  A    
C173  C174  S    
C2    C46   S    
O1    Zn10  S    
C109  H106  S    
C225  O29   A    
H89   N24   S    
C107  H102  S    
C160  H222  S    
C155  H213  S    
C20   O52   S    
C164  H233  S    
C188  O3    A    
C71   H334  S    
H80   N18   S    
C238  C244  A    
C153  H207  S    
C116  C117  S    
C148  H196  S    
C77   H348  S    
C82   H8    S    
C78   O58   S    
C113  C204  S    
C196  C205  S    
C61   H311  S    
C43   C210  A    
C50   H320  S    
C135  C189  A    
C62   H312  S    
C19   O51   S    
O1    Zn16  S    
C121  H134  S    
C95   H38   S    
H224  N3    S    
C165  H238  S    
H94   N26   S    
C17   O49   S    
C132  C133  S    
C220  O25   A    
O23   Zn12  S    
C132  O75   S    
H91   N24   S    
C216  O36   A    
H74   N16   S    
H73   N15   S    
O23   Zn14  S    
C247  C264  A    
C42   O74   S    
C190  C196  A    
C42   C51   A    
C156  H216  S    
C48   H298  S    
C63   H314  S    
C150  H200  S    
C26   C31   S    
C207  O9    A    
C104  H59   S    
C27   C30   S    
C12   C258  A    
H284  N7    S    
C70   H330  S    
C245  C262  A    
C208  O10   A    
C20   N13   S    
C136  H166  S    
O21   Zn2   S    
C135  C202  A    
C171  H250  S    
C22   N15   S    
C117  H123  S    
C173  H255  S    
C49   H309  S    
C148  H194  S    
C209  O14   A    
O89   Zn7   S    
C52   H289  S    
O34   Zn15  S    
C76   C77   S    
C192  O88   S    
C141  H178  S    
C76   H345  S    
C158  H219  S    
C91   H29   S    
C212  C249  S    
O11   Zn14  S    
O8    Zn11  S    
C238  C256  A    
O7    Zn10  S    
C74   H339  S    
C88   H22   S    
H82   N19   S    
C99   C100  S    
O25   Zn7   S    
C132  H159  S    
C164  H234  S    
C96   C97   S    
C85   H15   S    
C85   H16   S    
C186  C204  A    
C7    C264  A    
C149  O81   S    
C146  O77   S    
C155  O83   S    
C115  H118  S    
C82   O59   S    
C140  H176  S    
C170  H247  S    
C209  C251  S    
C65   H319  S    
C159  H221  S    
C176  C177  S    
O41   Zn15  S    
C159  O84   S    
C20   C234  S    
C182  H276  S    
C59   H304  S    
C219  C259  S    
C111  C114  S    
C44   H112  S    
C30   C237  S    
C127  H147  S    
C1    O67   A    
H71   N14   S    
C182  H275  S    
C230  C248  A    
C172  C173  S    
C62   O52   S    
C195  C200  A    
C2    C36   A    
C172  H253  S    
C133  H161  S    
C8    C14   A    
C241  C259  A    
C150  C151  S    
C242  C260  A    
C224  O28   A    
C80   C81   S    
H65   N11   S    
C226  O46   A    
C124  C187  A    
O36   Zn1   S    
C85   O60   S    
C145  H191  S    
C244  C261  A    
C47   H287  S    
C31   C236  S    
C45   C210  A    
C168  C203  A    
C7    C252  A    
C160  C161  S    
H76   N17   S    
C184  H280  S    
C134  H164  S    
C5    C262  A    
C139  O77   S    
C4    C263  A    
C212  O16   A    
C110  H109  S    
C24   C40   A    
C86   H17   S    
O33   Zn1   S    
H83   N20   S    
C66   C67   S    
C239  C242  A    
H62   N9    S    
C19   C25   S    
C13   C39   A    
C23   C230  S    
C151  H204  S    
H268  N5    S    
C48   C232  A    
C169  H245  S    
C89   H26   S    
C181  H274  S    
C141  H181  S    
C179  C204  A    
C180  H270  S    
C65   C66   S    
C106  H99   S    
C149  H197  S    
C122  C123  S    
C146  C190  A    
C60   H306  S    
C44   C221  A    
C26   N18   S    
C153  C154  S    
C25   N17   S    
C116  O70   S    
C246  C263  A    
