data_mof_unit_55192.cif
_audit_creation_date              2013-03-05T15:55:01-0500
_audit_creation_method            fapswitch 2.2
_symmetry_space_group_name_H-M    P1
_symmetry_Int_Tables_number       1
_space_group_crystal_system       triclinic
_cell_length_a                    11.693165
_cell_length_b                    12.353806
_cell_length_c                    13.247894
_cell_angle_alpha                 116.424573
_cell_angle_beta                  78.064132
_cell_angle_gamma                 101.195692
_cell_volume                      1665.30037765

loop_
_atom_site_label
_atom_site_type_symbol
_atom_site_description
_atom_site_fract_x
_atom_site_fract_y
_atom_site_fract_z
_atom_type_partial_charge
O1    O     O_R   0.533340 0.972510 0.318140 -0.539410
O2    O     O_R   0.488570 0.806530 0.359650 -0.608731
C1    C     C_R   0.518032 0.854841 0.287377 0.759865
O3    O     O_R   0.685190 0.083000 0.479260 -0.510294
O4    O     O_R   0.640410 0.917020 0.520770 -0.609577
C2    C     C_R   0.715689 0.999652 0.499812 0.838739
Cu1   Cu    Cu3+1 0.526510 0.098270 0.475420 1.021623
Cu2   Cu    Cu3+1 0.473490 0.901730 0.524580 0.939101
O5    O     O_R   0.511430 0.193470 0.640350 -0.573036
O6    O     O_R   0.466660 0.027490 0.681860 -0.587653
O7    O     O_R   0.359590 0.082980 0.479230 -0.578814
O8    O     O_R   0.314810 0.917000 0.520740 -0.585538
C3    C     C_R   0.488117 0.145189 0.712907 0.813891
C4    C     C_R   0.284316 0.000256 0.500052 0.807166
C5    C     C_1   0.837391 0.999279 0.499751 -0.116300
C6    C     C_1   0.940009 0.999512 0.499683 0.024454
C7    C     C_1   0.060004 0.000075 0.499688 0.009595
C8    C     C_1   0.162614 0.000417 0.499798 -0.170760
C9    C     C_R   0.343112 0.287629 0.010485 -0.177522
H1    H     H_    0.337503 0.107572 0.878963 0.156947
H2    H     H_    0.255097 0.477972 0.182137 0.149492
H3    H     H_    0.265423 0.263744 0.060705 0.148153
C10   C     C_R   0.475548 0.229366 0.834138 -0.104791
C11   C     C_R   0.671662 0.799148 0.124133 -0.133755
C12   C     C_R   0.733538 0.707876 0.038744 -0.153231
C13   C     C_R   0.680993 0.588312 0.996708 -0.143353
C14   C     C_R   0.560649 0.558549 0.030744 0.097788
C15   C     C_R   0.499987 0.650995 0.123078 0.080780
C16   C     C_R   0.501241 0.438026 0.982476 0.006393
C17   C     C_R   0.395473 0.408012 0.044929 0.146970
C18   C     C_R   0.339089 0.499334 0.137968 -0.211989
C19   C     C_R   0.386509 0.619913 0.171222 -0.186958
C20   C     C_R   0.537860 0.348339 0.872245 -0.076553
C21   C     C_R   0.384873 0.198298 0.907106 -0.194509
C22   C     C_R   0.557118 0.771350 0.170605 -0.093611
H4    H     H_    0.719356 0.888102 0.163897 0.216994
H5    H     H_    0.738355 0.519924 0.942369 0.147261
H6    H     H_    0.825447 0.728605 0.010495 0.155362
H7    H     H_    0.335240 0.688230 0.238444 0.156743
C23   C     C_R   0.679675 0.346568 0.325617 -0.320779
H8    H     H_    0.719243 0.545818 0.293428 0.155092
H9    H     H_    0.748287 0.344956 0.256052 0.172685
N1    N     N_R   0.566700 0.246290 0.438210 -0.244492
C24   C     C_R   0.343783 0.760428 0.645991 0.088123
C25   C     C_R   0.310369 0.665141 0.679055 -0.245208
C26   C     C_R   0.369496 0.561876 0.624966 -0.155743
C27   C     C_R   0.463345 0.552866 0.536695 0.018416
C28   C     C_R   0.494759 0.653494 0.506207 0.284375
C29   C     C_R   0.526886 0.448285 0.477136 -0.026755
C30   C     C_R   0.618336 0.447238 0.388190 0.094065
C31   C     C_R   0.648367 0.546294 0.360928 -0.245533
C32   C     C_R   0.588805 0.647532 0.419413 -0.166362
C33   C     C_R   0.504003 0.343760 0.500636 -0.025005
C34   C     C_R   0.652440 0.246156 0.350738 0.558805
N2    N     N_R   0.434010 0.754320 0.561170 -0.208457
H10   H     H_    0.436553 0.337709 0.567529 0.151864
H11   H     H_    0.297493 0.840263 0.688676 0.128826
H12   H     H_    0.339945 0.490624 0.653578 0.145686
H13   H     H_    0.238363 0.671357 0.746824 0.151982
H14   H     H_    0.620047 0.719156 0.393290 0.201378
C35   C     C_2   0.627448 0.381457 0.789855 0.837601
O9    O     O_2   0.712350 0.324301 0.742640 -0.596724
O10   O     O_R   0.612885 0.476372 0.764974 -0.752257
H15   H     H_    0.678450 0.489221 0.706577 0.336417
N3    N     N_R   0.711741 0.141758 0.279269 0.114729
O11   O     O_R   0.807833 0.130816 0.307065 -0.379960
O12   O     O_R   0.696128 0.087004 0.172702 -0.393702

loop_
_geom_bond_atom_site_label_1
_geom_bond_atom_site_label_2
_geom_bond_distance
_ccdc_geom_bond_type
C28   N2    1.381543 A    
C9    C21   1.385437 A    
C13   H5    1.077459 S    
C16   C17   1.422435 A    
C26   H12   1.078228 S    
Cu1   N1    2.044613 S    
C12   H6    1.082904 S    
O4    Cu2   1.916352 S    
C4    C8    1.424171 S    
N1    C34   1.366163 A    
C18   C19   1.384446 A    
N3    O12   1.301049 A    
C1    C22   1.461623 S    
C24   H11   1.081556 S    
Cu2   O8    1.914276 S    
C10   C21   1.397924 A    
H1    C21   1.083727 S    
Cu1   O5    1.955097 S    
C29   C30   1.415183 A    
C23   H9    1.085093 S    
C7    C8    1.199314 T    
C2    C5    1.423807 S    
Cu1   Cu2   2.712864 S    
C27   C29   1.437627 A    
C34   N3    1.424615 S    
O1    Cu1   1.964628 S    
C25   C26   1.393879 A    
C11   C12   1.384749 A    
Cu1   O7    1.916352 S    
H2    C18   1.084298 S    
C24   N2    1.358885 A    
C13   C14   1.415239 A    
C11   H4    1.079094 S    
O3    Cu1   1.914277 S    
C29   C33   1.423068 A    
O4    C2    1.302401 A    
Cu2   N2    2.032502 S    
O3    C2    1.301461 A    
N1    C33   1.370044 A    
C30   C31   1.387546 A    
C28   C32   1.403540 A    
C23   C34   1.386049 A    
C35   O9    1.223791 D    
O7    C4    1.302463 A    
C23   C30   1.389665 A    
C33   H10   1.077000 S    
C11   C22   1.399785 A    
C14   C16   1.429349 A    
O10   H15   1.014005 S    
C27   C28   1.432371 A    
C16   C20   1.424437 A    
C15   C19   1.408905 A    
C9    H3    1.084246 S    
C31   C32   1.379184 A    
C24   C25   1.392754 A    
C3    C10   1.468889 S    
C20   C35   1.488017 S    
N3    O11   1.300315 A    
C19   H7    1.082341 S    
C14   C15   1.419873 A    
C35   O10   1.399038 S    
O5    C3    1.301064 A    
C17   C18   1.393470 A    
C25   H13   1.082558 S    
O2    C1    1.297666 A    
C32   H14   1.063417 S    
C10   C20   1.421927 A    
C12   C13   1.387944 A    
C26   C27   1.408875 A    
C9    C17   1.397423 A    
H8    C31   1.084994 S    
Cu2   O6    1.964626 S    
O2    Cu2   1.955097 S    
C5    C6    1.199194 T    
C15   C22   1.417196 A    
O8    C4    1.301484 A    
C6    C7    1.401804 S    
O1    C1    1.308858 A    
O6    C3    1.309608 A    
