data_mof_unit_46763.cif
_audit_creation_date              2012-12-10T17:09:56-0500
_audit_creation_method            fapswitch 2.2
_symmetry_space_group_name_H-M    P1
_symmetry_Int_Tables_number       1
_space_group_crystal_system       triclinic
_cell_length_a                    10.753556
_cell_length_b                    12.966646
_cell_length_c                    11.744014
_cell_angle_alpha                 100.258454
_cell_angle_beta                  94.384173
_cell_angle_gamma                 90.560051
_cell_volume                      1606.20770583

loop_
_atom_site_label
_atom_site_type_symbol
_atom_type_description
_atom_site_fract_x
_atom_site_fract_y
_atom_site_fract_z
_atom_type_partial_charge
C1    C     C_R   0.499436 0.299196 0.478448 0.785899
C2    C     C_R   0.068716 0.412388 0.546044 0.097955
C3    C     C_R   0.128758 0.490714 0.498764 -0.088805
C4    C     C_R   0.060476 0.564290 0.448633 -0.231657
C5    C     C_R   0.932269 0.564075 0.448592 -0.211335
C6    C     C_R   0.870920 0.490541 0.499083 -0.089764
C7    C     C_R   0.496673 0.814276 0.533740 -0.043959
C8    C     C_R   0.503796 0.185854 0.466537 -0.038903
C9    C     C_R   0.555676 0.017225 0.358465 -0.224462
C10   C     C_R   0.547144 0.125178 0.367038 -0.212559
C11   C     C_R   0.469459 0.138430 0.557928 -0.276220
C12   C     C_R   0.262567 0.497327 0.499587 0.800836
C13   C     C_R   0.478648 0.030652 0.550529 0.176667
C14   C     C_R   0.521921 0.969553 0.449876 0.175454
C15   C     C_R   0.530715 0.861732 0.442283 -0.270202
C16   C     C_R   0.454204 0.875052 0.633649 -0.215707
C17   C     C_R   0.445375 0.983008 0.642127 -0.225563
C18   C     C_R   0.372494 0.411889 0.019168 -0.369827
C19   C     C_R   0.384754 0.418054 0.140660 0.193357
C20   C     C_R   0.556595 0.537058 0.157511 0.006670
C21   C     C_R   0.546257 0.531846 0.035000 0.059007
C22   C     C_R   0.453084 0.468703 0.965080 0.059387
C23   C     C_R   0.500659 0.700836 0.521598 0.811012
C24   C     C_R   0.442793 0.463504 0.842558 0.006946
C25   C     C_R   0.615847 0.581234 0.859300 0.193848
C26   C     C_R   0.627376 0.588109 0.980862 -0.370454
C27   C     C_R   0.737334 0.497092 0.499789 0.800603
C28   C     C_R   0.135643 0.332149 0.588987 -0.183097
C29   C     C_R   0.073581 0.254924 0.633207 -0.153510
C30   C     C_R   0.944283 0.255276 0.634173 -0.136650
C31   C     C_R   0.876264 0.332708 0.590659 -0.193282
C32   C     C_R   0.937377 0.412456 0.546495 0.075953
Cu1   Cu    Cu3+1 0.509250 0.507730 0.615930 0.932759
Cu2   Cu    Cu3+1 0.490750 0.492270 0.384070 0.937618
H1    H     H_    0.107018 0.623242 0.411105 0.147498
H2    H     H_    0.411686 0.028976 0.719543 0.132797
H3    H     H_    0.577066 0.161412 0.297201 0.147015
H4    H     H_    0.435768 0.185402 0.634883 0.141166
H5    H     H_    0.371026 0.414106 0.789188 0.122727
H6    H     H_    0.299594 0.362375 0.967108 0.142331
H7    H     H_    0.700777 0.637087 0.032845 0.139469
H8    H     H_    0.628210 0.586621 0.210902 0.121354
H9    H     H_    0.235742 0.326977 0.586981 0.136950
H10   H     H_    0.125959 0.193917 0.665712 0.129436
H11   H     H_    0.896303 0.194562 0.667506 0.135795
H12   H     H_    0.775823 0.328144 0.590306 0.148874
H13   H     H_    0.880644 0.623004 0.411195 0.143432
H14   H     H_    0.563932 0.814744 0.365118 0.143666
H15   H     H_    0.425060 0.838877 0.703834 0.147255
H16   H     H_    0.589643 0.971291 0.281167 0.134385
N1    N     N_R   0.523180 0.519350 0.790130 -0.195230
N2    N     N_R   0.476820 0.480650 0.209890 -0.194904
O1    O     O_R   0.506570 0.354460 0.582000 -0.600599
O2    O     O_R   0.490940 0.341410 0.386200 -0.582824
O3    O     O_R   0.327470 0.506530 0.597920 -0.595367
O4    O     O_R   0.311840 0.493480 0.402120 -0.572229
O5    O     O_R   0.509060 0.658590 0.613800 -0.583213
O6    O     O_R   0.493430 0.645540 0.418000 -0.589100
O7    O     O_R   0.688160 0.506520 0.597880 -0.577390
O8    O     O_R   0.672530 0.493470 0.402080 -0.590819
C33   C     C_R   0.709988 0.641397 0.811759 0.161754
C34   C     C_R   0.830185 0.601630 0.798056 -0.139208
C35   C     C_R   0.922345 0.660923 0.759513 -0.132659
C36   C     C_R   0.896347 0.761406 0.737989 -0.127657
C37   C     C_R   0.779154 0.803635 0.757682 -0.157922
C38   C     C_R   0.687144 0.744646 0.796860 -0.123869
H17   H     H_    0.851500 0.524020 0.814997 0.130566
H18   H     H_    0.013746 0.628869 0.746105 0.142919
H19   H     H_    0.967546 0.807079 0.707695 0.128055
H20   H     H_    0.759918 0.882377 0.743597 0.138455
H21   H     H_    0.598159 0.779194 0.815579 0.120224
C39   C     C_R   0.293487 0.354747 0.187840 0.160823
C40   C     C_R   0.171876 0.390880 0.202391 -0.136754
C41   C     C_R   0.082441 0.328141 0.239838 -0.137659
C42   C     C_R   0.112756 0.228019 0.259890 -0.122882
C43   C     C_R   0.231322 0.189327 0.239095 -0.156326
C44   C     C_R   0.320386 0.251575 0.200480 -0.126825
H22   H     H_    0.147212 0.468201 0.186647 0.125273
H23   H     H_    0.989830 0.357309 0.253739 0.145738
H24   H     H_    0.043811 0.179882 0.289795 0.135704
H25   H     H_    0.253874 0.110785 0.251790 0.142015
H26   H     H_    0.410380 0.219694 0.180596 0.119746

loop_
_geom_bond_atom_site_label_1
_geom_bond_atom_site_label_2
_ccdc_geom_bond_type
Cu1   O3    S    
C23   O6    A    
C6    C32   A    
C21   C26   A    
Cu2   O4    S    
C1    C8    S    
C40   C41   A    
C30   H11   S    
C9    C14   A    
C5    H13   S    
C39   C44   A    
C34   H17   S    
C10   H3    S    
C28   C29   A    
C27   O8    A    
C5    C6    A    
C37   H20   S    
C24   H5    S    
C2    C32   A    
C18   C19   A    
C1    O1    A    
C18   H6    S    
C3    C12   S    
C19   N2    A    
C31   C32   A    
C16   C17   A    
C31   H12   S    
C40   H22   S    
C17   H2    S    
C9    C10   A    
C6    C27   S    
C24   N1    A    
C7    C15   A    
C4    H1    S    
Cu1   O7    S    
C13   C14   A    
Cu2   O8    S    
C19   C39   S    
C15   H14   S    
C33   C38   A    
Cu1   O1    S    
C41   C42   A    
C16   H15   S    
C39   C40   A    
C25   C26   A    
C11   H4    S    
C42   C43   A    
C25   N1    A    
C29   C30   A    
C38   H21   S    
C34   C35   A    
Cu1   Cu2   S    
C25   C33   S    
C36   H19   S    
C43   C44   A    
C12   O4    A    
C1    O2    A    
C7    C16   A    
Cu2   O2    S    
C41   H23   S    
C29   H10   S    
C22   C24   A    
C3    C4    A    
C42   H24   S    
C23   O5    A    
C35   H18   S    
Cu1   O5    S    
C18   C22   A    
C9    H16   S    
C4    C5    A    
C43   H25   S    
C20   H8    S    
Cu1   N1    S    
C28   H9    S    
Cu2   N2    S    
C13   C17   A    
C36   C37   A    
C2    C3    A    
C20   N2    A    
C27   O7    A    
C11   C13   A    
C30   C31   A    
C44   H26   S    
C8    C11   A    
C7    C23   S    
C33   C34   A    
C12   O3    A    
C35   C36   A    
C20   C21   A    
C8    C10   A    
C37   C38   A    
Cu2   O6    S    
C14   C15   A    
C2    C28   A    
C21   C22   A    
C26   H7    S    
