data_mof_unit_63311.cif
_audit_creation_date              2012-12-10T16:50:39-0500
_audit_creation_method            fapswitch 2.2
_symmetry_space_group_name_H-M    P1
_symmetry_Int_Tables_number       1
_space_group_crystal_system       triclinic
_cell_length_a                    18.728244
_cell_length_b                    19.032854
_cell_length_c                    18.820324
_cell_angle_alpha                 109.845725
_cell_angle_beta                  109.156681
_cell_angle_gamma                 109.638553
_cell_volume                      5149.55302468

loop_
_atom_site_label
_atom_site_type_symbol
_atom_type_description
_atom_site_fract_x
_atom_site_fract_y
_atom_site_fract_z
_atom_type_partial_charge
C1    C     C_R   0.376313 0.380931 0.495176 0.905926
C2    C     C_R   0.758935 0.579981 0.759290 -0.077958
C3    C     C_R   0.809898 0.498238 0.812857 -0.038345
C4    C     C_R   0.742312 0.419349 0.736554 0.023410
C5    C     C_R   0.672831 0.419483 0.678443 -0.161113
C6    C     C_R   0.685034 0.500254 0.686295 -0.100054
C7    C     C_R   0.740851 0.340054 0.718338 -0.256914
C8    C     C_R   0.666788 0.261841 0.650099 -0.325156
C9    C     C_R   0.592567 0.261015 0.600556 0.677116
C10   C     C_R   0.594436 0.338680 0.614740 0.541598
C11   C     C_2   0.169438 0.248927 0.487982 -0.211557
C12   C     C_R   0.619799 0.500569 0.619883 1.026368
C13   C     C_2   0.188258 0.203170 0.524278 0.277376
C14   C     C_2   0.239601 0.323040 0.498999 0.244484
C15   C     C_2   0.301003 0.312341 0.482617 0.456400
C16   C     C_2   0.174422 0.423354 0.177246 -0.128136
C17   C     C_2   0.186413 0.495462 0.174253 -0.313847
C18   C     C_2   0.247245 0.423375 0.238373 -0.139601
C19   C     C_2   0.307165 0.494903 0.315751 -0.277749
C20   C     C_2   0.734452 0.813396 0.482231 -0.306007
C21   C     C_2   0.817880 0.831501 0.518687 0.188471
C22   C     C_2   0.669878 0.754518 0.492370 0.459041
C23   C     C_R   0.611634 0.617763 0.492503 1.009956
C24   C     C_2   0.667182 0.679675 0.479207 -0.304977
C25   C     C_R   0.995536 0.381474 0.875803 0.798109
C26   C     C_R   0.877141 0.498629 0.876869 0.849691
C27   C     C_R   0.998893 0.618539 0.118354 0.934911
C28   C     C_R   0.117296 0.498503 0.114475 0.930595
C29   C     C_R   0.996690 0.115817 0.618743 0.881525
C30   C     C_R   0.119633 0.123406 0.505278 0.862460
C31   C     C_R   0.002850 0.883779 0.381077 0.878873
C32   C     C_R   0.880927 0.884451 0.503640 0.848473
C33   C     C_2   0.919358 0.179746 0.672530 -0.088080
C34   C     C_R   0.378284 0.498076 0.380091 0.893553
C35   C     C_2   0.990813 0.172914 0.686985 -0.188719
C36   C     C_2   0.919850 0.241446 0.745041 -0.306986
C37   C     C_2   0.991757 0.319245 0.802743 0.482489
C38   C     C_2   0.078510 0.819441 0.323628 0.526549
C39   C     C_2   0.006640 0.825551 0.311550 0.309058
C40   C     C_2   0.077453 0.758652 0.249982 -0.147426
C41   C     C_2   0.005564 0.681018 0.193260 -0.305000
C42   C     C_R   0.782448 0.662631 0.766754 0.265744
C43   C     C_R   0.840172 0.738473 0.848884 0.349364
C44   C     C_R   0.880771 0.732789 0.921963 0.340676
C45   C     C_R   0.869962 0.653258 0.911269 -0.266101
C46   C     C_R   0.812742 0.577035 0.828636 -0.027036
H1    H     H_    0.112130 0.363389 0.132560 0.183266
H2    H     H_    0.251152 0.552534 0.211681 0.170653
H3    H     H_    0.249020 0.363694 0.221739 0.184112
H4    H     H_    0.299688 0.551429 0.336302 0.178558
H5    H     H_    0.712818 0.840843 0.443343 0.180760
H6    H     H_    0.706551 0.661233 0.453903 0.160242
H7    H     H_    0.860367 0.138766 0.608958 0.171408
H8    H     H_    0.045495 0.206695 0.752892 0.198478
H9    H     H_    0.860708 0.223924 0.749675 0.147681
H10   H     H_    0.135800 0.776414 0.243961 0.196944
H11   H     H_    0.951562 0.659999 0.205626 0.194113
H12   H     H_    0.906151 0.651636 0.968292 0.201026
H13   H     H_    0.796263 0.337405 0.756696 0.179801
H14   H     H_    0.665975 0.201659 0.637870 0.208345
H15   H     H_    0.102199 0.229968 0.446892 0.173761
O1    O     O_R   0.409870 0.358470 0.449260 -0.536045
O2    O     O_R   0.048480 0.460610 0.906920 -0.556445
O3    O     O_R   0.854760 0.448970 0.905840 -0.617022
O4    O     O_R   0.956890 0.551080 0.905790 -0.607621
O5    O     O_R   0.945260 0.539450 0.086770 -0.612057
O6    O     O_R   0.047380 0.641560 0.086730 -0.607923
O7    O     O_R   0.036850 0.448980 0.087900 -0.608642
O8    O     O_R   0.138970 0.551100 0.087860 -0.611990
O9    O     O_R   0.050830 0.090460 0.641300 -0.611264
O10   O     O_R   0.948030 0.090450 0.538510 -0.619072
O11   O     O_R   0.141850 0.090470 0.551380 -0.551670
O12   O     O_R   0.409230 0.460600 0.550770 -0.604080
O13   O     O_R   0.039050 0.090460 0.448590 -0.638131
O14   O     O_R   0.051970 0.909550 0.461490 -0.583756
O15   O     O_R   0.949170 0.909540 0.358700 -0.560823
O16   O     O_R   0.960950 0.909540 0.551410 -0.562783
O17   O     O_R   0.858150 0.909530 0.448620 -0.643828
O18   O     O_R   0.591360 0.448940 0.540280 -0.581507
O19   O     O_R   0.590720 0.551070 0.641790 -0.601383
O20   O     O_R   0.590770 0.539400 0.449230 -0.638293
O21   O     O_R   0.590130 0.641530 0.550740 -0.527999
O22   O     O_R   0.409280 0.448930 0.358210 -0.639721
O23   O     O_R   0.408640 0.551060 0.459720 -0.593018
O24   O     O_R   0.946350 0.358500 0.906960 -0.657412
Zn1   Zn    Zn3+2 0.500430 0.431810 0.432220 1.089532
Zn2   Zn    Zn3+2 0.499570 0.568190 0.567780 1.153495
Zn3   Zn    Zn3+2 0.928680 0.431850 0.996880 1.018661
Zn4   Zn    Zn3+2 0.065060 0.568210 0.996820 1.070992
Zn5   Zn    Zn3+2 0.068640 0.000010 0.568630 1.142174
Zn6   Zn    Zn3+2 0.931360 0.999990 0.431370 1.054963
F1    F     F_    0.518159 0.184491 0.538504 -0.563051
Cl1   Cl    Cl    0.295936 0.243552 0.607148 -0.435396
Cl2   Cl    Cl    0.235224 0.419207 0.526184 -0.540404
F2    F     F_    0.289798 0.231414 0.444686 -0.580652
Cl3   Cl    Cl    0.860496 0.804928 0.598842 -0.454014
Cl4   Cl    Cl    0.595321 0.781885 0.514170 -0.525358
Cl5   Cl    Cl    0.762054 0.674692 0.674860 -0.486773
F3    F     F_    0.060320 0.346767 0.788603 -0.627594
F4    F     F_    0.153875 0.871425 0.402015 -0.616581
F5    F     F_    0.937331 0.785068 0.229660 -0.638463
Cl6   Cl    Cl    0.864126 0.840832 0.859807 -0.376213
Cl7   Cl    Cl    0.951873 0.825185 0.026625 -0.432594
F6    F     F_    0.517647 0.333480 0.570333 -0.600844

loop_
_geom_bond_atom_site_label_1
_geom_bond_atom_site_label_2
_ccdc_geom_bond_type
C24   H6    S    
C38   C40   S    
C23   O21   A    
C28   O8    A    
O23   Zn2   S    
C1    O1    A    
C7    C8    A    
O9    Zn5   S    
C45   C46   A    
C2    C46   A    
O4    Zn4   S    
O1    Zn1   S    
C36   C37   D    
C28   O7    A    
C20   H5    S    
C42   Cl5   S    
C15   F2    S    
C5    C6    A    
C30   O13   A    
C11   C14   S    
O21   Zn2   S    
C12   O18   A    
O6    Zn4   S    
C33   C36   S    
C16   H1    S    
C18   C19   D    
C25   O2    A    
C26   O3    A    
O12   Zn2   S    
O14   Zn5   S    
C25   C37   S    
C32   O16   A    
C8    C9    A    
C40   H10   S    
C23   C24   S    
C17   H2    S    
C1    C15   S    
C9    C10   A    
O20   Zn1   S    
C22   Cl4   S    
C35   H8    S    
C17   C28   S    
C2    C6    A    
C34   O23   A    
C4    C7    A    
O8    Zn4   S    
C9    F1    S    
C7    H13   S    
C44   Cl7   S    
C39   F5    S    
C33   H7    S    
O16   Zn5   S    
C21   C32   S    
C45   H12   S    
C13   C30   S    
C38   F4    S    
C16   C17   D    
C13   Cl1   S    
O13   Zn6   S    
C43   C44   A    
O11   Zn5   S    
C27   C41   S    
C31   O14   A    
O2    Zn4   S    
C25   O24   A    
O5    Zn3   S    
C40   C41   D    
C20   C22   S    
O7    Zn3   S    
C22   C24   D    
C42   C43   A    
C3    C4    A    
C37   F3    S    
C44   C45   A    
C29   O9    A    
O24   Zn3   S    
C23   O20   A    
C26   O4    A    
C3    C26   S    
C4    C5    A    
C11   H15   S    
C19   C34   S    
C30   O11   A    
C21   Cl3   S    
O17   Zn6   S    
O19   Zn2   S    
C14   Cl2   S    
C29   C35   S    
C3    C46   A    
C1    O12   A    
C10   F6    S    
C43   Cl6   S    
C41   H11   S    
C5    C10   A    
C27   O5    A    
C8    H14   S    
C6    C12   S    
C11   C13   D    
C19   H4    S    
C31   O15   A    
C38   C39   D    
C2    C42   A    
C12   O19   A    
C33   C35   D    
C31   C39   S    
C27   O6    A    
O15   Zn6   S    
C32   O17   A    
O22   Zn1   S    
O10   Zn6   S    
C20   C21   D    
C16   C18   S    
C34   O22   A    
C36   H9    S    
C14   C15   D    
O3    Zn3   S    
O18   Zn1   S    
C18   H3    S    
C29   O10   A    
