data_mof_unit_15615.cif
_audit_creation_date              2012-12-11T15:54:45-0500
_audit_creation_method            fapswitch 2.2
_symmetry_space_group_name_H-M    P1
_symmetry_Int_Tables_number       1
_space_group_crystal_system       triclinic
_cell_length_a                    6.947707
_cell_length_b                    14.51422
_cell_length_c                    16.110625
_cell_angle_alpha                 90.026368
_cell_angle_beta                  89.950403
_cell_angle_gamma                 90.035009
_cell_volume                      1624.60316832

loop_
_atom_site_label
_atom_site_type_symbol
_atom_type_description
_atom_site_fract_x
_atom_site_fract_y
_atom_site_fract_z
_atom_type_partial_charge
O1    O     O_R   0.638180 0.333920 0.163320 -0.542366
O2    O     O_R   0.361820 0.666080 0.836680 -0.543403
O3    O     O_R   0.308470 0.344960 0.336080 -0.547575
O4    O     O_R   0.691530 0.655040 0.663920 -0.544418
O5    O     O_R   0.138140 0.166110 0.336680 -0.536394
O6    O     O_R   0.861860 0.833890 0.663320 -0.537223
C1    C     C_R   0.477484 0.367175 0.364987 0.669647
C2    C     C_R   0.522535 0.632973 0.634888 0.684138
O7    O     O_R   0.308460 0.344950 0.163930 -0.512416
O8    O     O_R   0.691540 0.655050 0.836070 -0.511893
O9    O     O_R   0.138140 0.166100 0.163310 -0.541842
O10   O     O_R   0.861860 0.833900 0.836690 -0.545687
C3    C     C_R   0.477550 0.369278 0.136757 0.741364
C4    C     C_R   0.522978 0.634883 0.866499 0.740355
O11   O     O_R   0.638180 0.333930 0.336700 -0.546118
O12   O     O_R   0.361820 0.666070 0.663300 -0.544207
O13   O     O_3   0.471670 0.191340 0.250000 -0.370833
O14   O     O_3   0.528330 0.808660 0.750000 -0.373439
V1    V     V_3+5 0.196830 0.260900 0.250000 1.433317
V2    V     V_3+5 0.803170 0.739100 0.750000 1.438864
O15   O     O_R   0.808420 0.155070 0.163920 -0.543667
O16   O     O_R   0.191580 0.844930 0.836080 -0.545149
C5    C     C_R   0.977501 0.132616 0.135192 0.685428
C6    C     C_R   0.022544 0.867003 0.865091 0.668777
O17   O     O_R   0.808420 0.155080 0.336070 -0.538701
O18   O     O_R   0.191580 0.844920 0.663930 -0.538109
C7    C     C_R   0.977199 0.133034 0.364562 0.691576
C8    C     C_R   0.022804 0.866895 0.635379 0.692696
V3    V     V_3+5 0.696830 0.239130 0.250000 1.413228
V4    V     V_3+5 0.303170 0.760870 0.750000 1.413186
O19   O     O_3   0.971850 0.308690 0.250010 -0.367150
O20   O     O_3   0.028150 0.691310 0.749990 -0.362000
H1    H     H_    0.280171 0.847093 0.267019 0.106614
H2    H     H_    0.717928 0.152421 0.732650 0.117840
C9    C     C_R   0.829904 0.174560 0.528710 -0.141596
C10   C     C_R   0.169394 0.825192 0.471111 -0.139881
C11   C     C_R   0.759196 0.197181 0.607032 -0.121534
C12   C     C_R   0.239465 0.802444 0.392705 -0.128533
C13   C     C_R   0.771755 0.134231 0.671732 -0.117917
C14   C     C_R   0.226856 0.865387 0.327998 -0.127335
C15   C     C_R   0.855070 0.048149 0.658623 -0.131584
C16   C     C_R   0.144153 0.951597 0.341187 -0.130161
C17   C     C_R   0.926234 0.022629 0.579507 0.069228
C18   C     C_R   0.073449 0.977201 0.420360 0.069919
C19   C     C_R   0.913409 0.087249 0.513091 0.069322
C20   C     C_R   0.086293 0.912582 0.486780 0.069152
C21   C     C_R   0.012752 0.935226 0.566457 -0.185724
C22   C     C_R   0.987182 0.064659 0.433448 -0.185189
H3    H     H_    0.819419 0.226703 0.481009 0.108580
H4    H     H_    0.179912 0.773072 0.518831 0.106398
H5    H     H_    0.695581 0.264244 0.617681 0.121830
H6    H     H_    0.302616 0.735291 0.381993 0.113737
H7    H     H_    0.864401 0.002454 0.711472 0.106259
H8    H     H_    0.134792 0.997309 0.288349 0.102364
C23   C     C_R   0.179190 0.973947 0.968130 -0.159572
C24   C     C_R   0.820935 0.024756 0.032837 -0.155175
H9    H     H_    0.319707 0.955389 0.944320 0.115162
H10   H     H_    0.680422 0.043278 0.056670 0.115799
C25   C     C_R   0.168036 0.037485 0.033401 -0.153976
C26   C     C_R   0.832100 0.961179 0.967592 -0.165395
H11   H     H_    0.300531 0.066052 0.057685 0.118427
H12   H     H_    0.699636 0.932503 0.943376 0.115198
C27   C     C_R   0.988731 0.063933 0.066587 -0.045766
C28   C     C_R   0.011365 0.935045 0.934176 -0.049438
C29   C     C_R   0.321861 0.478694 0.464379 -0.163028
C30   C     C_R   0.678222 0.521776 0.535208 -0.158111
H13   H     H_    0.182146 0.463346 0.438013 0.115203
H14   H     H_    0.817956 0.537156 0.561537 0.118381
C31   C     C_R   0.333046 0.542458 0.529467 -0.157671
C32   C     C_R   0.667035 0.458003 0.470133 -0.162930
H15   H     H_    0.201400 0.574433 0.551052 0.116199
H16   H     H_    0.798691 0.426046 0.448535 0.116107
C33   C     C_R   0.511355 0.564789 0.565900 -0.043844
C34   C     C_R   0.488699 0.435576 0.433783 -0.043586
C35   C     C_R   0.321072 0.485036 0.039652 0.500985
C36   C     C_R   0.680434 0.541130 0.980931 0.502911
C37   C     C_R   0.334346 0.542452 0.969889 -0.295251
C38   C     C_R   0.667107 0.471849 0.041421 -0.296025
H17   H     H_    0.204103 0.568091 0.942096 0.218972
H18   H     H_    0.797341 0.444196 0.067675 0.217953
C39   C     C_R   0.513376 0.570715 0.938751 -0.245503
C40   C     C_R   0.487891 0.441902 0.071247 -0.246672
O21   O     O_3   0.144023 0.473183 0.076820 -0.539413
C41   C     C_3   0.132441 0.534179 0.145156 -0.195283
H19   H     H_    0.157595 0.606934 0.126197 0.105051
H20   H     H_    0.236215 0.515417 0.194836 0.113374
H21   H     H_    0.986025 0.529743 0.172337 0.139815
O22   O     O_3   0.857490 0.580401 0.965209 -0.539546
C42   C     C_3   0.868043 0.664763 0.009037 -0.200635
H22   H     H_    0.842073 0.655065 0.076655 0.107930
H23   H     H_    0.764485 0.716315 0.984492 0.113856
H24   H     H_    0.014336 0.694152 0.001254 0.133725

loop_
_geom_bond_atom_site_label_1
_geom_bond_atom_site_label_2
_ccdc_geom_bond_type
C7    C22   S    
C30   H14   S    
C8    C21   S    
C23   C25   A    
O13   V3    S    
C41   H21   S    
O4    C2    A    
V1    O19   S    
C13   C15   A    
O9    V1    S    
C9    C11   A    
C36   C38   A    
O3    C1    A    
C11   H5    S    
C38   H18   S    
C12   H6    S    
O12   V4    S    
C26   H12   S    
C31   H15   S    
O7    C3    A    
O5    C7    A    
O7    V1    S    
O6    C8    A    
O8    V2    S    
C29   H13   S    
C9    H3    S    
C31   C33   A    
O14   V4    S    
C42   H23   S    
C36   O22   S    
C5    C27   S    
C2    O12   A    
C15   C17   A    
C16   C18   A    
C18   C20   A    
O11   V3    S    
C1    C34   S    
C37   H17   S    
O17   V3    S    
C11   C13   A    
C25   H11   S    
H1    C14   S    
H2    C13   S    
V4    O20   S    
C41   H19   S    
O8    C4    A    
C1    O11   A    
C30   C33   A    
O15   V3    S    
C3    C40   S    
C29   C34   A    
C24   C26   A    
C32   C34   A    
C17   C19   A    
C38   C40   A    
O21   C41   S    
C37   C39   A    
C23   C28   A    
O10   V2    S    
O1    V3    S    
C24   C27   A    
C42   H24   S    
O3    V1    S    
C35   C37   A    
C15   H7    S    
O18   V4    S    
C23   H9    S    
O16   C6    A    
O1    C3    A    
C10   C12   A    
C9    C19   A    
C10   H4    S    
V2    O20   S    
C19   C22   A    
C20   C21   A    
O16   V4    S    
O18   C8    A    
C41   H20   S    
C14   C16   A    
C36   C39   A    
C35   C40   A    
O5    V1    S    
O17   C7    A    
O6    V2    S    
O10   C6    A    
C25   C27   A    
O2    V4    S    
C26   C28   A    
O15   C5    A    
V3    O19   S    
C16   H8    S    
C12   C14   A    
C10   C20   A    
C35   O21   S    
C30   C32   A    
C29   C31   A    
O9    C5    A    
C2    C33   S    
O13   V1    S    
C24   H10   S    
O14   V2    S    
O2    C4    A    
O4    V2    S    
O22   C42   S    
C6    C28   S    
C32   H16   S    
C4    C39   S    
C42   H22   S    
C17   C21   A    
C18   C22   A    
