data_mof_unit_15518.cif
_audit_creation_date              2012-12-11T15:11:52-0500
_audit_creation_method            fapswitch 2.2
_symmetry_space_group_name_H-M    P1
_symmetry_Int_Tables_number       1
_space_group_crystal_system       triclinic
_cell_length_a                    20.088839
_cell_length_b                    7.112137
_cell_length_c                    13.572456
_cell_angle_alpha                 90.000905
_cell_angle_beta                  103.685401
_cell_angle_gamma                 89.999109
_cell_volume                      1884.10506779

loop_
_atom_site_label
_atom_site_type_symbol
_atom_type_description
_atom_site_fract_x
_atom_site_fract_y
_atom_site_fract_z
_atom_type_partial_charge
O1    O     O_R   0.449830 0.506740 0.599960 -0.537116
O2    O     O_R   0.550170 0.006740 0.400040 -0.537116
O3    O     O_R   0.588980 0.179860 0.596720 -0.546583
O4    O     O_R   0.411020 0.679860 0.403280 -0.546584
C1    C     C_R   0.616744 0.344382 0.617910 0.669287
C2    C     C_R   0.383256 0.844383 0.382089 0.669287
O5    O     O_R   0.452740 0.177340 0.612040 -0.539233
O6    O     O_R   0.547260 0.677340 0.387960 -0.539234
O7    O     O_R   0.412960 0.002070 0.415460 -0.541470
O8    O     O_R   0.587040 0.502070 0.584540 -0.541469
C3    C     C_R   0.435669 0.345537 0.637271 0.693191
C4    C     C_R   0.564330 0.845533 0.362728 0.693191
O9    O     O_3   0.487110 0.337570 0.435490 -0.374568
O10   O     O_3   0.512890 0.837570 0.564510 -0.374567
V1    V     V_3+5 0.502390 0.064650 0.511970 1.398012
V2    V     V_3+5 0.497610 0.564650 0.488030 1.398013
C5    C     C_R   0.609500 0.829585 0.110781 -0.168494
C6    C     C_R   0.390504 0.329780 0.889226 -0.168493
H1    H     H_    0.515999 0.822958 0.160705 0.101135
H2    H     H_    0.484005 0.323145 0.839300 0.101132
H3    H     H_    0.691732 0.816163 0.985069 0.114097
H4    H     H_    0.308275 0.316435 0.014943 0.114097
H5    H     H_    0.582911 0.815213 0.031749 0.112842
H6    H     H_    0.417096 0.315491 0.968261 0.112842
C7    C     C_R   0.604263 0.852249 0.285944 -0.029917
C8    C     C_R   0.395736 0.352273 0.714054 -0.029910
C9    C     C_R   0.934276 0.883366 0.316255 -0.295737
C10   C     C_R   0.065722 0.383264 0.683740 -0.295738
C11   C     C_R   0.900235 0.902230 0.395255 0.511260
C12   C     C_R   0.099763 0.402159 0.604742 0.511249
C13   C     C_R   0.828386 0.891740 0.371149 -0.202079
C14   C     C_R   0.171613 0.391713 0.628850 -0.202082
C15   C     C_R   0.789469 0.867841 0.269882 -0.004137
C16   C     C_R   0.210531 0.367860 0.730119 -0.004140
C17   C     C_R   0.825428 0.855071 0.191539 0.066278
C18   C     C_R   0.174573 0.355121 0.808464 0.066276
C19   C     C_R   0.716124 0.858752 0.243281 0.101081
C20   C     C_R   0.283876 0.358799 0.756720 0.101082
C21   C     C_R   0.681245 0.840127 0.139325 0.151616
C22   C     C_R   0.318758 0.340274 0.860680 0.151613
C23   C     C_R   0.717989 0.830364 0.064289 -0.218346
C24   C     C_R   0.282015 0.330560 0.935720 -0.218342
C25   C     C_R   0.788856 0.837021 0.089783 -0.188065
C26   C     C_R   0.211147 0.337161 0.910224 -0.188059
C27   C     C_R   0.675827 0.865217 0.315807 -0.219502
C28   C     C_R   0.324171 0.365193 0.684189 -0.219508
C29   C     C_R   0.571302 0.834503 0.183768 -0.174995
C30   C     C_R   0.428700 0.334642 0.816236 -0.174999
C31   C     C_R   0.897607 0.862916 0.216158 -0.122399
C32   C     C_R   0.102393 0.362899 0.783842 -0.122396
H7    H     H_    0.698267 0.875692 0.396035 0.098159
H8    H     H_    0.301729 0.375576 0.603958 0.098162
H9    H     H_    0.989598 0.885972 0.330622 0.137077
H10   H     H_    0.010399 0.385793 0.669365 0.137081
H11   H     H_    0.804455 0.905690 0.433910 0.151507
H12   H     H_    0.195543 0.405677 0.566089 0.151509
H13   H     H_    0.814766 0.827672 0.028483 0.106705
H14   H     H_    0.185239 0.327841 0.971526 0.106694
C33   C     C_3   0.240484 0.804687 0.131996 -0.367974
C34   C     C_3   0.759516 0.304708 0.868005 -0.367970
H15   H     H_    0.227084 0.666438 0.094012 0.151688
H16   H     H_    0.772914 0.166459 0.905989 0.151693
H17   H     H_    0.240538 0.910063 0.071367 0.139159
H18   H     H_    0.759465 0.410090 0.928633 0.139152
C35   C     C_3   0.313232 0.792887 0.203456 -0.333739
C36   C     C_3   0.686767 0.292918 0.796546 -0.333740
H19   H     H_    0.348791 0.885910 0.174284 0.126441
H20   H     H_    0.651212 0.385965 0.825714 0.126438
H21   H     H_    0.332901 0.646601 0.203357 0.145069
H22   H     H_    0.667093 0.146641 0.796653 0.145073
H23   H     H_    0.180221 0.570547 0.244096 0.170844
H24   H     H_    0.819782 0.070539 0.755911 0.170840
H25   H     H_    0.283507 0.570304 0.358742 0.149591
H26   H     H_    0.716491 0.070281 0.641278 0.149592
C37   C     C_3   0.190410 0.713461 0.277637 -0.283470
C38   C     C_3   0.809589 0.213447 0.722366 -0.283469
C39   C     C_3   0.207301 0.057509 0.241729 0.037478
C40   C     C_3   0.792701 0.557504 0.758263 0.037474
C41   C     C_3   0.186315 0.860459 0.191749 0.059913
C42   C     C_3   0.813685 0.360460 0.808249 0.059910
H27   H     H_    0.205766 0.163755 0.180961 0.107506
H28   H     H_    0.794233 0.663758 0.819028 0.107505
C43   C     C_3   0.311761 0.851433 0.313042 0.083382
C44   C     C_3   0.688240 0.351432 0.686957 0.083377
C45   C     C_3   0.262471 0.715756 0.351439 -0.315745
C46   C     C_3   0.737527 0.215731 0.648568 -0.315744
C47   C     C_3   0.281188 0.052610 0.308812 -0.329129
C48   C     C_3   0.718816 0.552602 0.691175 -0.329127
H29   H     H_    0.313591 0.152330 0.277373 0.125962
H30   H     H_    0.686412 0.652344 0.722603 0.125965
H31   H     H_    0.282048 0.101208 0.386974 0.163350
H32   H     H_    0.717960 0.601169 0.613010 0.163354
H33   H     H_    0.150470 0.740934 0.320204 0.175196
H34   H     H_    0.849528 0.240913 0.679796 0.175208
H35   H     H_    0.257806 0.760292 0.428122 0.149077
H36   H     H_    0.742191 0.260237 0.571880 0.149070
O11   O     O_R   0.912980 0.203550 0.915410 -0.542570
O12   O     O_R   0.087020 0.703550 0.084590 -0.542570
O13   O     O_R   0.047270 0.535570 0.887960 -0.532199
O14   O     O_R   0.952730 0.035570 0.112040 -0.532199
C49   C     C_R   0.063822 0.368405 0.862267 0.726025
C50   C     C_R   0.936176 0.868409 0.137731 0.726020
O15   O     O_R   0.911030 0.532970 0.903270 -0.534560
O16   O     O_R   0.088970 0.032970 0.096730 -0.534558
O17   O     O_R   0.949820 0.708150 0.099970 -0.541647
O18   O     O_R   0.050180 0.208150 0.900030 -0.541648
C51   C     C_R   0.884435 0.365102 0.880093 0.676823
C52   C     C_R   0.115565 0.865102 0.119907 0.676823
O19   O     O_3   0.012900 0.375230 0.064480 -0.365433
O20   O     O_3   0.987100 0.875230 0.935520 -0.365436
V3    V     V_3+5 0.997610 0.648190 0.988040 1.463383
V4    V     V_3+5 0.002390 0.148190 0.011960 1.463392
I1    I     I_    0.137773 0.161078 0.329551 -0.492627
I2    I     I_    0.862233 0.661055 0.670446 -0.492634
O21   O     O_3   0.933140 0.927726 0.497346 -0.549356
C53   C     C_3   0.003458 0.974243 0.514384 -0.230713
H37   H     H_    0.012739 0.089195 0.464321 0.185061
H38   H     H_    0.034923 0.851715 0.503459 0.154784
H39   H     H_    0.021791 0.021064 0.594097 0.178830
O22   O     O_3   0.066854 0.427629 0.502652 -0.549361
C54   C     C_3   0.996547 0.474275 0.485626 -0.230690
H40   H     H_    0.987286 0.589173 0.535739 0.184990
H41   H     H_    0.965052 0.351771 0.496482 0.154851
H42   H     H_    0.978233 0.521238 0.405935 0.178817

loop_
_geom_bond_atom_site_label_1
_geom_bond_atom_site_label_2
_ccdc_geom_bond_type
C36   H20   S    
C47   H31   S    
C9    C11   A    
C43   C47   S    
O1    C3    A    
C38   C46   S    
H24   C38   S    
O2    C4    A    
C2    O7    A    
O3    V1    S    
C21   C23   A    
O18   V4    S    
O5    C3    A    
C42   C51   S    
C5    H5    S    
C6    H6    S    
O15   V3    S    
C44   C46   S    
O19   V3    S    
C40   C42   S    
C35   C43   S    
C27   H7    S    
O21   C53   S    
C28   H8    S    
O12   C52   A    
C53   H37   S    
C50   O17   A    
C34   H16   S    
C5    C21   A    
C6    C22   A    
O20   V3    S    
C54   H42   S    
C38   H34   S    
C10   C32   A    
C37   C45   S    
C48   H32   S    
C26   H14   S    
C35   H19   S    
C17   C31   A    
C13   C15   A    
O12   V3    S    
C12   C14   A    
C17   C25   A    
C7    C29   A    
C8    C30   A    
O5    V1    S    
C11   O21   S    
C34   C36   S    
O6    V2    S    
H23   C37   S    
C23   C25   A    
C40   I2    S    
C24   C26   A    
C39   I1    S    
C39   C41   S    
C33   H15   S    
C54   H41   S    
C44   C48   S    
O4    C2    A    
O19   V4    S    
C33   C41   S    
C31   C50   S    
O16   V4    S    
C1    C44   S    
C10   H10   S    
C3    C8    S    
C15   C19   A    
C14   C16   A    
O4    V2    S    
C40   H28   S    
C39   H27   S    
O6    C4    A    
O13   V3    S    
O14   C50   A    
C25   H13   S    
H1    C29   S    
O1    V2    S    
H26   C46   S    
O2    V1    S    
H25   C45   S    
C54   H40   S    
H2    C30   S    
C46   H36   S    
H3    C23   S    
C43   C45   S    
C48   H30   S    
O14   V4    S    
C47   H29   S    
C18   C26   A    
C38   C42   S    
C19   C27   A    
C7    C27   A    
O16   C52   A    
C18   C32   A    
O22   C54   S    
C37   H33   S    
C40   C48   S    
C49   O18   A    
O11   V4    S    
C34   C42   S    
C2    C43   S    
O13   C49   A    
C16   C20   A    
C5    C29   A    
O3    C1    A    
C6    C30   A    
C9    H9    S    
C33   H17   S    
C53   H39   S    
C4    C7    S    
C34   H18   S    
C10   C12   A    
O7    V1    S    
C1    O8    A    
C11   C13   A    
O8    V2    S    
C33   C35   S    
C20   C22   A    
C45   H35   S    
C36   H22   S    
C12   O22   S    
C35   H21   S    
C22   C24   A    
C15   C17   A    
C53   H38   S    
C41   C52   S    
C16   C18   A    
O17   V3    S    
O20   V4    S    
C20   C28   A    
C8    C28   A    
C36   C44   S    
O11   C51   A    
C39   C47   S    
C32   C49   S    
C19   C21   A    
O9    V2    S    
H4    C24   S    
O10   V1    S    
O15   C51   A    
C13   H11   S    
C37   C41   S    
C14   H12   S    
C9    C31   A    
