data_mof_unit_61984.cif
_audit_creation_date              2012-12-10T18:24:08-0500
_audit_creation_method            fapswitch 2.2
_symmetry_space_group_name_H-M    P1
_symmetry_Int_Tables_number       1
_space_group_crystal_system       triclinic
_cell_length_a                    16.088645
_cell_length_b                    16.095769
_cell_length_c                    16.100717
_cell_angle_alpha                 95.924145
_cell_angle_beta                  84.382745
_cell_angle_gamma                 90.11906
_cell_volume                      4127.10978322

loop_
_atom_site_label
_atom_site_type_symbol
_atom_type_description
_atom_site_fract_x
_atom_site_fract_y
_atom_site_fract_z
_atom_type_partial_charge
C1    C     C_R   0.510598 0.724305 0.510721 0.507108
C2    C     C_1   0.484538 0.186482 0.485818 0.012030
C3    C     C_1   0.514795 0.483812 0.184895 0.012853
C4    C     C_R   0.489370 0.275721 0.489202 0.505820
C5    C     C_2   0.521480 0.479455 0.019413 -0.126596
C6    C     C_2   0.479740 0.534726 0.981179 -0.006286
C7    C     C_1   0.483296 0.525064 0.890666 -0.057885
C8    C     C_1   0.517970 0.481225 0.109569 -0.047618
C9    C     C_1   0.486066 0.518268 0.815182 0.001399
C10   C     C_R   0.510853 0.488031 0.274589 0.507223
C11   C     C_R   0.489184 0.511850 0.725420 0.507083
C12   C     C_1   0.111094 0.520718 0.520567 -0.044762
C13   C     C_R   0.724310 0.488159 0.488185 0.506335
C14   C     C_R   0.275669 0.511884 0.511836 0.505970
C15   C     C_1   0.813743 0.483418 0.483441 0.013981
C16   C     C_2   0.978711 0.474487 0.474549 -0.120763
C17   C     C_2   0.021274 0.525649 0.525444 -0.122272
C18   C     C_R   0.583269 0.019841 0.586713 0.058191
C19   C     C_R   0.666703 0.992262 0.580901 -0.089067
C20   C     C_R   0.721956 0.029953 0.634959 -0.111867
C21   C     C_R   0.694316 0.094952 0.695637 -0.098177
C22   C     C_R   0.611251 0.122097 0.702673 -0.103840
C23   C     C_1   0.888889 0.479401 0.479437 -0.044747
C24   C     C_R   0.555757 0.084542 0.648823 -0.078900
C25   C     C_R   0.429263 0.604956 0.027887 0.058239
C26   C     C_R   0.346608 0.617665 0.010368 -0.085248
C27   C     C_R   0.298972 0.684036 0.053383 -0.110031
C28   C     C_R   0.333555 0.738624 0.113686 -0.100866
C29   C     C_R   0.415987 0.727199 0.130793 -0.112821
C30   C     C_R   0.463883 0.660972 0.087891 -0.084952
C31   C     C_1   0.186238 0.516674 0.516573 0.013929
C32   C     C_1   0.515559 0.813661 0.516140 0.001383
C33   C     C_2   0.524771 0.978875 0.529435 -0.005700
C34   C     C_2   0.477038 0.021838 0.484020 -0.127205
C35   C     C_1   0.480887 0.111541 0.484285 -0.048087
C36   C     C_1   0.519701 0.888792 0.521655 -0.057788
H1    H     H_    0.988826 0.571735 0.571276 0.135522
H2    H     H_    0.235209 0.693146 0.039943 0.111659
H3    H     H_    0.296594 0.789971 0.146902 0.111996
H4    H     H_    0.442923 0.769894 0.177064 0.112151
H5    H     H_    0.528104 0.653902 0.100931 0.117752
H6    H     H_    0.557634 0.429480 0.982046 0.123545
H7    H     H_    0.011160 0.428399 0.428720 0.138218
H8    H     H_    0.435193 0.988600 0.443319 0.122280
H9    H     H_    0.689157 0.942108 0.534042 0.112400
H10   H     H_    0.786243 0.008757 0.629784 0.110961
H11   H     H_    0.737172 0.124047 0.737423 0.112746
H12   H     H_    0.589743 0.172036 0.750105 0.113765
H13   H     H_    0.491270 0.105434 0.656091 0.113339
H14   H     H_    0.318826 0.575782 0.963946 0.112498
O1    O     O_3   0.500000 0.500000 0.500000 -0.436107
O2    O     O_R   0.689040 0.536050 0.444000 -0.535824
O3    O     O_R   0.315570 0.560650 0.560630 -0.536719
O4    O     O_R   0.679800 0.444450 0.536560 -0.534711
O5    O     O_R   0.315590 0.458850 0.458810 -0.535378
O6    O     O_R   0.458170 0.444480 0.314880 -0.533368
O7    O     O_R   0.445130 0.560630 0.690220 -0.534947
O8    O     O_R   0.559450 0.679320 0.457680 -0.537975
O9    O     O_R   0.537250 0.315570 0.537220 -0.535884
O10   O     O_R   0.458120 0.689530 0.559970 -0.533561
O11   O     O_R   0.445170 0.315580 0.445130 -0.536057
O12   O     O_R   0.559480 0.536070 0.314410 -0.538781
O13   O     O_R   0.537220 0.458810 0.680490 -0.538256
Zn1   Zn    Zn3+2 0.430930 0.430930 0.430910 0.950186
Zn2   Zn    Zn3+2 0.575680 0.561790 0.430230 0.946296
Zn3   Zn    Zn3+2 0.562480 0.430910 0.562480 0.946966
Zn4   Zn    Zn3+2 0.430910 0.576380 0.576380 0.949221

loop_
_geom_bond_atom_site_label_1
_geom_bond_atom_site_label_2
_ccdc_geom_bond_type
C2    C35   T    
C12   C17   S    
O11   Zn1   S    
C2    C4    S    
C5    H6    S    
O6    Zn1   S    
C30   H5    S    
C6    C7    S    
O4    Zn3   S    
C5    C8    S    
C13   O2    A    
C10   O6    A    
O8    Zn2   S    
C22   H12   S    
C19   C20   A    
C28   H3    S    
C14   C31   S    
C14   O5    A    
O5    Zn1   S    
C14   O3    A    
C26   H14   S    
C19   H9    S    
C33   C34   D    
O13   Zn3   S    
O9    Zn3   S    
C3    C10   S    
O1    Zn4   S    
C21   C22   A    
C9    C11   S    
C16   H7    S    
C26   C27   A    
C10   O12   A    
C1    O8    A    
O7    Zn4   S    
C18   C24   A    
C32   C36   T    
C4    O9    A    
C15   C23   T    
C28   C29   A    
C34   C35   S    
C16   C23   S    
C11   O13   A    
C13   C15   S    
C12   C31   T    
C5    C6    D    
O3    Zn4   S    
C18   C33   S    
C22   C24   A    
C3    C8    T    
C6    C25   S    
O1    Zn1   S    
C27   H2    S    
C29   C30   A    
C27   C28   A    
C33   C36   S    
C34   H8    S    
C20   C21   A    
C29   H4    S    
C13   O4    A    
O1    Zn2   S    
C1    O10   A    
C24   H13   S    
C7    C9    T    
C18   C19   A    
C25   C30   A    
C17   H1    S    
O12   Zn2   S    
C25   C26   A    
C11   O7    A    
C4    O11   A    
C1    C32   S    
C20   H10   S    
O2    Zn2   S    
O10   Zn4   S    
C16   C17   D    
C21   H11   S    
O1    Zn3   S    
