data_mof_unit_9656.cif
_audit_creation_date              2012-10-26T19:04:22-0400
_audit_creation_method            fapswitch 2.2
_symmetry_space_group_name_H-M    P1
_symmetry_Int_Tables_number       1
_space_group_crystal_system       triclinic
_cell_length_a                    14.778837
_cell_length_b                    15.815425
_cell_length_c                    9.594423
_cell_angle_alpha                 89.592845
_cell_angle_beta                  88.662313
_cell_angle_gamma                 89.710144
_cell_volume                      2241.84429591

loop_
_atom_site_label
_atom_site_type_symbol
_atom_type_description
_atom_site_fract_x
_atom_site_fract_y
_atom_site_fract_z
_atom_type_partial_charge
C1    C     C_R   0.377811 0.883917 0.502341 0.531966
C2    C     C_R   0.741732 0.199443 0.393922 -0.141649
C3    C     C_R   0.258286 0.316199 0.416699 -0.143219
C4    C     C_R   0.241714 0.699459 0.393908 -0.141661
C5    C     C_R   0.679224 0.809345 0.498255 0.010882
C6    C     C_R   0.673952 0.194729 0.497131 0.007703
C7    C     C_R   0.179227 0.309348 0.498257 0.010885
C8    C     C_R   0.173946 0.694734 0.497135 0.007697
C9    C     C_R   0.665985 0.997232 0.139009 -0.098650
C10   C     C_R   0.165985 0.497232 0.139010 -0.098654
C11   C     C_R   0.747493 0.994179 0.064237 -0.159043
C12   C     C_R   0.379037 0.116787 0.500803 0.531528
C13   C     C_R   0.247493 0.494176 0.064238 -0.159055
C14   C     C_R   0.747715 0.993400 0.920476 -0.145136
C15   C     C_R   0.247714 0.493397 0.920477 -0.145122
C16   C     C_R   0.666569 0.996247 0.850565 -0.084431
C17   C     C_R   0.166569 0.496246 0.850565 -0.084419
C18   C     C_R   0.581817 0.997716 0.922495 0.165229
C19   C     C_R   0.081817 0.497717 0.922495 0.165237
C20   C     C_R   0.581690 0.998037 0.072137 0.163299
C21   C     C_R   0.081690 0.498038 0.072137 0.163303
C22   C     C_R   0.422255 0.003894 0.076759 0.016203
C23   C     C_R   0.877813 0.383916 0.502341 0.531968
C24   C     C_R   0.922255 0.503892 0.076759 0.016213
C25   C     C_R   0.615126 0.121477 0.498790 0.526258
C26   C     C_R   0.617451 0.880382 0.499327 0.524978
C27   C     C_R   0.115124 0.621479 0.498791 0.526264
C28   C     C_R   0.117452 0.380383 0.499328 0.524978
C29   C     C_R   0.422392 0.004841 0.928968 0.025879
C30   C     C_R   0.922392 0.504837 0.928968 0.025910
C31   C     C_R   0.208073 0.097123 0.660033 -0.134500
C32   C     C_R   0.234002 0.870228 0.731724 -0.136170
C33   C     C_R   0.708089 0.597144 0.660079 -0.134502
C34   C     C_R   0.879036 0.616786 0.500803 0.531524
C35   C     C_R   0.733987 0.370238 0.731699 -0.136165
C36   C     C_R   0.126878 0.088425 0.735538 -0.129650
C37   C     C_R   0.163225 0.866935 0.830066 -0.148423
C38   C     C_R   0.626901 0.588455 0.735600 -0.129652
C39   C     C_R   0.663198 0.366955 0.830022 -0.148402
C40   C     C_R   0.560583 0.651667 0.731501 0.063821
C41   C     C_R   0.589325 0.314284 0.810277 0.061733
C42   C     C_R   0.060566 0.151643 0.731452 0.063815
C43   C     C_R   0.089356 0.814257 0.810338 0.061728
C44   C     C_R   0.577418 0.724366 0.651243 -0.107438
C45   C     C_R   0.322161 0.252190 0.418223 -0.139203
C46   C     C_R   0.590969 0.260574 0.695256 -0.104747
C47   C     C_R   0.077413 0.224357 0.651224 -0.107445
C48   C     C_R   0.090988 0.760557 0.695305 -0.104733
C49   C     C_R   0.660934 0.735784 0.578341 0.002686
C50   C     C_R   0.667057 0.256529 0.602670 0.001392
C51   C     C_R   0.160932 0.235781 0.578332 0.002686
C52   C     C_R   0.167063 0.756524 0.602692 0.001398
C53   C     C_R   0.226837 0.170884 0.581560 0.031369
C54   C     C_R   0.237124 0.816406 0.614463 0.043778
C55   C     C_R   0.726842 0.670891 0.581578 0.031364
C56   C     C_R   0.305862 0.762405 0.397537 -0.137949
C57   C     C_R   0.737118 0.316411 0.614448 0.043780
C58   C     C_R   0.308200 0.180653 0.501994 0.016019
C59   C     C_R   0.306130 0.820160 0.507424 0.021594
C60   C     C_R   0.808198 0.680652 0.501996 0.015995
C61   C     C_R   0.806134 0.320156 0.507424 0.021617
C62   C     C_2   0.473333 0.641618 0.809591 0.565219
C63   C     C_2   0.510407 0.315121 0.909014 0.578274
C64   C     C_2   0.973303 0.141577 0.809511 0.565220
C65   C     C_2   0.010458 0.815075 0.909110 0.578245
C66   C     C_R   0.822151 0.752181 0.418211 -0.139228
C67   C     C_R   0.805880 0.262389 0.397552 -0.137925
C68   C     C_R   0.758277 0.816190 0.416687 -0.143229
Cu1   Cu    Cu3+1 0.499990 0.000000 0.640660 0.935036
Cu2   Cu    Cu3+1 0.999990 0.500000 0.640660 0.935039
Cu3   Cu    Cu3+1 0.500010 0.000000 0.359340 0.937531
Cu4   Cu    Cu3+1 0.000010 0.500000 0.359340 0.937531
H1    H     H_    0.383877 0.259320 0.356004 0.144877
H2    H     H_    0.858890 0.510790 0.876622 0.095971
H3    H     H_    0.255090 0.045042 0.661990 0.122018
H4    H     H_    0.284942 0.915548 0.752208 0.138211
H5    H     H_    0.755109 0.545068 0.662053 0.122029
H6    H     H_    0.784930 0.415557 0.752187 0.138192
H7    H     H_    0.115001 0.031379 0.795354 0.153946
H8    H     H_    0.165143 0.908079 0.919732 0.144903
H9    H     H_    0.615036 0.531426 0.795446 0.153928
H10   H     H_    0.665108 0.408101 0.919685 0.144897
H11   H     H_    0.524135 0.771053 0.644754 0.185619
H12   H     H_    0.357839 0.763953 0.315972 0.147064
H13   H     H_    0.531445 0.223223 0.677370 0.187444
H14   H     H_    0.024133 0.271050 0.644746 0.185606
H15   H     H_    0.031461 0.723209 0.677427 0.187454
H16   H     H_    0.771516 0.872271 0.354028 0.117872
H17   H     H_    0.746548 0.152836 0.311769 0.129467
H18   H     H_    0.271530 0.372285 0.354049 0.117862
H19   H     H_    0.246520 0.652861 0.311740 0.129484
H20   H     H_    0.358479 0.007160 0.134178 0.121685
H21   H     H_    0.858479 0.507155 0.134178 0.121681
H22   H     H_    0.810959 0.993054 0.118444 0.160079
H23   H     H_    0.883861 0.759306 0.355984 0.144879
H24   H     H_    0.310958 0.493050 0.118445 0.160081
H25   H     H_    0.347464 0.686706 0.850692 0.341431
H26   H     H_    0.388624 0.266338 0.964189 0.340430
H27   H     H_    0.847404 0.186629 0.850557 0.341391
H28   H     H_    0.888725 0.766224 0.964386 0.340413
H29   H     H_    0.672848 0.999557 0.248844 0.174830
H30   H     H_    0.172847 0.499557 0.248844 0.174833
H31   H     H_    0.857866 0.263930 0.316000 0.147052
H32   H     H_    0.811251 0.991282 0.862178 0.184908
H33   H     H_    0.311250 0.491276 0.862180 0.184879
H34   H     H_    0.674586 0.998037 0.740315 0.186131
H35   H     H_    0.174586 0.498036 0.740316 0.186131
H36   H     H_    0.358891 0.010799 0.876621 0.095985
N1    N     N_R   0.501200 0.000000 0.147910 -0.242929
N2    N     N_R   0.001200 0.500000 0.147910 -0.242929
N3    N     N_R   0.501270 0.000000 0.852040 -0.236905
N4    N     N_R   0.001270 0.500000 0.852040 -0.236896
O1    O     O_R   0.409820 0.909830 0.618810 -0.509295
O2    O     O_R   0.590170 0.909830 0.618760 -0.524949
O3    O     O_R   0.090170 0.590170 0.618760 -0.526439
O4    O     O_R   0.090170 0.409830 0.618760 -0.524956
O5    O     O_R   0.590190 0.090180 0.381190 -0.517767
O6    O     O_R   0.590190 0.909820 0.381190 -0.513826
O7    O     O_R   0.090190 0.590180 0.381190 -0.517767
O8    O     O_R   0.090190 0.409820 0.381190 -0.513828
O9    O     O_2   0.462101 0.581696 0.889316 -0.527143
O10   O     O_R   0.403678 0.700804 0.792678 -0.709594
O11   O     O_2   0.508086 0.364196 0.007051 -0.512350
O12   O     O_R   0.409820 0.090170 0.618810 -0.500332
O13   O     O_R   0.438258 0.259702 0.890263 -0.705652
O14   O     O_2   0.962066 0.081650 0.889228 -0.527169
O15   O     O_R   0.903637 0.200748 0.792567 -0.709547
O16   O     O_2   0.008114 0.864190 0.007104 -0.512341
O17   O     O_R   0.938352 0.759591 0.890442 -0.705630
O18   O     O_R   0.909820 0.409830 0.618810 -0.509304
O19   O     O_R   0.909820 0.590170 0.618810 -0.500338
O20   O     O_R   0.409840 0.909830 0.381240 -0.502131
O21   O     O_R   0.409840 0.090170 0.381240 -0.499722
O22   O     O_R   0.909840 0.409830 0.381240 -0.502132
O23   O     O_R   0.909840 0.590170 0.381240 -0.499719
O24   O     O_R   0.590170 0.090170 0.618760 -0.526445

loop_
_geom_bond_atom_site_label_1
_geom_bond_atom_site_label_2
_ccdc_geom_bond_type
C44   C49   A    
C33   C55   A    
C66   C68   A    
C22   C29   A    
C63   O11   D    
C36   C42   A    
C4    C8    A    
C1    O20   A    
C33   H5    S    
C21   N2    A    
C67   H31   S    
C39   C41   A    
C19   N4    A    
Cu1   O1    S    
C3    H18   S    
C19   C21   A    
C48   C52   A    
C3    C7    A    
C1    C59   S    
C30   H2    S    
C11   C14   A    
C6    C25   S    
Cu2   O18   S    
C40   C62   S    
C45   H1    S    
Cu1   Cu3   S    
C25   O24   A    
C28   O4    A    
Cu3   O20   S    
C14   H32   S    
H26   O13   S    
C47   C51   A    
C41   C46   A    
C10   C13   A    
C29   H36   S    
C43   C48   A    
C8    C52   A    
C23   O22   A    
C16   H34   S    
C4    H19   S    
C12   C58   S    
C44   H11   S    
C60   C66   A    
C55   C60   A    
C4    C56   A    
C34   C60   S    
C5    C49   A    
C2    C6    A    
C1    O1    A    
C5    C68   A    
C32   C54   A    
C52   C54   A    
C56   H12   S    
C54   C59   A    
C10   C21   A    
Cu1   O2    S    
C37   H8    S    
Cu4   N2    S    
C45   C58   A    
Cu3   O5    S    
C13   H24   S    
C65   O16   D    
C10   H30   S    
C24   N2    A    
C18   N3    A    
C2    C67   A    
C28   O8    A    
H28   O17   S    
Cu4   O23   S    
H27   O15   S    
Cu1   O12   S    
Cu2   O4    S    
C49   C55   A    
C3    C45   A    
C31   C53   A    
C7    C28   S    
C5    C26   S    
C23   O18   A    
C30   N4    A    
C51   C53   A    
C37   C43   A    
C2    H17   S    
C35   C39   A    
C26   O2    A    
C32   H4    S    
H25   O10   S    
C61   C67   A    
C9    C20   A    
Cu4   O22   S    
C12   O12   A    
C23   C61   S    
C43   C65   S    
C22   N1    A    
Cu4   O8    S    
C48   H15   S    
C32   C37   A    
C6    C50   A    
C9    C11   A    
C63   O13   S    
Cu2   N4    S    
C11   H22   S    
C9    H29   S    
C34   O19   A    
Cu1   O24   S    
C64   O14   D    
C12   O21   A    
C13   C15   A    
C38   H9    S    
C68   H16   S    
C14   C16   A    
C41   C63   S    
C42   C64   S    
C31   H3    S    
C62   O10   S    
C15   C17   A    
Cu3   O6    S    
C50   C57   A    
C29   N3    A    
C26   O6    A    
C39   H10   S    
C36   H7    S    
C25   O5    A    
Cu3   O21   S    
C65   O17   S    
C53   C58   A    
C57   C61   A    
C27   O7    A    
Cu2   O3    S    
C46   C50   A    
C35   H6    S    
C33   C38   A    
C56   C59   A    
C35   C57   A    
C46   H13   S    
C17   H35   S    
C47   H14   S    
C7    C51   A    
C24   H21   S    
C64   O15   S    
C38   C40   A    
Cu1   N3    S    
C15   H33   S    
C34   O23   A    
Cu3   N1    S    
Cu4   O7    S    
Cu2   O19   S    
C17   C19   A    
C18   C20   A    
C42   C47   A    
C24   C30   A    
C20   N1    A    
C40   C44   A    
C16   C18   A    
C8    C27   S    
C22   H20   S    
C31   C36   A    
Cu2   Cu4   S    
C62   O9    D    
C66   H23   S    
C27   O3    A    
