data_mof_unit_33446.cif
_audit_creation_date              2012-12-10T18:47:48-0500
_audit_creation_method            fapswitch 2.2
_symmetry_space_group_name_H-M    P1
_symmetry_Int_Tables_number       1
_space_group_crystal_system       triclinic
_cell_length_a                    9.846765
_cell_length_b                    10.705345
_cell_length_c                    15.297123
_cell_angle_alpha                 90.067967
_cell_angle_beta                  68.23111
_cell_angle_gamma                 89.976054
_cell_volume                      1497.52137702

loop_
_atom_site_label
_atom_site_type_symbol
_atom_type_description
_atom_site_fract_x
_atom_site_fract_y
_atom_site_fract_z
_atom_type_partial_charge
C1    C     C_R   0.500029 0.740108 0.499994 0.865146
C2    C     C_R   0.397445 0.936029 0.473375 -0.197965
C3    C     C_R   0.500188 0.127515 0.499747 -0.010183
C4    C     C_R   0.500108 0.872563 0.499860 -0.012681
C5    C     C_R   0.961942 0.422592 0.441270 -0.092613
C6    C     C_R   0.037990 0.577232 0.558835 -0.097082
C7    C     C_R   0.105770 0.422583 0.441305 -0.071593
C8    C     C_R   0.894186 0.577258 0.558778 -0.063525
C9    C     C_R   0.409067 0.497299 0.676607 0.867138
C10   C     C_R   0.591154 0.498218 0.323415 0.873995
C11   C     C_R   0.356267 0.467657 0.776858 -0.079296
C12   C     C_R   0.500038 0.259916 0.499902 0.870468
C13   C     C_R   0.649079 0.482536 0.221330 -0.080898
C14   C     C_R   0.193878 0.352896 0.911143 -0.207769
C15   C     C_R   0.847617 0.488336 0.069888 -0.200116
C16   C     C_R   0.224215 0.404373 0.821964 -0.212573
C17   C     C_R   0.797230 0.501812 0.167286 -0.202114
C18   C     C_R   0.455745 0.479328 0.821463 -0.205933
C19   C     C_R   0.554056 0.443349 0.178125 -0.217834
C20   C     C_R   0.436852 0.413251 0.903593 0.087899
C21   C     C_R   0.604479 0.420272 0.081392 0.087961
C22   C     C_R   0.299381 0.357891 0.952702 0.134803
C23   C     C_R   0.372386 0.318632 0.085269 0.208163
C24   C     C_R   0.751240 0.451242 0.026401 0.137412
C25   C     C_R   0.549086 0.407004 0.940209 -0.017222
C26   C     C_R   0.508357 0.380613 0.037111 -0.017174
C27   C     C_3   0.427282 0.147620 0.170259 -0.781565
C28   C     C_3   0.755908 0.292614 0.747744 -0.747298
C29   C     C_R   0.700028 0.426659 0.884389 0.201148
C30   C     C_R   0.270495 0.307115 0.041620 -0.311008
C31   C     C_R   0.798885 0.447957 0.928739 -0.318654
C32   C     C_R   0.602929 0.936068 0.526170 -0.195963
C33   C     C_R   0.397556 0.064041 0.473244 -0.199167
C34   C     C_R   0.602928 0.064072 0.526158 -0.196102
H1    H     H_    0.167486 0.259951 0.078015 0.147623
H2    H     H_    0.318640 0.112996 0.451809 0.150630
H3    H     H_    0.681910 0.113049 0.547526 0.153489
H4    H     H_    0.318382 0.887060 0.452099 0.156385
H5    H     H_    0.934574 0.360757 0.394275 0.123926
H6    H     H_    0.065272 0.638876 0.605967 0.123793
H7    H     H_    0.187303 0.360668 0.394333 0.127525
H8    H     H_    0.812575 0.638947 0.605894 0.122472
H9    H     H_    0.231534 0.245166 0.212277 0.214360
H10   H     H_    0.400584 0.111286 0.242706 0.232583
H11   H     H_    0.546005 0.169125 0.140132 0.254752
H12   H     H_    0.912328 0.466847 0.886582 0.144858
H13   H     H_    0.402105 0.074318 0.127021 0.241440
H14   H     H_    0.853957 0.462816 0.750891 0.218743
H15   H     H_    0.794052 0.296160 0.669741 0.242040
H16   H     H_    0.644067 0.252314 0.775014 0.249385
H17   H     H_    0.830773 0.231380 0.767805 0.228527
H18   H     H_    0.438934 0.436940 0.220263 0.184052
H19   H     H_    0.550578 0.538001 0.789477 0.171625
H20   H     H_    0.872686 0.531177 0.199844 0.158307
H21   H     H_    0.147540 0.391187 0.787136 0.154497
H22   H     H_    0.090341 0.306043 0.946221 0.146248
H23   H     H_    0.960697 0.510183 0.028517 0.150903
H24   H     H_    0.681969 0.887138 0.547493 0.150064
N1    N     N_R   0.142780 0.500030 0.500020 -0.072902
N2    N     N_R   0.857220 0.499970 0.499980 -0.073579
N3    N     N_2   0.341353 0.258486 0.173721 -0.326993
N4    N     N_2   0.755851 0.417413 0.784174 -0.315117
O1    O     O_R   0.385370 0.683250 0.500010 -0.621103
O2    O     O_R   0.614630 0.316750 0.499990 -0.623889
O3    O     O_R   0.614700 0.683220 0.500000 -0.623448
O4    O     O_R   0.385300 0.316780 0.500000 -0.622403
O5    O     O_R   0.319830 0.500020 0.632250 -0.615099
O6    O     O_R   0.680170 0.499980 0.367750 -0.612087
O7    O     O_R   0.549160 0.499990 0.632240 -0.604062
O8    O     O_R   0.450840 0.500010 0.367760 -0.615887
Zn1   Zn    Zn3+2 0.346870 0.500020 0.500000 0.939350
Zn2   Zn    Zn3+2 0.653130 0.499980 0.500000 0.941185

loop_
_geom_bond_atom_site_label_1
_geom_bond_atom_site_label_2
_ccdc_geom_bond_type
O7    Zn2   S    
C14   H22   S    
C21   C26   A    
C9    O5    A    
C11   C18   A    
O8    Zn1   S    
C32   H24   S    
C34   H3    S    
C9    C11   S    
C28   H15   S    
C2    H4    S    
C2    C4    A    
O4    Zn1   S    
C5    N2    A    
C13   C17   A    
O6    Zn2   S    
C1    C4    S    
N1    Zn1   S    
C14   C22   A    
C5    H5    S    
C20   C22   A    
C24   C31   A    
C29   C31   A    
C22   C30   A    
C8    N2    A    
C15   H23   S    
C27   H11   S    
C4    C32   A    
C28   H16   S    
C30   H1    S    
C10   O8    A    
C2    C33   A    
C7    N1    A    
C15   C24   A    
C19   C21   A    
C8    H8    S    
C19   H18   S    
C10   O6    A    
O2    Zn2   S    
C25   C29   A    
C28   N4    S    
C12   O2    A    
C28   H17   S    
C14   C16   A    
C21   C24   A    
C1    O3    A    
O5    Zn1   S    
C20   C25   A    
N2    Zn2   S    
C9    O7    A    
C33   H2    S    
O3    Zn2   S    
C23   C30   A    
C1    O1    A    
H14   N4    S    
C23   N3    S    
C6    H6    S    
C3    C34   A    
H9    N3    S    
C18   C20   A    
C5    C7    A    
C11   C16   A    
C23   C26   A    
C27   H13   S    
C15   C17   A    
C17   H20   S    
C3    C33   A    
C29   N4    S    
C13   C19   A    
C6    C8    A    
C3    C12   S    
C27   N3    S    
C18   H19   S    
C25   C26   A    
C27   H10   S    
C16   H21   S    
C12   O4    A    
C6    N1    A    
C10   C13   S    
C7    H7    S    
O1    Zn1   S    
C31   H12   S    
C32   C34   A    
