data_mof_unit_34720.cif
_audit_creation_date              2012-12-10T17:31:19-0500
_audit_creation_method            fapswitch 2.2
_symmetry_space_group_name_H-M    P1
_symmetry_Int_Tables_number       1
_space_group_crystal_system       triclinic
_cell_length_a                    19.066406
_cell_length_b                    18.494798
_cell_length_c                    12.344128
_cell_angle_alpha                 90.059014
_cell_angle_beta                  128.939231
_cell_angle_gamma                 90.105231
_cell_volume                      3385.7243285

loop_
_atom_site_label
_atom_site_type_symbol
_atom_type_description
_atom_site_fract_x
_atom_site_fract_y
_atom_site_fract_z
_atom_type_partial_charge
C1    C     C_R   0.614322 0.900129 0.655655 0.785353
C2    C     C_R   0.614258 0.099985 0.655596 0.781244
C3    C     C_R   0.114552 0.400337 0.656143 0.784020
C4    C     C_R   0.109194 0.603985 0.649247 0.790146
C5    C     C_R   0.239579 0.777931 0.034894 0.052701
C6    C     C_R   0.262616 0.244411 0.069271 0.052865
C7    C     C_R   0.762005 0.256061 0.068405 0.051482
C8    C     C_R   0.761216 0.741842 0.065633 0.053110
C9    C     C_R   0.677352 0.262634 0.039892 0.097045
C10   C     C_R   0.675714 0.733282 0.034173 0.097558
C11   C     C_R   0.165590 0.768170 0.034592 0.095902
C12   C     C_R   0.178286 0.238202 0.041754 0.096927
C13   C     C_R   0.598732 0.238284 0.914151 -0.205439
C14   C     C_R   0.597626 0.758010 0.908867 -0.221705
C15   C     C_R   0.089061 0.731093 0.925607 -0.221172
C16   C     C_R   0.099807 0.263035 0.916814 -0.213241
C17   C     C_R   0.602437 0.207292 0.816122 -0.184977
C18   C     C_R   0.602010 0.791304 0.813427 -0.177685
C19   C     C_R   0.086508 0.700654 0.820535 -0.190680
C20   C     C_R   0.103355 0.293649 0.818371 -0.185986
C21   C     C_R   0.319439 0.808836 0.153920 0.331376
C22   C     C_R   0.335852 0.203285 0.180318 0.319580
C23   C     C_R   0.835631 0.296546 0.181025 0.319887
C24   C     C_R   0.835105 0.702855 0.180795 0.324697
C25   C     C_R   0.241835 0.837592 0.246924 -0.259912
C26   C     C_R   0.243975 0.163216 0.243785 -0.258978
C27   C     C_R   0.743100 0.337447 0.242587 -0.260850
C28   C     C_R   0.740021 0.657818 0.235194 -0.252156
C29   C     C_R   0.689387 0.147634 0.757346 -0.156401
C30   C     C_R   0.689220 0.852306 0.756746 -0.155845
C31   C     C_R   0.164759 0.669042 0.724701 -0.165414
C32   C     C_R   0.190430 0.353931 0.759716 -0.157883
C33   C     C_R   0.683737 0.001048 0.285103 -0.295108
C34   C     C_R   0.183735 0.500124 0.285095 -0.294934
C35   C     C_R   0.344109 0.998173 0.628221 0.079496
C36   C     C_R   0.844095 0.500005 0.628205 0.070925
C37   C     C_R   0.310116 0.996246 0.700428 -0.237299
C38   C     C_R   0.810076 0.500063 0.700408 -0.254466
C39   C     C_R   0.387758 0.101403 0.347094 0.802245
C40   C     C_R   0.386319 0.899351 0.345191 0.791478
C41   C     C_R   0.887238 0.600921 0.346466 0.798558
C42   C     C_R   0.887611 0.398668 0.347019 0.803720
C43   C     C_R   0.368664 0.996562 0.845719 -0.183294
C44   C     C_R   0.868633 0.500099 0.845709 -0.164247
C45   C     C_R   0.462753 0.998692 0.921489 -0.008838
C46   C     C_R   0.962750 0.500082 0.921493 -0.003214
C47   C     C_R   0.494570 0.999900 0.842601 0.285088
C48   C     C_R   0.994570 0.500066 0.842603 0.279878
C49   C     C_R   0.526351 0.999339 0.071935 -0.041245
C50   C     C_R   0.026350 0.500079 0.071940 -0.040948
C51   C     C_R   0.619841 0.000424 0.139259 0.172972
C52   C     C_R   0.119839 0.500101 0.139258 0.170907
C53   C     C_R   0.649371 0.000861 0.060982 -0.271344
C54   C     C_R   0.149365 0.500097 0.060981 -0.265421
C55   C     C_R   0.588395 0.000603 0.916575 -0.164340
C56   C     C_R   0.088390 0.500109 0.916573 -0.166273
C57   C     C_R   0.501980 0.999192 0.159862 0.079542
C58   C     C_R   0.001981 0.500019 0.159870 0.091599
C59   C     C_R   0.655421 0.000813 0.364971 0.070937
C60   C     C_R   0.155418 0.500081 0.364959 0.064980
C61   C     C_R   0.670674 0.298192 0.132897 -0.198751
C62   C     C_R   0.667413 0.695608 0.123718 -0.197602
C63   C     C_R   0.168281 0.796600 0.142246 -0.199348
C64   C     C_R   0.171791 0.202703 0.134966 -0.202604
C65   C     C_R   0.316665 0.845740 0.251302 -0.152460
C66   C     C_R   0.323350 0.158882 0.260194 -0.136240
C67   C     C_R   0.822898 0.341236 0.260135 -0.135632
C68   C     C_R   0.821520 0.657124 0.257779 -0.135840
C69   C     C_R   0.771511 0.136848 0.783564 -0.214632
C70   C     C_R   0.771036 0.862438 0.781709 -0.213265
C71   C     C_R   0.225048 0.693231 0.703038 -0.222723
C72   C     C_R   0.273107 0.366894 0.788543 -0.210908
C73   C     C_R   0.284013 0.751282 0.780474 0.294897
C74   C     C_R   0.354133 0.347823 0.917625 0.295086
C75   C     C_R   0.852633 0.157040 0.911650 0.294419
C76   C     C_R   0.851995 0.840615 0.907772 0.286150
C77   C     C_R   0.289330 0.778929 0.890972 -0.188293
C78   C     C_R   0.350453 0.311642 0.013386 -0.194735
C79   C     C_R   0.849556 0.190761 0.009883 -0.192101
C80   C     C_R   0.849260 0.806980 0.006359 -0.196201
C81   C     C_R   0.767101 0.213436 0.976960 0.060547
C82   C     C_R   0.766752 0.785014 0.974781 0.059055
C83   C     C_R   0.232289 0.753388 0.918994 0.060753
C84   C     C_R   0.267852 0.287730 0.978704 0.063665
C85   C     C_R   0.685820 0.190071 0.848789 0.060541
C86   C     C_R   0.685562 0.809127 0.847288 0.063789
C87   C     C_R   0.160819 0.706352 0.821373 0.064716
C88   C     C_R   0.186698 0.311096 0.850728 0.061622
Cu1   Cu    Cu3+1 0.526340 0.000000 0.421010 0.952502
Cu2   Cu    Cu3+1 0.026340 0.500000 0.421010 0.957511
Cu3   Cu    Cu3+1 0.473640 0.000000 0.578990 0.918053
Cu4   Cu    Cu3+1 0.973640 0.500000 0.578990 0.914644
H1    H     H_    0.239385 0.863972 0.322881 0.171362
H2    H     H_    0.234788 0.131054 0.307369 0.167905
H3    H     H_    0.733859 0.369899 0.305873 0.167573
H4    H     H_    0.729934 0.623984 0.296013 0.167723
H5    H     H_    0.720896 0.001486 0.112093 0.149339
H6    H     H_    0.220891 0.500089 0.112097 0.151849
H7    H     H_    0.755356 0.001798 0.337139 0.133947
H8    H     H_    0.255357 0.500167 0.337128 0.135900
H9    H     H_    0.432414 0.998674 0.117401 0.128555
H10   H     H_    0.932423 0.499978 0.117432 0.130470
H11   H     H_    0.297964 0.997774 0.515569 0.119579
H12   H     H_    0.797953 0.499973 0.515549 0.122073
H13   H     H_    0.338593 0.994850 0.896012 0.137190
H14   H     H_    0.838531 0.500144 0.895993 0.141534
H15   H     H_    0.237963 0.994436 0.643439 0.141379
H16   H     H_    0.737895 0.500074 0.643411 0.143798
H17   H     H_    0.618368 0.000747 0.867298 0.207386
H18   H     H_    0.118348 0.500195 0.867275 0.209875
H19   H     H_    0.533463 0.247021 0.888134 0.170609
H20   H     H_    0.532184 0.748087 0.881393 0.154979
H21   H     H_    0.030926 0.725270 0.921749 0.178365
H22   H     H_    0.034669 0.254988 0.891619 0.174220
H23   H     H_    0.607465 0.299687 0.115202 0.167431
H24   H     H_    0.602847 0.691143 0.101770 0.154589
H25   H     H_    0.111907 0.789586 0.142355 0.164087
H26   H     H_    0.108882 0.201530 0.118263 0.170247
H27   H     H_    0.772397 0.105377 0.710543 0.160271
H28   H     H_    0.772133 0.894257 0.709327 0.159969
H29   H     H_    0.224959 0.667085 0.624592 0.168774
H30   H     H_    0.274099 0.399063 0.716412 0.160131
H31   H     H_    0.334141 0.824259 0.948071 0.184081
H32   H     H_    0.413465 0.306592 0.116984 0.180566
H33   H     H_    0.913028 0.195268 0.113066 0.184750
H34   H     H_    0.913342 0.801855 0.108129 0.192102
H35   H     H_    0.538856 0.195997 0.714811 0.161103
H36   H     H_    0.538730 0.803255 0.712480 0.155448
H37   H     H_    0.023216 0.676573 0.735211 0.180998
H38   H     H_    0.039678 0.304778 0.717381 0.161630
H39   H     H_    0.704621 0.001360 0.477465 0.111163
H40   H     H_    0.204615 0.500103 0.477443 0.116730
N1    N     N_R   0.566260 0.000000 0.302220 -0.179311
N2    N     N_R   0.066260 0.500000 0.302220 -0.180497
N3    N     N_R   0.434410 0.000000 0.697680 -0.206761
N4    N     N_R   0.934410 0.500000 0.697680 -0.207703
O1    O     O_R   0.608610 0.924520 0.551740 -0.584959
O2    O     O_R   0.608610 0.075480 0.551740 -0.586560
O3    O     O_R   0.108610 0.424520 0.551740 -0.583953
O4    O     O_R   0.108610 0.575480 0.551740 -0.587779
O5    O     O_R   0.564110 0.924510 0.685150 -0.599254
O6    O     O_R   0.564110 0.075490 0.685150 -0.598038
O7    O     O_R   0.064110 0.424510 0.685150 -0.596819
O8    O     O_R   0.064110 0.575490 0.685150 -0.606312
O9    O     O_R   0.435880 0.075470 0.314850 -0.548733
O10   O     O_R   0.435880 0.924530 0.314850 -0.564149
O11   O     O_R   0.935880 0.575470 0.314850 -0.550725
O12   O     O_R   0.935880 0.424530 0.314850 -0.548883
O13   O     O_R   0.391380 0.075460 0.448260 -0.594882
O14   O     O_R   0.391380 0.924540 0.448260 -0.592102
O15   O     O_R   0.891380 0.575460 0.448260 -0.599565
O16   O     O_R   0.891380 0.424540 0.448260 -0.595342
O17   O     O_3   0.400082 0.797534 0.178641 -0.750142
H41   H     H_    0.449789 0.797529 0.280593 0.329793
O18   O     O_3   0.415167 0.199394 0.199547 -0.741060
H42   H     H_    0.465608 0.200627 0.301308 0.318512
O19   O     O_3   0.915861 0.299700 0.202868 -0.742600
H43   H     H_    0.965536 0.298484 0.304919 0.317765
O20   O     O_3   0.917294 0.702609 0.208694 -0.749332
H44   H     H_    0.965168 0.703429 0.311337 0.316935
N5    N     N_2   0.337534 0.784097 0.749298 -0.430069
H45   H     H_    0.395943 0.809752 0.830577 0.251300
C89   C     C_3   0.338110 0.754764 0.641095 -0.709522
H46   H     H_    0.379688 0.789920 0.628247 0.231058
H47   H     H_    0.268700 0.753733 0.539947 0.238200
H48   H     H_    0.367367 0.699554 0.669641 0.219761
N6    N     N_2   0.440483 0.367194 0.958194 -0.436983
H49   H     H_    0.489940 0.377352 0.063029 0.236551
C90   C     C_3   0.447052 0.410604 0.867356 -0.722212
H50   H     H_    0.519120 0.417614 0.915068 0.234880
H51   H     H_    0.417232 0.464841 0.852452 0.225163
H52   H     H_    0.412805 0.382962 0.765526 0.233839
N7    N     N_2   0.938648 0.140212 0.949429 -0.437591
H53   H     H_    0.986094 0.121198 0.049417 0.237361
C91   C     C_3   0.944907 0.111529 0.846670 -0.726412
H54   H     H_    0.016854 0.107824 0.892338 0.236543
H55   H     H_    0.910132 0.147896 0.754919 0.236083
H56   H     H_    0.914932 0.056662 0.814172 0.218642
N8    N     N_2   0.937795 0.855954 0.943408 -0.439141
H57   H     H_    0.985506 0.877778 0.041121 0.239906
C92   C     C_3   0.943590 0.878211 0.836862 -0.706367
H58   H     H_    0.015371 0.880339 0.881305 0.238804
H59   H     H_    0.914459 0.932803 0.798179 0.211170
H60   H     H_    0.907840 0.838752 0.749409 0.238278

loop_
_geom_bond_atom_site_label_1
_geom_bond_atom_site_label_2
_ccdc_geom_bond_type
C26   H2    S    
C83   C87   A    
C25   H1    S    
O19   H43   S    
C75   N7    S    
C90   H50   S    
C14   C18   A    
C53   C55   A    
C27   H3    S    
C89   H46   S    
C76   N8    S    
C42   O12   A    
C39   C66   S    
C60   H40   S    
Cu3   N3    S    
N5    H45   S    
C24   O20   S    
C64   H26   S    
C32   C72   A    
C10   C62   A    
N7    H53   S    
C58   N2    A    
C14   H20   S    
C59   H39   S    
C18   C86   A    
C2    C29   S    
C9    C61   A    
C28   C68   A    
C5    C11   A    
C35   H11   S    
C6    C12   A    
Cu2   N2    S    
C77   C83   A    
Cu3   O13   S    
C32   C88   A    
C20   C88   A    
C49   C57   A    
C48   C56   A    
C25   C63   A    
C23   C67   A    
Cu4   O7    S    
C26   C64   A    
C22   C66   A    
C9    C13   A    
C27   C61   A    
C18   H36   S    
C15   C19   A    
C11   C15   A    
C1    O5    A    
C12   C16   A    
C44   C46   A    
C49   C51   A    
C61   H23   S    
C50   C52   A    
C15   H21   S    
C58   H10   S    
C45   C49   A    
C30   C86   A    
C78   H32   S    
C30   C70   A    
C29   C85   A    
Cu3   O6    S    
C47   N3    A    
C6    C22   A    
C31   C71   A    
C79   H33   S    
C33   C59   A    
C55   H17   S    
C34   C60   A    
C90   H51   S    
C57   N1    A    
Cu4   N4    S    
C36   N4    A    
C56   H18   S    
C74   N6    S    
N5    C89   S    
C52   C54   A    
Cu2   O3    S    
C91   H56   S    
C54   C56   A    
C22   O18   S    
C45   C47   A    
Cu1   O10   S    
C46   C48   A    
Cu1   N1    S    
C40   O14   A    
C2    O2    A    
C84   C88   A    
C89   H48   S    
C6    C84   A    
C91   H55   S    
C10   C14   A    
C92   H59   S    
C70   H28   S    
N6    H49   S    
C79   C81   A    
C17   H35   S    
C53   H5    S    
C92   H58   S    
C59   N1    A    
C63   H25   S    
N8    H57   S    
N6    C90   S    
C33   H7    S    
C26   C66   A    
C72   H30   S    
C37   C43   A    
Cu1   O9    S    
C34   H8    S    
C38   C44   A    
Cu2   O11   S    
C77   H31   S    
C78   C84   A    
C4    O4    A    
C73   N5    S    
O20   H44   S    
C41   O11   A    
C43   H13   S    
C16   C20   A    
C39   O9    A    
Cu4   O15   S    
C50   C58   A    
C3    O7    A    
C43   C45   A    
N7    C91   S    
C72   C74   A    
C7    C81   A    
Cu1   O2    S    
Cu1   O1    S    
C40   C65   S    
C70   C76   A    
C42   C67   S    
C2    O6    A    
C90   H52   S    
C17   C85   A    
C31   C87   A    
C3    O3    A    
Cu2   O12   S    
C35   N3    A    
C60   N2    A    
C1    O1    A    
C35   C37   A    
C47   C55   A    
C92   H60   S    
C19   H37   S    
C7    C9    A    
C12   C64   A    
C46   C50   A    
C41   C68   S    
C21   O17   S    
C89   H47   S    
C48   N4    A    
C54   H6    S    
C76   C80   A    
C20   H38   S    
C16   H22   S    
C4    O8    A    
Cu3   O14   S    
Cu2   O4    S    
C5    C83   A    
C37   H15   S    
C41   O15   A    
C44   H14   S    
C33   C51   A    
C57   H9    S    
C39   O13   A    
C34   C52   A    
C40   O10   A    
C28   H4    S    
C21   C65   A    
C36   C38   A    
Cu2   Cu4   S    
C19   C87   A    
C13   H19   S    
C91   H54   S    
C82   C86   A    
C36   H12   S    
C80   H34   S    
C7    C23   A    
C23   O19   S    
C1    C30   S    
C8    C24   A    
C80   C82   A    
C69   H27   S    
C69   C75   A    
C38   H16   S    
C3    C32   S    
Cu4   O8    S    
C4    C31   S    
C27   C67   A    
C62   H24   S    
C24   C68   A    
C13   C17   A    
C71   H29   S    
Cu4   O16   S    
C8    C82   A    
C5    C21   A    
C8    C10   A    
Cu1   Cu3   S    
C74   C78   A    
C71   C73   A    
O18   H42   S    
C25   C65   A    
C73   C77   A    
C29   C69   A    
N8    C92   S    
C51   C53   A    
O17   H41   S    
C11   C63   A    
C75   C79   A    
C81   C85   A    
C42   O16   A    
Cu3   O5    S    
C28   C62   A    
