data_mof_unit_11169.cif
_audit_creation_date              2012-12-11T15:41:28-0500
_audit_creation_method            fapswitch 2.2
_symmetry_space_group_name_H-M    P1
_symmetry_Int_Tables_number       1
_space_group_crystal_system       triclinic
_cell_length_a                    19.07518
_cell_length_b                    10.960477
_cell_length_c                    18.813267
_cell_angle_alpha                 90.063653
_cell_angle_beta                  90.223539
_cell_angle_gamma                 89.920113
_cell_volume                      3933.31135682

loop_
_atom_site_label
_atom_site_type_symbol
_atom_type_description
_atom_site_fract_x
_atom_site_fract_y
_atom_site_fract_z
_atom_type_partial_charge
C1    C     C_R   0.724457 0.962181 0.856185 0.547445
C2    C     C_R   0.306992 0.453826 0.034147 0.016739
C3    C     C_R   0.762530 0.855658 0.356184 0.544595
C4    C     C_2   0.496959 0.169009 0.920703 -0.118023
C5    C     C_2   0.500840 0.170412 0.078215 -0.113312
C6    C     C_2   0.000092 0.667005 0.922132 -0.127671
C7    C     C_2   0.003099 0.670358 0.079493 -0.127307
C8    C     C_2   0.495130 0.069054 0.038581 -0.164295
C9    C     C_2   0.506515 0.069263 0.961173 -0.166056
C10   C     C_2   0.000357 0.568383 0.040193 -0.165185
C11   C     C_2   0.014719 0.569683 0.963374 -0.167460
C12   C     C_R   0.765678 0.445502 0.067746 0.021999
C13   C     C_R   0.194510 0.964705 0.962224 0.009484
C14   C     C_R   0.251534 0.408216 0.920923 0.015398
C15   C     C_R   0.265246 0.943874 0.067966 0.019227
C16   C     C_R   0.735025 0.943388 0.931871 0.021500
C17   C     C_R   0.803154 0.971964 0.038892 0.017695
C18   C     C_R   0.817470 0.414766 0.951353 -0.152885
C19   C     C_R   0.218477 0.297658 0.026140 -0.147295
C20   C     C_R   0.317230 0.916351 0.951280 -0.158576
C21   C     C_R   0.682952 0.906427 0.047352 -0.152923
C22   C     C_R   0.824426 0.421969 0.024809 -0.148592
C23   C     C_R   0.214711 0.312729 0.952918 -0.158956
C24   C     C_R   0.323995 0.921649 0.024833 -0.148540
C25   C     C_R   0.275640 0.962197 0.143734 0.544538
C26   C     C_R   0.677045 0.911591 0.973890 -0.150130
C27   C     C_3   0.630963 0.434749 0.049326 -0.287394
C28   C     C_3   0.313575 0.605999 0.969231 -0.246780
C29   C     C_3   0.130847 0.929142 0.049646 -0.293041
C30   C     C_3   0.869637 0.948725 0.952280 -0.285799
C31   C     C_3   0.622304 0.418548 0.969718 -0.258992
C32   C     C_3   0.320337 0.585554 0.048612 -0.281205
C33   C     C_3   0.122233 0.913892 0.969981 -0.260131
C34   C     C_3   0.877835 0.932227 0.031922 -0.260844
C35   C     C_R   0.750864 0.425214 0.919907 0.015695
C36   C     C_R   0.227200 0.456299 0.853424 0.544455
C37   C     C_R   0.260573 0.375609 0.068165 0.021771
C38   C     C_R   0.250575 0.925558 0.919902 0.011716
C39   C     C_R   0.748495 0.924254 0.079966 0.015345
C40   C     C_R   0.483548 0.170296 0.431486 0.021211
C41   C     C_R   0.491403 0.170646 0.579115 0.019401
C42   C     C_R   0.979557 0.669648 0.432754 0.018100
C43   C     C_R   0.989643 0.670974 0.580101 0.017811
C44   C     C_R   0.475504 0.278073 0.469652 0.044106
C45   C     C_R   0.478766 0.279333 0.541991 0.027980
C46   C     C_R   0.973579 0.778017 0.470640 0.042921
C47   C     C_R   0.775865 0.462860 0.143565 0.548347
C48   C     C_R   0.977475 0.779773 0.542880 0.030953
C49   C     C_R   0.485599 0.059297 0.542742 -0.171786
C50   C     C_R   0.483686 0.059135 0.468513 -0.166750
C51   C     C_R   0.980345 0.559450 0.544478 -0.167092
C52   C     C_R   0.976244 0.558715 0.470231 -0.161200
C53   C     C_R   0.529451 0.177625 0.850525 0.544884
C54   C     C_R   0.470008 0.177719 0.149134 0.552368
C55   C     C_R   0.030446 0.677426 0.851128 0.544309
C56   C     C_R   0.970390 0.677675 0.149449 0.547077
C57   C     C_3   0.513342 0.395903 0.461079 -0.280214
C58   C     C_R   0.703098 0.479858 0.034708 0.028193
C59   C     C_3   0.517320 0.399233 0.541037 -0.269073
C60   C     C_3   0.011820 0.895219 0.461255 -0.278361
C61   C     C_3   0.016276 0.899508 0.541240 -0.267887
C62   C     C_R   0.762910 0.440868 0.430154 0.015075
C63   C     C_R   0.248352 0.402247 0.579893 0.017257
C64   C     C_R   0.249575 0.912618 0.421802 0.013697
C65   C     C_R   0.749665 0.900741 0.580461 0.014562
C66   C     C_R   0.818409 0.392203 0.469161 0.041780
C67   C     C_R   0.199120 0.334049 0.541228 0.023291
C68   C     C_R   0.284970 0.817232 0.455651 0.018028
C69   C     C_R   0.301550 0.471790 0.961541 0.013108
C70   C     C_R   0.701814 0.828704 0.542361 0.029482
C71   C     C_R   0.815297 0.382063 0.541651 0.029098
C72   C     C_R   0.203721 0.324472 0.468811 0.032024
C73   C     C_R   0.283447 0.807494 0.528422 0.045421
C74   C     C_R   0.706127 0.819028 0.469821 0.040567
C75   C     C_R   0.705134 0.489628 0.542008 -0.163349
C76   C     C_R   0.313610 0.430890 0.470693 -0.151780
C77   C     C_R   0.201626 0.973748 0.536620 -0.173613
C78   C     C_R   0.813585 0.932712 0.470613 -0.159511
C79   C     C_R   0.708457 0.499091 0.467627 -0.160410
C80   C     C_R   0.202390 0.976678 0.035112 0.009689
C81   C     C_R   0.309542 0.439738 0.545055 -0.155086
C82   C     C_R   0.203247 0.984990 0.462472 -0.164717
C83   C     C_R   0.809957 0.941548 0.545014 -0.165577
C84   C     C_3   0.855529 0.273603 0.459823 -0.280108
C85   C     C_3   0.120724 0.342778 0.537496 -0.268209
C86   C     C_3   0.360013 0.777125 0.452867 -0.270767
C87   C     C_3   0.623309 0.832848 0.538975 -0.269921
C88   C     C_3   0.852288 0.261347 0.539710 -0.270885
C89   C     C_3   0.126456 0.331436 0.457683 -0.280735
C90   C     C_3   0.358660 0.771181 0.533124 -0.266524
C91   C     C_R   0.795614 0.985003 0.965989 0.030910
C92   C     C_3   0.628740 0.821992 0.459185 -0.279514
C93   C     C_R   0.755489 0.419701 0.578671 0.016101
C94   C     C_R   0.257169 0.381731 0.431496 0.018233
C95   C     C_R   0.245714 0.889258 0.570522 0.020920
C96   C     C_R   0.757979 0.879630 0.431994 0.015441
C97   C     C_R   0.738261 0.364944 0.852296 0.546445
C98   C     C_R   0.264089 0.354858 0.144193 0.549023
C99   C     C_R   0.238285 0.865229 0.852204 0.537813
C100  C     C_R   0.761677 0.864730 0.147673 0.547321
C101  C     C_R   0.728181 0.953385 0.648177 0.544901
C102  C     C_R   0.695149 0.466839 0.961890 0.017920
C103  C     C_R   0.272045 0.955629 0.352515 0.552319
C104  C     C_R   0.227965 0.453664 0.648088 0.546496
C105  C     C_R   0.774115 0.460604 0.354721 0.546122
C106  C     C_R   0.528341 0.176652 0.645894 0.548078
C107  C     C_R   0.467928 0.176363 0.356821 0.544578
C108  C     C_R   0.028053 0.676655 0.646105 0.547501
C109  C     C_R   0.966588 0.676343 0.357561 0.545861
C110  C     C_R   0.739989 0.363535 0.646925 0.544133
C111  C     C_R   0.262321 0.356338 0.355937 0.548194
C112  C     C_R   0.238830 0.859784 0.645309 0.545195
Cr1   Cr    Cr6+3 0.769260 0.163750 0.750730 1.010692
Cr2   Cr    Cr6+3 0.385810 0.322400 0.252290 1.014917
Cr3   Cr    Cr6+3 0.114190 0.822400 0.747710 1.006227
Cr4   Cr    Cr6+3 0.885810 0.822400 0.252290 1.010133
Cr5   Cr    Cr6+3 0.230740 0.163750 0.249270 1.011573
Cr6   Cr    Cr6+3 0.269260 0.663750 0.750730 1.008054
Cr7   Cr    Cr6+3 0.730740 0.663750 0.249270 1.012970
Cr8   Cr    Cr6+3 0.612640 0.009910 0.748780 1.006222
Cr9   Cr    Cr6+3 0.387360 0.009910 0.251220 1.004976
Cr10  Cr    Cr6+3 0.112640 0.509910 0.748780 1.005869
Cr11  Cr    Cr6+3 0.887360 0.509910 0.251220 1.011587
Cr12  Cr    Cr6+3 0.614190 0.322400 0.747710 1.008485
H1    H     H_    0.482137 0.982852 0.063371 0.135152
H2    H     H_    0.486281 0.474725 0.564852 0.122749
H3    H     H_    0.063508 0.882599 0.435110 0.141601
H4    H     H_    0.985372 0.975364 0.564846 0.123844
H5    H     H_    0.660887 0.528680 0.569745 0.120337
H6    H     H_    0.359507 0.465013 0.443959 0.126712
H7    H     H_    0.167945 0.033317 0.567307 0.122143
H8    H     H_    0.858074 0.971179 0.443352 0.130258
H9    H     H_    0.667679 0.547974 0.439537 0.129245
H10   H     H_    0.351541 0.482454 0.574529 0.117090
H11   H     H_    0.173017 0.057305 0.438037 0.139565
H12   H     H_    0.524341 0.984855 0.937289 0.139539
H13   H     H_    0.850950 0.989092 0.573629 0.120544
H14   H     H_    0.909747 0.284763 0.439575 0.133721
H15   H     H_    0.101569 0.433759 0.554248 0.169487
H16   H     H_    0.396149 0.847677 0.433001 0.161971
H17   H     H_    0.602718 0.922679 0.555729 0.168412
H18   H     H_    0.823217 0.204919 0.431077 0.137143
H19   H     H_    0.094449 0.263507 0.562775 0.127223
H20   H     H_    0.365959 0.686382 0.427252 0.126903
H21   H     H_    0.598636 0.752206 0.564437 0.128675
H22   H     H_    0.817679 0.185969 0.556672 0.166648
H23   H     H_    0.987126 0.481760 0.064465 0.142602
H24   H     H_    0.104166 0.244930 0.436726 0.132692
H25   H     H_    0.366214 0.678262 0.554302 0.137742
H26   H     H_    0.607539 0.734761 0.438228 0.133920
H27   H     H_    0.904634 0.264576 0.565836 0.126995
H28   H     H_    0.110091 0.415265 0.428742 0.139441
H29   H     H_    0.391352 0.842105 0.559215 0.135115
H30   H     H_    0.611002 0.905074 0.430379 0.136317
H31   H     H_    0.862741 0.387806 0.920433 0.138813
H32   H     H_    0.185859 0.228240 0.049941 0.150160
H33   H     H_    0.362633 0.890570 0.920228 0.135004
H34   H     H_    0.039045 0.488744 0.940942 0.157979
H35   H     H_    0.638205 0.874456 0.077322 0.137543
H36   H     H_    0.875390 0.404679 0.047947 0.136080
H37   H     H_    0.177712 0.258008 0.922897 0.137455
H38   H     H_    0.374776 0.903409 0.047917 0.134325
H39   H     H_    0.627538 0.886353 0.950092 0.132957
H40   H     H_    0.095923 0.000283 0.072433 0.138555
H41   H     H_    0.901144 0.025537 0.930910 0.141867
H42   H     H_    0.596748 0.507334 0.071674 0.142580
H43   H     H_    0.266469 0.660598 0.954896 0.158970
H44   H     H_    0.631134 0.347413 0.079346 0.132905
H45   H     H_    0.978707 0.968763 0.438387 0.134825
H46   H     H_    0.363306 0.635738 0.944040 0.141870
H47   H     H_    0.132193 0.841439 0.079265 0.132819
H48   H     H_    0.873269 0.862294 0.921568 0.131336
H49   H     H_    0.617932 0.321222 0.953738 0.156321
H50   H     H_    0.374246 0.601793 0.069140 0.140406
H51   H     H_    0.119025 0.816689 0.953537 0.154945
H52   H     H_    0.885815 0.835380 0.047353 0.156509
H53   H     H_    0.582334 0.480513 0.946174 0.143201
H54   H     H_    0.277788 0.629506 0.079831 0.137036
H55   H     H_    0.081497 0.974794 0.946835 0.141254
H56   H     H_    0.071143 0.892795 0.560186 0.174906
H57   H     H_    0.914959 0.998234 0.056419 0.140254
H58   H     H_    0.518190 0.255130 0.054428 0.105547
H59   H     H_    0.475076 0.251894 0.943264 0.110942
H60   H     H_    0.019926 0.755400 0.055737 0.105131
H61   H     H_    0.974886 0.746927 0.944389 0.100607
H62   H     H_    0.490124 0.973647 0.570829 0.116261
H63   H     H_    0.485440 0.973499 0.440237 0.118295
H64   H     H_    0.983555 0.473653 0.572759 0.122825
H65   H     H_    0.973358 0.472463 0.442427 0.132266
H66   H     H_    0.480070 0.469354 0.438328 0.132687
H67   H     H_    0.572108 0.391843 0.560110 0.170985
H68   H     H_    0.565271 0.384414 0.435219 0.135834
O1    O     O_R   0.784290 0.290360 0.830540 -0.521726
O2    O     O_R   0.456020 0.282110 0.333230 -0.520447
O3    O     O_R   0.043980 0.782110 0.666770 -0.525151
O4    O     O_R   0.956020 0.782110 0.333230 -0.519038
O5    O     O_R   0.679070 0.374030 0.674430 -0.509702
O6    O     O_R   0.320930 0.374030 0.325570 -0.507552
O7    O     O_R   0.179070 0.874030 0.674430 -0.509394
O8    O     O_R   0.820930 0.874030 0.325570 -0.507980
O9    O     O_3   0.665360 0.165350 0.749070 -0.246092
O10   O     O_3   0.334640 0.165350 0.250930 -0.250695
O11   O     O_3   0.165360 0.665350 0.749070 -0.245509
O12   O     O_R   0.215710 0.290360 0.169460 -0.527784
O13   O     O_3   0.834640 0.665350 0.250930 -0.251469
O14   O     O_R   0.762610 0.041070 0.825230 -0.495285
O15   O     O_R   0.237390 0.041070 0.174770 -0.500528
O16   O     O_R   0.262610 0.541070 0.825230 -0.501924
O17   O     O_R   0.737390 0.541070 0.174770 -0.495122
O18   O     O_R   0.667390 0.924160 0.829970 -0.527515
O19   O     O_R   0.332610 0.924160 0.170030 -0.529528
O20   O     O_R   0.167390 0.424160 0.829970 -0.526317
O21   O     O_R   0.832610 0.424160 0.170030 -0.526651
O22   O     O_R   0.553980 0.081420 0.821780 -0.498960
O23   O     O_R   0.284290 0.790360 0.830540 -0.531506
O24   O     O_R   0.446020 0.081420 0.178220 -0.500070
O25   O     O_R   0.053980 0.581420 0.821780 -0.495976
O26   O     O_R   0.946020 0.581420 0.178220 -0.496595
O27   O     O_R   0.543210 0.283170 0.826740 -0.521882
O28   O     O_R   0.456790 0.283170 0.173260 -0.516709
O29   O     O_R   0.043210 0.783170 0.826740 -0.523426
O30   O     O_R   0.956790 0.783170 0.173260 -0.524605
O31   O     O_R   0.678350 0.375000 0.822720 -0.500285
O32   O     O_R   0.321650 0.375000 0.177280 -0.494929
O33   O     O_R   0.178350 0.875000 0.822720 -0.498677
O34   O     O_R   0.715710 0.790360 0.169460 -0.522892
O35   O     O_R   0.821650 0.875000 0.177280 -0.499956
O36   O     O_R   0.785060 0.289300 0.670580 -0.523046
O37   O     O_R   0.214940 0.289300 0.329420 -0.517316
O38   O     O_R   0.285060 0.789300 0.670580 -0.516754
O39   O     O_R   0.714940 0.789300 0.329420 -0.519318
O40   O     O_R   0.763330 0.040090 0.676940 -0.508951
O41   O     O_R   0.236670 0.040090 0.323060 -0.508192
O42   O     O_R   0.263330 0.540090 0.676940 -0.503660
O43   O     O_R   0.736670 0.540090 0.323060 -0.507613
O44   O     O_R   0.668160 0.923110 0.670000 -0.520861
O45   O     O_R   0.554690 0.080440 0.673480 -0.510845
O46   O     O_R   0.331840 0.923110 0.330000 -0.522207
O47   O     O_R   0.168160 0.423110 0.670000 -0.523093
O48   O     O_R   0.831840 0.423110 0.330000 -0.516770
O49   O     O_R   0.445310 0.080440 0.326520 -0.509547
O50   O     O_R   0.054690 0.580440 0.673480 -0.510839
O51   O     O_R   0.945310 0.580440 0.326520 -0.509037
O52   O     O_R   0.543980 0.282110 0.666770 -0.525206

loop_
_geom_bond_atom_site_label_1
_geom_bond_atom_site_label_2
_ccdc_geom_bond_type
C53   O27   A    
C7    C10   D    
C56   O30   A    
C21   C26   A    
C53   O22   A    
Cr8   O9    S    
Cr10  O25   S    
C12   C22   A    
C4    C53   S    
C64   C103  S    
C68   C86   S    
C94   C111  S    
C59   H67   S    
Cr6   O11   S    
C17   C91   A    
C15   C80   A    
C65   C101  S    
C6    C55   S    
C35   C102  A    
C85   H19   S    
C56   O26   A    
C48   C61   S    
C86   H20   S    
C81   H10   S    
Cr10  O50   S    
C62   C105  S    
C59   H2    S    
C54   O24   A    
C6    H61   S    
C99   O23   A    
C7    H60   S    
C31   H53   S    
C60   H45   S    
C64   C68   A    
C98   O12   A    
C42   C109  S    
C73   C90   S    
Cr3   O33   S    
C89   H24   S    
C35   C97   S    
C95   C112  S    
C90   H25   S    
C111  O6    A    
C17   C39   A    
Cr4   O8    S    
C109  O4    A    
C65   C83   A    
C33   H55   S    
C109  O51   A    
C74   C92   S    
C65   C70   A    
C29   C33   S    
C26   H39   S    
C112  O38   A    
Cr11  O13   S    
C34   H57   S    
C2    C32   S    
C67   C72   A    
C36   O16   A    
C61   H4    S    
C97   O1    A    
C82   H11   S    
C25   O19   A    
C78   H8    S    
C51   H64   S    
C19   C37   A    
C28   H43   S    
C76   C94   A    
C104  O47   A    
C76   H6    S    
C78   C83   A    
C89   H28   S    
C49   H62   S    
C20   C24   A    
C78   C96   A    
C8    C9    S    
C106  O45   A    
C98   O32   A    
C70   C74   A    
Cr2   O10   S    
Cr6   O23   S    
C58   C102  A    
C84   H18   S    
C63   C81   A    
Cr12  O52   S    
Cr5   O12   S    
Cr2   O2    S    
C18   C35   A    
C85   H15   S    
C112  O7    A    
Cr4   O13   S    
Cr7   O39   S    
C10   H23   S    
C55   O29   A    
C12   C58   A    
C104  O42   A    
Cr12  O27   S    
C84   H14   S    
C103  O41   A    
C87   C92   S    
C99   O33   A    
C110  O5    A    
C70   C87   S    
C19   H32   S    
C105  O43   A    
C29   H40   S    
C32   H54   S    
C7    C56   S    
C12   C47   S    
C33   H51   S    
C50   H63   S    
C41   C49   A    
C37   C98   S    
C11   H34   S    
C92   H26   S    
C63   C67   A    
C16   C26   A    
C79   H9    S    
C46   C48   A    
C67   C85   S    
Cr7   O17   S    
C41   C106  S    
C30   C34   S    
Cr4   O35   S    
C27   C31   S    
C51   C52   A    
C31   C102  S    
C74   C96   A    
C62   C79   A    
C28   C32   S    
C57   C59   S    
C57   H68   S    
C55   O25   A    
C86   C90   S    
C3    O39   A    
C6    C11   D    
C62   C66   A    
C19   C23   A    
C38   C99   S    
Cr1   O36   S    
C68   C73   A    
Cr3   O7    S    
Cr12  O5    S    
C77   C95   A    
C87   H17   S    
C97   O31   A    
Cr3   O11   S    
C60   C61   S    
C90   H29   S    
C14   C23   A    
C100  O35   A    
Cr6   O16   S    
Cr9   O24   S    
C13   C33   S    
C21   H35   S    
C106  O52   A    
C20   C38   A    
C5    C54   S    
C66   C71   A    
C21   C39   A    
Cr12  O31   S    
Cr5   O41   S    
C44   C57   S    
C63   C104  S    
C43   C48   A    
C30   H48   S    
C101  O44   A    
C3    O8    A    
C1    C16   S    
C32   H50   S    
C41   C45   A    
C29   H47   S    
C108  O3    A    
C100  O34   A    
C1    O14   A    
C64   C82   A    
C13   C38   A    
C3    C96   S    
C16   C91   A    
C40   C107  S    
Cr7   O13   S    
C28   H46   S    
C15   C24   A    
Cr11  O26   S    
C36   O20   A    
Cr10  O47   S    
Cr1   O9    S    
C20   H33   S    
Cr11  O21   S    
C42   C46   A    
C111  O37   A    
C14   C69   A    
Cr10  O20   S    
Cr10  O11   S    
C75   C79   A    
C17   C34   S    
C73   C95   A    
Cr5   O10   S    
C2    C69   A    
C5    H58   S    
C83   H13   S    
C44   C45   A    
C75   C93   A    
Cr1   O40   S    
Cr11  O48   S    
Cr9   O49   S    
Cr7   O43   S    
Cr3   O3    S    
Cr6   O42   S    
C45   C59   S    
C85   C89   S    
C15   C25   S    
C87   H21   S    
C46   C60   S    
C1    O18   A    
C18   C22   A    
Cr1   O1    S    
Cr3   O29   S    
C60   H3    S    
C77   H7    S    
C84   C88   S    
C30   H41   S    
Cr2   O28   S    
C30   C91   S    
Cr5   O15   S    
C27   C58   S    
C76   C81   A    
Cr9   O10   S    
C5    C8    D    
C54   O28   A    
C71   C93   A    
C28   C69   S    
C86   H16   S    
C93   C110  S    
Cr12  O9    S    
Cr8   O45   S    
Cr1   O14   S    
Cr8   O18   S    
C47   O17   A    
C72   C94   A    
C57   H66   S    
C110  O36   A    
Cr8   O44   S    
C14   C36   S    
C72   C89   S    
C2    C37   A    
C43   C51   A    
C39   C100  S    
C29   C80   S    
C22   H36   S    
C77   C82   A    
Cr6   O38   S    
C103  O46   A    
C40   C50   A    
Cr11  O51   S    
C47   O21   A    
Cr5   O37   S    
C88   H27   S    
C105  O48   A    
C24   H38   S    
C101  O40   A    
C52   H65   S    
Cr9   O19   S    
C4    H59   S    
Cr4   O30   S    
C43   C108  S    
C13   C80   A    
C34   H52   S    
C10   C11   S    
C27   H42   S    
C66   C84   S    
C71   C88   S    
Cr4   O4    S    
C9    H12   S    
C75   H5    S    
C8    H1    S    
C40   C44   A    
Cr7   O34   S    
C61   H56   S    
C31   H49   S    
C49   C50   A    
Cr2   O6    S    
C108  O50   A    
C88   H22   S    
C107  O49   A    
C92   H30   S    
Cr2   O32   S    
C4    C9    D    
C25   O15   A    
Cr8   O22   S    
C107  O2    A    
C18   H31   S    
Cr9   O46   S    
C27   H44   S    
C42   C52   A    
C23   H37   S    
