data_mof_unit_10192.cif
_audit_creation_date              2012-12-10T17:20:55-0500
_audit_creation_method            fapswitch 2.2
_symmetry_space_group_name_H-M    P1
_symmetry_Int_Tables_number       1
_space_group_crystal_system       triclinic
_cell_length_a                    14.318616
_cell_length_b                    10.808866
_cell_length_c                    9.618842
_cell_angle_alpha                 89.247796
_cell_angle_beta                  89.55079
_cell_angle_gamma                 89.011063
_cell_volume                      1488.29578033

loop_
_atom_site_label
_atom_site_type_symbol
_atom_type_description
_atom_site_fract_x
_atom_site_fract_y
_atom_site_fract_z
_atom_type_partial_charge
C1    C     C_R   0.509306 0.262835 0.501452 0.861446
C2    C     C_1   0.771047 0.503622 0.498816 -0.159052
C3    C     C_R   0.676870 0.104721 0.608496 0.342511
C4    C     C_R   0.755339 0.028515 0.631146 -0.132527
C5    C     C_R   0.753200 0.903513 0.603130 -0.210721
C6    C     C_R   0.671318 0.851999 0.557490 -0.165687
C7    C     C_R   0.590201 0.925681 0.534709 0.008631
C8    C     C_R   0.593504 0.056095 0.550619 0.020484
C9    C     C_R   0.513855 0.128084 0.505819 -0.151538
C10   C     C_R   0.434052 0.070229 0.457301 -0.226992
C11   C     C_R   0.428830 0.942731 0.455003 0.364689
C12   C     C_R   0.331252 0.500278 0.500455 0.837455
C13   C     C_R   0.506042 0.870529 0.495376 -0.154605
C14   C     C_R   0.673051 0.489475 0.117058 0.189226
C15   C     C_R   0.746878 0.555984 0.056662 -0.176908
C16   C     C_R   0.731547 0.625451 0.935428 -0.221535
C17   C     C_R   0.646895 0.614351 0.865866 -0.112666
C18   C     C_R   0.575021 0.543866 0.925760 0.213973
C19   C     C_R   0.581522 0.515191 0.069181 0.162773
C20   C     C_R   0.421628 0.475226 0.075168 -0.038905
C21   C     C_R   0.423420 0.467560 0.927392 -0.049682
C22   C     C_R   0.498336 0.737175 0.498787 0.852282
C23   C     C_R   0.668695 0.502023 0.499434 0.823434
C24   C     C_1   0.228861 0.501179 0.501160 -0.158652
C25   C     C_1   0.143363 0.502065 0.500994 0.014776
C26   C     C_1   0.042649 0.503060 0.500342 0.018779
C27   C     C_1   0.957162 0.503703 0.499683 0.009369
C28   C     C_1   0.856490 0.504020 0.499026 -0.004403
Cu1   Cu    Cu3+1 0.499990 0.499990 0.640660 0.988865
Cu2   Cu    Cu3+1 0.500010 0.500010 0.359340 0.962100
H1    H     H_    0.374018 0.125180 0.423788 0.172528
H2    H     H_    0.787781 0.677387 0.888338 0.161771
H3    H     H_    0.638057 0.663472 0.768940 0.175273
H4    H     H_    0.361419 0.438710 0.874213 0.143817
H5    H     H_    0.818451 0.066116 0.673929 0.174489
H6    H     H_    0.814486 0.845491 0.620702 0.156296
H7    H     H_    0.672597 0.753819 0.538652 0.111262
H8    H     H_    0.357694 0.454043 0.130165 0.149283
H9    H     H_    0.817404 0.544300 0.095175 0.153936
N1    N     N_R   0.500820 0.501210 0.147910 -0.197801
N2    N     N_R   0.500850 0.501290 0.852040 -0.181034
O1    O     O_R   0.499990 0.319640 0.618810 -0.517706
O2    O     O_R   0.500000 0.319660 0.381240 -0.600578
O3    O     O_R   0.376050 0.499990 0.618810 -0.571064
O4    O     O_R   0.376060 0.500010 0.381240 -0.556591
O5    O     O_R   0.500000 0.680340 0.618760 -0.593358
O6    O     O_R   0.500010 0.680360 0.381190 -0.541226
O7    O     O_R   0.623940 0.499990 0.618760 -0.527084
O8    O     O_R   0.623950 0.500010 0.381190 -0.597302
Cl1   Cl    Cl    0.688165 0.252516 0.675878 -0.678181
Cl2   Cl    Cl    0.323685 0.875906 0.401715 -0.618426
C29   C     C_3   0.697221 0.361850 0.175260 -0.409066
C30   C     C_3   0.724832 0.272603 0.059534 -0.775436
H10   H     H_    0.666026 0.263190 0.986015 0.288694
H11   H     H_    0.787294 0.305895 0.002005 0.272143
H12   H     H_    0.741569 0.180052 0.105225 0.242396
H13   H     H_    0.755956 0.367407 0.249513 0.206076
H14   H     H_    0.636752 0.321248 0.230115 0.249972

loop_
_geom_bond_atom_site_label_1
_geom_bond_atom_site_label_2
_ccdc_geom_bond_type
C29   H14   S    
C24   C25   T    
Cu1   Cu2   S    
C12   O4    A    
Cu1   O1    S    
C16   H2    S    
C20   H8    S    
C9    C10   A    
C12   C24   S    
Cu2   O4    S    
Cu1   O5    S    
C22   O6    A    
C23   O7    A    
C6    H7    S    
Cu2   N1    S    
C7    C8    A    
C12   O3    A    
C30   H10   S    
C20   C21   A    
C11   C13   A    
C15   H9    S    
C26   C27   T    
C6    C7    A    
C17   H3    S    
C21   N2    A    
C4    C5    A    
C10   H1    S    
Cu2   O6    S    
C22   O5    A    
C3    Cl1   S    
C13   C22   S    
C17   C18   A    
C19   N1    A    
C30   H11   S    
Cu1   O3    S    
C5    C6    A    
C20   N1    A    
Cu2   O2    S    
C23   O8    A    
C11   Cl2   S    
C10   C11   A    
C18   N2    A    
Cu1   O7    S    
Cu2   O8    S    
C15   C16   A    
C5    H6    S    
C1    O1    A    
C7    C13   A    
C1    C9    S    
C29   C30   S    
C3    C8    A    
C18   C19   A    
C29   H13   S    
C30   H12   S    
C2    C23   S    
C4    H5    S    
C14   C15   A    
C16   C17   A    
C2    C28   T    
C21   H4    S    
Cu1   N2    S    
C25   C26   S    
C14   C19   A    
C1    O2    A    
C14   C29   S    
C3    C4    A    
C8    C9    A    
C27   C28   S    
