data_mof_unit_36626.cif
_audit_creation_date              2012-12-11T16:26:31-0500
_audit_creation_method            fapswitch 2.2
_symmetry_space_group_name_H-M    P1
_symmetry_Int_Tables_number       1
_space_group_crystal_system       triclinic
_cell_length_a                    14.030257
_cell_length_b                    14.030244
_cell_length_c                    31.91176
_cell_angle_alpha                 89.999876
_cell_angle_beta                  90.000147
_cell_angle_gamma                 120.000106
_cell_volume                      5440.16128092

loop_
_atom_site_label
_atom_site_type_symbol
_atom_type_description
_atom_site_fract_x
_atom_site_fract_y
_atom_site_fract_z
_atom_type_partial_charge
C1    C     C_R   0.568070 0.443805 0.810618 0.541079
C2    C     C_R   0.443805 0.568070 0.189382 0.541081
C3    C     C_R   0.431930 0.875734 0.310618 0.541079
C4    C     C_R   0.124265 0.556195 0.189382 0.541078
C5    C     C_1   0.004087 0.523375 0.018728 -0.029784
C6    C     C_1   0.519284 0.995910 0.481272 -0.029783
C7    C     C_1   0.476618 0.480700 0.018729 -0.029781
C8    C     C_1   0.004085 0.523379 0.481272 -0.029784
C9    C     C_1   0.519296 0.995906 0.018727 -0.029783
C10   C     C_1   0.476615 0.480701 0.481272 -0.029783
C11   C     C_1   0.523370 0.004081 0.518729 -0.029784
C12   C     C_R   0.875735 0.431930 0.689382 0.541078
C13   C     C_1   0.995917 0.519290 0.981271 -0.029784
C14   C     C_1   0.480700 0.476616 0.518729 -0.029783
C15   C     C_1   0.523383 0.004077 0.981271 -0.029783
C16   C     C_1   0.995914 0.519293 0.518728 -0.029783
C17   C     C_1   0.480703 0.476616 0.981272 -0.029782
C18   C     C_R   0.929172 0.469375 0.851789 0.019991
C19   C     C_R   0.540204 0.070828 0.648211 0.019990
C20   C     C_R   0.530625 0.459797 0.851789 0.019992
C21   C     C_R   0.929171 0.469375 0.648211 0.019992
C22   C     C_R   0.540205 0.070826 0.851789 0.019991
C23   C     C_R   0.556195 0.124265 0.810618 0.541079
C24   C     C_R   0.530623 0.459797 0.648211 0.019992
C25   C     C_R   0.469374 0.929170 0.351789 0.019992
C26   C     C_R   0.070829 0.540205 0.148210 0.019991
C27   C     C_R   0.459797 0.530624 0.351789 0.019992
C28   C     C_R   0.469372 0.929171 0.148210 0.019993
C29   C     C_R   0.070829 0.540204 0.351789 0.019990
C30   C     C_R   0.459796 0.530623 0.148211 0.019992
C31   C     C_R   0.927804 0.557568 0.872266 -0.127986
C32   C     C_R   0.629770 0.072212 0.627732 -0.127985
C33   C     C_R   0.442421 0.370238 0.872264 -0.127984
C34   C     C_R   0.568070 0.443805 0.689382 0.541079
C35   C     C_R   0.927807 0.557572 0.627735 -0.127986
C36   C     C_R   0.629769 0.072198 0.872266 -0.127983
C37   C     C_R   0.442421 0.370238 0.627736 -0.127983
C38   C     C_R   0.557563 0.927796 0.372267 -0.127986
C39   C     C_R   0.072210 0.629771 0.127732 -0.127986
C40   C     C_R   0.370238 0.442420 0.372264 -0.127984
C41   C     C_R   0.557589 0.927839 0.127739 -0.127985
C42   C     C_R   0.072196 0.629764 0.372266 -0.127984
C43   C     C_R   0.370235 0.442424 0.127735 -0.127982
C44   C     C_R   0.954738 0.577390 0.914647 -0.114688
C45   C     C_R   0.875735 0.431930 0.810618 0.541078
C46   C     C_R   0.622656 0.045277 0.585351 -0.114688
C47   C     C_R   0.422596 0.377347 0.914645 -0.114686
C48   C     C_R   0.954741 0.577394 0.585353 -0.114687
C49   C     C_R   0.622660 0.045262 0.914647 -0.114687
C50   C     C_R   0.422595 0.377347 0.585355 -0.114686
C51   C     C_R   0.577383 0.954728 0.414649 -0.114687
C52   C     C_R   0.045278 0.622659 0.085351 -0.114689
C53   C     C_R   0.377347 0.422595 0.414645 -0.114686
C54   C     C_R   0.577414 0.954771 0.085357 -0.114685
C55   C     C_R   0.045262 0.622654 0.414647 -0.114687
C56   C     C_R   0.556195 0.124265 0.689382 0.541079
C57   C     C_R   0.377345 0.422598 0.085354 -0.114685
C58   C     C_R   0.984068 0.509973 0.936752 0.040787
C59   C     C_R   0.525905 0.015931 0.563248 0.040785
C60   C     C_R   0.490023 0.474087 0.936752 0.040789
C61   C     C_R   0.984065 0.509974 0.563248 0.040788
C62   C     C_R   0.525914 0.015928 0.936751 0.040787
C63   C     C_R   0.490019 0.474088 0.563248 0.040788
C64   C     C_R   0.509969 0.984062 0.436753 0.040787
C65   C     C_R   0.015936 0.525909 0.063247 0.040787
C66   C     C_R   0.474087 0.490021 0.436752 0.040789
C67   C     C_R   0.443805 0.568070 0.310618 0.541079
C68   C     C_R   0.509973 0.984059 0.063247 0.040789
C69   C     C_R   0.015935 0.525910 0.436752 0.040786
C70   C     C_R   0.474088 0.490019 0.063248 0.040789
C71   C     C_R   0.993013 0.427021 0.916039 -0.113322
C72   C     C_R   0.434004 0.006971 0.583963 -0.113320
C73   C     C_R   0.572987 0.565983 0.916042 -0.113320
C74   C     C_R   0.993005 0.427018 0.583959 -0.113322
C75   C     C_R   0.434014 0.006979 0.916039 -0.113319
C76   C     C_R   0.572982 0.565984 0.583959 -0.113320
C77   C     C_R   0.427021 0.993013 0.416039 -0.113321
C78   C     C_R   0.431929 0.875735 0.189382 0.541079
C79   C     C_R   0.006979 0.434009 0.083962 -0.113320
C80   C     C_R   0.565983 0.572985 0.416042 -0.113321
C81   C     C_R   0.426993 0.992967 0.083954 -0.113323
C82   C     C_R   0.006992 0.434014 0.416040 -0.113320
C83   C     C_R   0.565986 0.572979 0.083960 -0.113318
C84   C     C_R   0.965947 0.406843 0.873699 -0.127422
C85   C     C_R   0.440893 0.034037 0.626304 -0.127423
C86   C     C_R   0.593166 0.559099 0.873701 -0.127420
C87   C     C_R   0.965941 0.406840 0.626300 -0.127423
C88   C     C_R   0.440899 0.034047 0.873699 -0.127422
C89   C     C_R   0.124265 0.556195 0.310618 0.541079
C90   C     C_R   0.593162 0.559100 0.626299 -0.127420
C91   C     C_R   0.406845 0.965949 0.373699 -0.127421
C92   C     C_R   0.034043 0.440896 0.126303 -0.127423
C93   C     C_R   0.559099 0.593165 0.373701 -0.127421
C94   C     C_R   0.406814 0.965906 0.126295 -0.127419
C95   C     C_R   0.034056 0.440900 0.373699 -0.127421
C96   C     C_R   0.559101 0.593159 0.126300 -0.127416
Cr1   Cr    Cr6+3 0.504240 0.249200 0.750000 1.008093
Cr2   Cr    Cr6+3 0.744960 0.495760 0.750000 1.008091
Cr3   Cr    Cr6+3 0.750800 0.255040 0.750000 1.008092
Cr4   Cr    Cr6+3 0.249200 0.504240 0.250000 1.008093
Cr5   Cr    Cr6+3 0.495760 0.744960 0.250000 1.008092
Cr6   Cr    Cr6+3 0.255040 0.750800 0.250000 1.008091
H1    H     H_    0.899640 0.607092 0.856304 0.127705
H2    H     H_    0.607135 0.899708 0.143706 0.127696
H3    H     H_    0.100358 0.707450 0.356304 0.127709
H4    H     H_    0.292549 0.392895 0.143698 0.127706
H5    H     H_    0.983980 0.358693 0.066950 0.106789
H6    H     H_    0.374700 0.016006 0.433052 0.106788
H7    H     H_    0.641296 0.625306 0.066945 0.106787
H8    H     H_    0.984004 0.358703 0.433054 0.106789
H9    H     H_    0.374651 0.015923 0.066936 0.106784
H10   H     H_    0.641291 0.625315 0.433057 0.106786
H11   H     H_    0.358687 0.983969 0.566951 0.106791
H12   H     H_    0.707461 0.100388 0.643692 0.127713
H13   H     H_    0.016002 0.374697 0.933053 0.106787
H14   H     H_    0.625311 0.641293 0.566944 0.106786
H15   H     H_    0.358701 0.983986 0.933052 0.106788
H16   H     H_    0.015990 0.374692 0.566945 0.106786
H17   H     H_    0.625318 0.641291 0.933057 0.106787
H18   H     H_    0.052171 0.694069 0.069433 0.105667
H19   H     H_    0.641903 0.947840 0.430566 0.105668
H20   H     H_    0.305938 0.358069 0.069439 0.105668
H21   H     H_    0.052144 0.694060 0.430563 0.105670
H22   H     H_    0.641960 0.947917 0.069445 0.105666
H23   H     H_    0.392888 0.292554 0.856300 0.127703
H24   H     H_    0.305941 0.358063 0.430560 0.105666
H25   H     H_    0.694066 0.052173 0.569433 0.105670
H26   H     H_    0.947855 0.641913 0.930563 0.105668
H27   H     H_    0.358064 0.305941 0.569440 0.105668
H28   H     H_    0.694069 0.052149 0.930563 0.105668
H29   H     H_    0.947861 0.641921 0.569438 0.105667
H30   H     H_    0.358063 0.305942 0.930560 0.105667
H31   H     H_    0.032074 0.370548 0.141172 0.125916
H32   H     H_    0.338461 0.967912 0.358830 0.125917
H33   H     H_    0.629446 0.661551 0.141166 0.125919
H34   H     H_    0.899648 0.607099 0.643698 0.127704
H35   H     H_    0.032099 0.370556 0.358832 0.125919
H36   H     H_    0.338407 0.967834 0.141157 0.125919
H37   H     H_    0.629442 0.661560 0.358836 0.125916
H38   H     H_    0.370545 0.032066 0.641173 0.125917
H39   H     H_    0.967905 0.338456 0.858832 0.125917
H40   H     H_    0.661556 0.629443 0.641165 0.125917
H41   H     H_    0.370552 0.032085 0.858831 0.125916
H42   H     H_    0.967895 0.338450 0.641166 0.125916
H43   H     H_    0.661562 0.629441 0.858836 0.125917
H44   H     H_    0.707458 0.100366 0.856304 0.127710
H45   H     H_    0.392890 0.292553 0.643699 0.127705
H46   H     H_    0.607085 0.899629 0.356306 0.127707
H47   H     H_    0.100383 0.707461 0.143692 0.127707
H48   H     H_    0.292554 0.392888 0.356300 0.127702
O1    O     O_R   0.480350 0.140770 0.796330 -0.519779
O2    O     O_R   0.140770 0.480350 0.203670 -0.519779
O3    O     O_R   0.519650 0.660420 0.296330 -0.519782
O4    O     O_R   0.339580 0.859230 0.203670 -0.519785
O5    O     O_R   0.514930 0.348530 0.793250 -0.500948
O6    O     O_R   0.833600 0.485070 0.706750 -0.500949
O7    O     O_R   0.651470 0.166400 0.793250 -0.500950
O8    O     O_R   0.514930 0.348530 0.706750 -0.500948
O9    O     O_R   0.833600 0.485070 0.793250 -0.500950
O10   O     O_R   0.651470 0.166400 0.706750 -0.500951
O11   O     O_R   0.348530 0.514930 0.293250 -0.500948
O12   O     O_R   0.660420 0.519650 0.703670 -0.519780
O13   O     O_R   0.485070 0.833600 0.206750 -0.500946
O14   O     O_R   0.166400 0.651470 0.293250 -0.500949
O15   O     O_R   0.348530 0.514930 0.206750 -0.500949
O16   O     O_R   0.485070 0.833600 0.293250 -0.500951
O17   O     O_R   0.166400 0.651470 0.206750 -0.500951
O18   O     O_3   0.666667 0.333333 0.750000 -0.228338
O19   O     O_3   0.333333 0.666667 0.250000 -0.228338
O20   O     O_R   0.859230 0.339580 0.796330 -0.519780
O21   O     O_R   0.480350 0.140770 0.703670 -0.519779
O22   O     O_R   0.660420 0.519650 0.796330 -0.519782
O23   O     O_R   0.859230 0.339580 0.703670 -0.519782
O24   O     O_R   0.140770 0.480350 0.296330 -0.519780
O25   O     O_R   0.519650 0.660420 0.203670 -0.519777
O26   O     O_R   0.339580 0.859230 0.296330 -0.519779

loop_
_geom_bond_atom_site_label_1
_geom_bond_atom_site_label_2
_ccdc_geom_bond_type
C19   C56   S    
C21   C87   A    
Cr6   O17   S    
C65   C79   A    
C29   C42   A    
C64   C77   A    
C60   C73   A    
C92   H31   S    
C75   H15   S    
C45   O20   A    
C7    C70   S    
C29   C89   S    
C72   C85   A    
Cr3   O20   S    
Cr4   O2    S    
C41   C54   A    
C8    C69   S    
C73   H17   S    
C68   C81   A    
C82   H8    S    
C71   C84   A    
C38   C51   A    
C2    O25   A    
C58   C71   A    
C54   C68   A    
C63   C76   A    
C19   C32   A    
C26   C92   A    
C28   C41   A    
C28   C94   A    
C6    C64   S    
C1    O5    A    
C23   O1    A    
C69   C82   A    
C76   H14   S    
C47   C60   A    
C44   H26   S    
C81   H9    S    
C44   C58   A    
C7    C17   T    
C20   C86   A    
C18   C84   A    
C83   H7    S    
C48   H29   S    
Cr5   O19   S    
Cr4   O11   S    
C82   C95   A    
C22   C88   A    
C57   C70   A    
C28   C78   S    
Cr6   O4    S    
C89   O14   A    
C5    C13   T    
C59   C72   A    
Cr2   O22   S    
Cr6   O19   S    
C39   C52   A    
C57   H20   S    
C78   O13   A    
C8    C16   T    
Cr3   O10   S    
C50   C63   A    
C89   O24   A    
C12   O6    A    
C11   C59   S    
C35   C48   A    
Cr2   O12   S    
C96   H33   S    
C55   H21   S    
C10   C66   S    
C74   H16   S    
Cr2   O6    S    
C25   C91   A    
C95   H35   S    
C31   C44   A    
C79   H5    S    
C46   H25   S    
Cr5   O13   S    
C5    C65   S    
C10   C14   T    
C6    C11   T    
C29   C95   A    
C78   O4    A    
C13   C58   S    
C34   O12   A    
C72   H11   S    
C24   C34   S    
Cr4   O15   S    
C43   H4    S    
C31   H1    S    
C74   C87   A    
C85   H38   S    
C36   C49   A    
C70   C83   A    
C50   H27   S    
C25   C38   A    
C67   O11   A    
Cr3   O23   S    
C27   C93   A    
Cr5   O3    S    
C27   C40   A    
C71   H13   S    
C80   H10   S    
C33   H23   S    
C24   C37   A    
Cr1   O1    S    
C40   H48   S    
C55   C69   A    
C37   H45   S    
C4    O2    A    
C53   C66   A    
C2    O15   A    
C38   H46   S    
C79   C92   A    
C90   H40   S    
C20   C33   A    
C52   H18   S    
C36   H44   S    
Cr3   O7    S    
C56   O21   A    
Cr4   O24   S    
C94   H36   S    
C30   C43   A    
Cr5   O25   S    
C16   C61   S    
C62   C75   A    
C18   C45   S    
C34   O8    A    
C66   C80   A    
C93   H37   S    
Cr3   O18   S    
C54   H22   S    
C77   C91   A    
C1    C20   S    
C49   C62   A    
C88   H41   S    
Cr4   O19   S    
C32   C46   A    
C77   H6    S    
C51   C64   A    
C19   C85   A    
C24   C90   A    
C35   H34   S    
C4    C26   S    
C4    O17   A    
C21   C35   A    
C61   C74   A    
Cr1   O18   S    
C22   C36   A    
C49   H28   S    
C39   H47   S    
C1    O22   A    
Cr1   O21   S    
C41   H2    S    
C67   O3    A    
C47   H30   S    
C2    C30   S    
Cr1   O8    S    
C9    C15   T    
C9    C68   S    
C3    O26   A    
C56   O10   A    
C81   C94   A    
C48   C61   A    
C91   H32   S    
C84   H39   S    
C42   C55   A    
C51   H19   S    
C83   C96   A    
C23   O7    A    
C37   C50   A    
C33   C47   A    
C15   C62   S    
C14   C63   S    
Cr1   O5    S    
C45   O9    A    
Cr5   O16   S    
C26   C39   A    
C42   H3    S    
C73   C86   A    
C27   C67   S    
C53   H24   S    
C43   C57   A    
C17   C60   S    
C30   C96   A    
C12   C21   S    
C75   C88   A    
C3    C25   S    
C87   H42   S    
Cr2   O9    S    
C46   C59   A    
Cr6   O14   S    
C40   C53   A    
C86   H43   S    
C22   C23   S    
C18   C31   A    
C32   H12   S    
C80   C93   A    
Cr6   O26   S    
Cr2   O18   S    
C52   C65   A    
C3    O16   A    
C76   C90   A    
C12   O23   A    
