data_mof_unit_57139.cif
_audit_creation_date              2012-12-10T17:13:13-0500
_audit_creation_method            fapswitch 2.2
_symmetry_space_group_name_H-M    P1
_symmetry_Int_Tables_number       1
_space_group_crystal_system       triclinic
_cell_length_a                    11.732567
_cell_length_b                    12.987083
_cell_length_c                    13.922138
_cell_angle_alpha                 88.826199
_cell_angle_beta                  90.178726
_cell_angle_gamma                 99.949433
_cell_volume                      2088.9992255

loop_
_atom_site_label
_atom_site_type_symbol
_atom_type_description
_atom_site_fract_x
_atom_site_fract_y
_atom_site_fract_z
_atom_type_partial_charge
C1    C     C_R   0.478477 0.299284 0.498859 0.855082
C2    C     C_R   0.521523 0.700715 0.501142 0.855089
C3    C     C_R   0.552501 0.030798 0.515123 -0.086575
C4    C     C_R   0.447501 0.969202 0.484879 -0.086654
C5    C     C_R   0.032547 0.418325 0.603729 0.276957
C6    C     C_R   0.967451 0.581668 0.396268 0.276924
C7    C     C_R   0.153033 0.420244 0.589822 0.425398
C8    C     C_R   0.846967 0.579755 0.410178 0.425416
C9    C     C_R   0.152888 0.535842 0.455548 0.741617
C10   C     C_R   0.847111 0.464155 0.544449 0.741625
C11   C     C_R   0.030488 0.529895 0.462576 -0.336890
C12   C     C_R   0.969511 0.470100 0.537421 -0.336901
C13   C     C_R   0.517778 0.501306 0.681659 0.831294
C14   C     C_R   0.482222 0.498694 0.318341 0.831294
C15   C     C_1   0.472686 0.495045 0.216419 -0.132703
C16   C     C_1   0.527313 0.504952 0.783581 -0.132701
C17   C     C_2   0.452210 0.485218 0.026966 0.376175
C18   C     C_2   0.547790 0.514773 0.973034 0.376175
C19   C     C_1   0.536120 0.509155 0.869366 -0.071333
C20   C     C_1   0.463880 0.490839 0.130634 -0.071333
C21   C     C_R   0.534043 0.814011 0.505315 -0.253098
C22   C     C_R   0.465958 0.185989 0.494687 -0.253173
C23   C     C_R   0.351691 0.016569 0.460939 0.395627
C24   C     C_R   0.648309 0.983431 0.539067 0.395626
C25   C     C_R   0.362694 0.125195 0.462739 0.489903
C26   C     C_R   0.637302 0.874803 0.537273 0.489799
C27   C     C_R   0.559948 0.138638 0.520854 -0.270649
C28   C     C_R   0.440057 0.861362 0.479141 -0.270727
Cu1   Cu    Cu3+1 0.615220 0.507680 0.492970 1.048521
Cu2   Cu    Cu3+1 0.384780 0.492320 0.507030 1.048519
H1    H     H_    0.360725 0.813666 0.454487 0.249514
H2    H     H_    0.639284 0.186336 0.545499 0.249543
N1    N     N_R   0.788370 0.519230 0.482390 -0.282127
N2    N     N_R   0.211630 0.480770 0.517610 -0.282117
O1    O     O_R   0.581500 0.354430 0.495010 -0.566218
O2    O     O_R   0.418500 0.645570 0.504990 -0.566225
O3    O     O_R   0.386890 0.341450 0.506880 -0.529355
O4    O     O_R   0.613110 0.658550 0.493120 -0.529359
O5    O     O_R   0.611060 0.507430 0.631070 -0.536518
O6    O     O_R   0.388940 0.492570 0.368930 -0.536517
O7    O     O_R   0.416450 0.494450 0.642940 -0.535787
O8    O     O_R   0.583550 0.505550 0.357060 -0.535791
O9    O     O_3   0.654567 0.544033 0.018801 -0.592544
C29   C     C_3   0.741252 0.595637 0.955866 0.078928
H3    H     H_    0.715368 0.667572 0.924125 0.157285
H4    H     H_    0.758943 0.542939 0.897757 0.155888
C30   C     C_3   0.852634 0.627000 0.011835 -0.794926
H5    H     H_    0.881441 0.555792 0.041434 0.241291
H6    H     H_    0.921126 0.669208 0.963609 0.201817
H7    H     H_    0.838605 0.678634 0.071728 0.261794
O10   O     O_3   0.345434 0.455957 0.981199 -0.592545
C31   C     C_3   0.258750 0.404350 0.044134 0.078925
H8    H     H_    0.241054 0.457049 0.102240 0.155890
H9    H     H_    0.284637 0.332419 0.075878 0.157284
C32   C     C_3   0.147370 0.372979 0.988165 -0.794930
H10   H     H_    0.161402 0.321338 0.928278 0.261784
H11   H     H_    0.078877 0.330775 0.036391 0.201819
H12   H     H_    0.118561 0.444182 0.958557 0.241297
F1    F     F_    0.726329 0.829303 0.569780 -0.677096
F2    F     F_    0.273657 0.170692 0.430248 -0.677072
O11   O     O_3   0.248905 0.957381 0.430772 -0.540316
C33   C     C_3   0.173136 0.938832 0.510260 0.089357
H13   H     H_    0.152057 0.013494 0.537161 0.156372
H14   H     H_    0.211607 0.897399 0.569782 0.126733
C34   C     C_3   0.061222 0.870300 0.479543 -0.763498
H15   H     H_    0.079103 0.793520 0.456016 0.273943
H16   H     H_    0.999455 0.857448 0.540653 0.220518
H17   H     H_    0.021685 0.908871 0.419204 0.242593
O12   O     O_3   0.751093 0.042627 0.569231 -0.540326
C35   C     C_3   0.826922 0.061047 0.489774 0.089406
H18   H     H_    0.788505 0.102404 0.430169 0.126673
H19   H     H_    0.847998 0.986336 0.462989 0.156459
C36   C     C_3   0.938831 0.129599 0.520473 -0.763428
H20   H     H_    0.978258 0.091152 0.580954 0.242690
H21   H     H_    0.000686 0.142251 0.459414 0.220595
H22   H     H_    0.920974 0.206470 0.543786 0.273781
F3    F     F_    0.785748 0.401216 0.611921 -0.625235
F4    F     F_    0.214250 0.598780 0.388076 -0.625255
O13   O     O_3   0.784846 0.628511 0.343783 -0.537562
C37   C     C_3   0.815304 0.738314 0.349867 0.082394
H23   H     H_    0.901875 0.766774 0.318147 0.183128
H24   H     H_    0.815007 0.764226 0.425464 0.193261
C38   C     C_3   0.728648 0.789427 0.292642 -0.765409
H25   H     H_    0.639440 0.760814 0.318967 0.249601
H26   H     H_    0.748792 0.875623 0.300273 0.182419
H27   H     H_    0.733178 0.770455 0.215466 0.250488
O14   O     O_3   0.215157 0.371497 0.656222 -0.537575
C39   C     C_3   0.184704 0.261693 0.650151 0.082423
H28   H     H_    0.184988 0.235771 0.574556 0.193288
H29   H     H_    0.098139 0.233235 0.681883 0.183124
C40   C     C_3   0.271371 0.210591 0.707372 -0.765409
H30   H     H_    0.266843 0.229566 0.784548 0.250478
H31   H     H_    0.251234 0.124394 0.699745 0.182424
H32   H     H_    0.360575 0.239209 0.681042 0.249605
O15   O     O_3   0.976675 0.364059 0.681420 -0.536252
C41   C     C_3   0.983674 0.431609 0.760117 0.140651
H33   H     H_    0.952729 0.505904 0.740871 0.139666
H34   H     H_    0.074373 0.450091 0.786507 0.154062
C42   C     C_3   0.907194 0.377521 0.840699 -0.748791
H35   H     H_    0.935118 0.302759 0.861709 0.248908
H36   H     H_    0.913555 0.428580 0.904106 0.181212
H37   H     H_    0.815619 0.361047 0.816617 0.280570
O16   O     O_3   0.023320 0.635929 0.318572 -0.536299
C43   C     C_3   0.016319 0.568374 0.239879 0.140674
H38   H     H_    0.925620 0.549895 0.213489 0.154067
H39   H     H_    0.047260 0.494078 0.259130 0.139666
C44   C     C_3   0.092803 0.622454 0.159296 -0.748809
H40   H     H_    0.184378 0.638924 0.183379 0.280568
H41   H     H_    0.086439 0.571392 0.095891 0.181215
H42   H     H_    0.064884 0.697218 0.138283 0.248914

loop_
_geom_bond_atom_site_label_1
_geom_bond_atom_site_label_2
_ccdc_geom_bond_type
C21   C26   A    
Cu1   O8    S    
C36   H21   S    
C36   H20   S    
O15   C41   S    
C32   H10   S    
C17   O10   S    
C13   O7    A    
C30   H6    S    
C29   H3    S    
Cu1   Cu2   S    
C38   H25   S    
C44   H42   S    
C24   C26   A    
C41   C42   S    
Cu1   N1    S    
C17   C20   S    
C18   C19   S    
C33   H14   S    
C4    C28   A    
C7    O14   S    
C42   H35   S    
C31   H9    S    
C34   H16   S    
C22   C25   A    
C41   H34   S    
Cu1   O4    S    
C8    O13   S    
C44   H40   S    
Cu2   O7    S    
C35   H18   S    
C25   F2    S    
C26   F1    S    
C31   C32   S    
C1    O3    A    
C14   O8    A    
C1    C22   S    
C44   H41   S    
C3    C24   A    
O12   C35   S    
C2    C21   S    
C37   C38   S    
C43   H39   S    
C43   H38   S    
C5    O15   S    
C10   F3    S    
C29   H4    S    
C24   O12   S    
C30   H7    S    
C15   C20   T    
Cu2   N2    S    
O10   C31   S    
C5    C12   A    
C37   H24   S    
C6    C11   A    
C5    C7    A    
C4    C23   A    
C6    C8    A    
Cu2   O3    S    
C8    N1    A    
O9    C29   S    
C33   H13   S    
C40   H31   S    
C2    O4    A    
C30   H5    S    
C39   C40   S    
C34   H17   S    
C41   H33   S    
Cu1   O5    S    
C35   C36   S    
C17   C18   D    
Cu2   O6    S    
C6    O16   S    
C9    C11   A    
C10   C12   A    
C42   H36   S    
C21   C28   A    
C39   H29   S    
C22   C27   A    
C32   H11   S    
C9    N2    A    
C36   H22   S    
C13   C16   S    
C3    C4    A    
C40   H30   S    
C31   H8    S    
C1    O1    A    
C2    O2    A    
C33   C34   S    
C38   H26   S    
C27   H2    S    
C28   H1    S    
C37   H23   S    
C11   C12   A    
C29   C30   S    
Cu1   O1    S    
Cu2   O2    S    
C38   H27   S    
C3    C27   A    
C18   O9    S    
C40   H32   S    
C16   C19   T    
C7    N2    A    
C10   N1    A    
C9    F4    S    
C23   C25   A    
O11   C33   S    
C13   O5    A    
C14   O6    A    
O13   C37   S    
C23   O11   S    
C42   H37   S    
C39   H28   S    
O14   C39   S    
C34   H15   S    
C32   H12   S    
O16   C43   S    
C14   C15   S    
C35   H19   S    
C43   C44   S    
