data_mof_unit_63810.cif
_audit_creation_date              2013-03-05T15:58:51-0500
_audit_creation_method            fapswitch 2.2
_symmetry_space_group_name_H-M    P1
_symmetry_Int_Tables_number       1
_space_group_crystal_system       triclinic
_cell_length_a                    18.341595
_cell_length_b                    18.341771
_cell_length_c                    26.028975
_cell_angle_alpha                 90.004864
_cell_angle_beta                  90.119316
_cell_angle_gamma                 89.980126
_cell_volume                      8756.57886433

loop_
_atom_site_label
_atom_site_type_symbol
_atom_site_description
_atom_site_fract_x
_atom_site_fract_y
_atom_site_fract_z
_atom_type_partial_charge
Zn1   Zn    Zn3+2 0.000000 0.086760 0.292960 1.087120
Zn2   Zn    Zn3+2 0.000000 0.086760 0.707040 1.092802
Zn3   Zn    Zn3+2 0.500000 0.586760 0.792960 1.087124
Zn4   Zn    Zn3+2 0.500000 0.586760 0.207040 1.092874
Zn5   Zn    Zn3+2 0.086770 0.999990 0.207110 1.041353
Zn6   Zn    Zn3+2 0.086770 0.999990 0.792890 1.051510
Zn7   Zn    Zn3+2 0.913230 0.999990 0.207110 1.059069
Zn8   Zn    Zn3+2 0.913230 0.999990 0.792890 1.046260
Zn9   Zn    Zn3+2 0.586770 0.499990 0.707110 1.041297
Zn10  Zn    Zn3+2 0.586770 0.499990 0.292890 1.051552
Zn11  Zn    Zn3+2 0.413230 0.499990 0.707110 1.059104
Zn12  Zn    Zn3+2 0.413230 0.499990 0.292890 1.046198
Zn13  Zn    Zn3+2 1.000000 0.913240 0.292940 0.995573
Zn14  Zn    Zn3+2 1.000000 0.913240 0.707060 0.995314
Zn15  Zn    Zn3+2 0.500000 0.413240 0.792940 0.995641
Zn16  Zn    Zn3+2 0.500000 0.413240 0.207060 0.995332
O1    O     O_3   1.000000 1.000000 0.250030 -0.526501
O2    O     O_3   1.000000 1.000000 0.749970 -0.526894
O3    O     O_3   0.500000 0.500000 0.750030 -0.526488
O4    O     O_3   0.500000 0.500000 0.249970 -0.526883
O5    O     O_R   0.085480 0.853820 0.280050 -0.643145
O6    O     O_R   0.085480 0.853820 0.719950 -0.648708
O7    O     O_R   0.914520 0.853820 0.280050 -0.641066
O8    O     O_R   0.914520 0.853820 0.719950 -0.643959
O9    O     O_R   0.585480 0.353820 0.780050 -0.643111
O10   O     O_R   0.585480 0.353820 0.219950 -0.648696
O11   O     O_R   0.414520 0.353820 0.780050 -0.641040
O12   O     O_R   0.414520 0.353820 0.219950 -0.643949
O13   O     O_R   0.914530 0.146170 0.280090 -0.574725
O14   O     O_R   0.914530 0.146170 0.719910 -0.599655
O15   O     O_R   0.085470 0.146170 0.280090 -0.597575
O16   O     O_R   0.085470 0.146170 0.719910 -0.596460
O17   O     O_R   0.414530 0.646170 0.780090 -0.574717
O18   O     O_R   0.414530 0.646170 0.219910 -0.599618
O19   O     O_R   0.585470 0.646170 0.780090 -0.597579
O20   O     O_R   0.585470 0.646170 0.219910 -0.596431
O21   O     O_R   0.146180 0.085440 0.219990 -0.649123
O22   O     O_R   0.146180 0.085440 0.780010 -0.642437
O23   O     O_R   0.853820 0.085440 0.219990 -0.636994
O24   O     O_R   0.853820 0.085440 0.780010 -0.630975
O25   O     O_R   0.646180 0.585440 0.719990 -0.649156
O26   O     O_R   0.646180 0.585440 0.280010 -0.642473
O27   O     O_R   0.353820 0.585440 0.719990 -0.637010
O28   O     O_R   0.353820 0.585440 0.280010 -0.631052
O29   O     O_R   0.853820 0.914550 0.219980 -0.634974
O30   O     O_R   0.853820 0.914550 0.780020 -0.637786
O31   O     O_R   0.146180 0.914550 0.219980 -0.626989
O32   O     O_R   0.146180 0.914550 0.780020 -0.621437
O33   O     O_R   0.353820 0.414550 0.719980 -0.635014
O34   O     O_R   0.353820 0.414550 0.280020 -0.637822
O35   O     O_R   0.646180 0.414550 0.719980 -0.627062
O36   O     O_R   0.646180 0.414550 0.280020 -0.621455
O37   O     O_R   0.060720 0.999990 0.135450 -0.607204
O38   O     O_R   0.060720 0.999990 0.864550 -0.603492
O39   O     O_R   0.939280 0.999990 0.135450 -0.598776
O40   O     O_R   0.939280 0.999990 0.864550 -0.606138
O41   O     O_R   0.560720 0.499990 0.635450 -0.607333
O42   O     O_R   0.560720 0.499990 0.364550 -0.603414
O43   O     O_R   0.439280 0.499990 0.635450 -0.598707
O44   O     O_R   0.439280 0.499990 0.364550 -0.606279
O45   O     O_R   1.000000 0.939270 0.364600 -0.649058
O46   O     O_R   1.000000 0.939270 0.635400 -0.647756
O47   O     O_R   0.500000 0.439270 0.864600 -0.649069
O48   O     O_R   0.500000 0.439270 0.135400 -0.647761
O49   O     O_R   0.000000 0.060730 0.364620 -0.614787
O50   O     O_R   1.000000 0.060730 0.635380 -0.594383
O51   O     O_R   0.500000 0.560730 0.864620 -0.614791
O52   O     O_R   0.500000 0.560730 0.135380 -0.594391
C1    C     C_R   0.140138 0.859882 0.250037 0.835884
C2    C     C_R   0.140210 0.859916 0.749960 0.831127
C3    C     C_R   0.859783 0.859915 0.250042 0.827080
C4    C     C_R   0.859901 0.859833 0.750006 0.821227
C5    C     C_R   0.640138 0.359882 0.750037 0.835949
C6    C     C_R   0.640210 0.359916 0.249960 0.831146
C7    C     C_R   0.359783 0.359914 0.750042 0.827140
C8    C     C_R   0.359901 0.359833 0.250006 0.821256
C9    C     C_R   0.858952 0.139329 0.250980 0.863653
C10   C     C_R   0.858992 0.139335 0.749004 0.855678
C11   C     C_R   0.139212 0.141137 0.249201 0.833238
C12   C     C_R   0.141078 0.139306 0.748997 0.840674
C13   C     C_R   0.358952 0.639330 0.750980 0.863681
C14   C     C_R   0.358992 0.639335 0.249004 0.855752
C15   C     C_R   0.639212 0.641138 0.749201 0.833250
C16   C     C_R   0.641078 0.639306 0.248997 0.840743
C17   C     C_R   0.999785 0.999906 0.110913 0.934903
C18   C     C_R   0.000220 0.000038 0.889087 0.929081
C19   C     C_R   0.499785 0.499913 0.610914 0.935245
C20   C     C_R   0.500221 0.500030 0.389087 0.929415
C21   C     C_R   0.999462 0.999955 0.388584 0.864254
C22   C     C_R   0.000448 0.999956 0.611418 0.887045
C23   C     C_R   0.499462 0.499955 0.888584 0.864225
C24   C     C_R   0.500448 0.499956 0.111418 0.887016
C25   C     C_2   0.997680 0.059863 0.528144 -0.082066
C26   C     C_2   0.001018 0.059906 0.471881 -0.106024
C27   C     C_2   0.497680 0.559863 0.028144 -0.082076
C28   C     C_2   0.501019 0.559906 0.971881 -0.106035
C29   C     C_2   0.004013 0.998764 0.556012 -0.293454
C30   C     C_2   0.995694 0.998734 0.443989 -0.286819
C31   C     C_2   0.504013 0.498764 0.056012 -0.293469
C32   C     C_2   0.495694 0.498734 0.943989 -0.286835
H1    H     H_    0.990910 0.112304 0.546961 0.220055
H2    H     H_    0.007002 0.112449 0.453090 0.210226
H3    H     H_    0.490910 0.612304 0.046961 0.220064
H4    H     H_    0.507003 0.612449 0.953090 0.210235
H5    H     H_    0.013589 0.945931 0.538858 0.154230
H6    H     H_    0.986768 0.945785 0.461125 0.156517
H7    H     H_    0.513589 0.445931 0.038858 0.154234
H8    H     H_    0.486768 0.445784 0.961125 0.156522
C33   C     C_R   0.757626 0.203876 0.209022 -0.171885
C34   C     C_R   0.758224 0.204216 0.791095 -0.169673
C35   C     C_R   0.264125 0.181971 0.230834 -0.202186
C36   C     C_R   0.242788 0.203498 0.790797 -0.193162
C37   C     C_R   0.257626 0.703877 0.709022 -0.171891
C38   C     C_R   0.258223 0.704215 0.291095 -0.169687
C39   C     C_R   0.764125 0.681971 0.730835 -0.202227
C40   C     C_R   0.742788 0.703498 0.290797 -0.193153
H9    H     H_    0.765233 0.170603 0.175051 0.211182
H10   H     H_    0.766366 0.171260 0.825178 0.210064
H11   H     H_    0.277704 0.127418 0.218061 0.187617
H12   H     H_    0.235493 0.169960 0.824662 0.191928
H13   H     H_    0.265233 0.670603 0.675051 0.211192
H14   H     H_    0.266365 0.671259 0.325177 0.209990
H15   H     H_    0.777704 0.627418 0.718062 0.187582
H16   H     H_    0.735493 0.669960 0.324661 0.191903
C41   C     C_R   0.204746 0.757838 0.708131 -0.156603
C42   C     C_R   0.205262 0.758102 0.291981 -0.158964
C43   C     C_R   0.818427 0.734489 0.731303 -0.157322
C44   C     C_R   0.795627 0.757472 0.291706 -0.155684
C45   C     C_R   0.704746 0.257837 0.208131 -0.156597
C46   C     C_R   0.705263 0.258103 0.791981 -0.158980
C47   C     C_R   0.318427 0.234489 0.231303 -0.157282
C48   C     C_R   0.295627 0.257472 0.791706 -0.155686
H17   H     H_    0.171912 0.764841 0.673836 0.180909
H18   H     H_    0.172918 0.765386 0.326382 0.180518
H19   H     H_    0.872647 0.719937 0.718429 0.176322
H20   H     H_    0.828715 0.764207 0.325904 0.176599
H21   H     H_    0.671912 0.264841 0.173836 0.180916
H22   H     H_    0.672919 0.265387 0.826383 0.180526
H23   H     H_    0.372647 0.219937 0.218428 0.176345
H24   H     H_    0.328715 0.264207 0.825904 0.176607
C49   C     C_R   0.195607 0.803336 0.750717 -0.069596
C50   C     C_R   0.195468 0.803222 0.249254 -0.070746
C51   C     C_R   0.803146 0.804594 0.749369 -0.055367
C52   C     C_R   0.804406 0.803315 0.249273 -0.060060
C53   C     C_R   0.695607 0.303336 0.250717 -0.069603
C54   C     C_R   0.695468 0.303222 0.749254 -0.070744
C55   C     C_R   0.303146 0.304594 0.249369 -0.055368
C56   C     C_R   0.304406 0.303315 0.749273 -0.060070
C57   C     C_R   0.238415 0.793611 0.794702 -0.191378
C58   C     C_R   0.237651 0.793131 0.205121 -0.192696
C59   C     C_R   0.732849 0.822502 0.765846 -0.217903
C60   C     C_R   0.761280 0.793879 0.205409 -0.215494
C61   C     C_R   0.738415 0.293611 0.294702 -0.191374
C62   C     C_R   0.737650 0.293130 0.705120 -0.192704
C63   C     C_R   0.232849 0.322502 0.265847 -0.217954
C64   C     C_R   0.261280 0.293879 0.705409 -0.215480
H25   H     H_    0.229535 0.827385 0.828288 0.221664
H26   H     H_    0.228224 0.826593 0.171431 0.221496
H27   H     H_    0.720532 0.877556 0.778228 0.200092
H28   H     H_    0.769856 0.827906 0.171924 0.204031
H29   H     H_    0.729534 0.327384 0.328288 0.221682
H30   H     H_    0.728223 0.326592 0.671430 0.221427
H31   H     H_    0.220532 0.377556 0.278228 0.200067
H32   H     H_    0.269857 0.327905 0.671923 0.204012
C65   C     C_R   0.790060 0.237972 0.296835 0.313008
C66   C     C_R   0.789357 0.237534 0.703001 0.302692
C67   C     C_R   0.177074 0.271014 0.263910 0.310607
C68   C     C_R   0.209692 0.238217 0.703242 0.312797
C69   C     C_R   0.290060 0.737973 0.796835 0.312998
C70   C     C_R   0.289358 0.737536 0.203001 0.302661
C71   C     C_R   0.677074 0.771014 0.763910 0.310592
C72   C     C_R   0.709691 0.738217 0.203242 0.312782
C73   C     C_R   0.801162 0.193926 0.252825 -0.132617
C74   C     C_R   0.801173 0.193933 0.747157 -0.136834
C75   C     C_R   0.193548 0.199210 0.247593 -0.119417
C76   C     C_R   0.198903 0.193869 0.747130 -0.124537
C77   C     C_R   0.301163 0.693926 0.752825 -0.132614
C78   C     C_R   0.301173 0.693933 0.247157 -0.136818
C79   C     C_R   0.693547 0.699210 0.747593 -0.119392
C80   C     C_R   0.698903 0.693869 0.247130 -0.124537
C81   C     C_R   0.950741 0.044633 0.026937 0.203941
C82   C     C_R   0.952053 0.046483 0.972909 0.216259
C83   C     C_R   0.047984 0.953423 0.027097 0.208665
C84   C     C_R   0.049294 0.955269 0.973064 0.196609
C85   C     C_R   0.450926 0.544837 0.526939 0.203872
C86   C     C_R   0.452238 0.546674 0.472907 0.216271
C87   C     C_R   0.547800 0.453228 0.527099 0.208706
C88   C     C_R   0.549110 0.455064 0.473062 0.196589
C89   C     C_R   0.001038 0.001258 0.945813 -0.336326
C90   C     C_R   0.998988 0.998649 0.054190 -0.336950
C91   C     C_R   0.501041 0.501251 0.445812 -0.336254
C92   C     C_R   0.498985 0.498655 0.554191 -0.336879
N1    N     N_R   0.827576 0.224881 0.344476 0.232521
O53   O     O_R   0.829138 0.159511 0.363899 -0.367248
O54   O     O_R   0.848283 0.279551 0.372831 -0.295322
N2    N     N_R   0.826177 0.224007 0.655253 0.229763
O55   O     O_R   0.827954 0.158360 0.636307 -0.363513
O56   O     O_R   0.845978 0.278398 0.626379 -0.312146
N3    N     N_R   0.104076 0.293608 0.276020 0.224856
O57   O     O_R   0.051087 0.279835 0.244133 -0.358732
O58   O     O_R   0.092745 0.338961 0.313617 -0.329804
N4    N     N_R   0.171913 0.225412 0.655668 0.224162
O59   O     O_R   0.170444 0.160192 0.635986 -0.373018
O60   O     O_R   0.150849 0.280253 0.627602 -0.334073
N5    N     N_R   0.327577 0.724881 0.844476 0.232511
O61   O     O_R   0.329139 0.659512 0.863899 -0.367301
O62   O     O_R   0.348283 0.779552 0.872831 -0.295243
N6    N     N_R   0.326179 0.724009 0.155253 0.229751
O63   O     O_R   0.327956 0.658362 0.136307 -0.363572
O64   O     O_R   0.345981 0.778401 0.126381 -0.312038
N7    N     N_R   0.604076 0.793608 0.776019 0.224860
O65   O     O_R   0.551087 0.779835 0.744132 -0.358648
O66   O     O_R   0.592744 0.838962 0.813615 -0.329731
N8    N     N_R   0.671912 0.725412 0.155668 0.224154
O67   O     O_R   0.670443 0.660193 0.135986 -0.373074
O68   O     O_R   0.650848 0.780253 0.127602 -0.333983
N9    N     N_R   0.903963 0.093839 0.054121 0.239648
O69   O     O_R   0.919767 0.162916 0.055885 -0.343510
O70   O     O_R   0.840918 0.071535 0.070663 -0.313184
N10   N     N_R   0.905233 0.096395 0.945847 0.250072
O71   O     O_R   0.932278 0.141244 0.912162 -0.390495
O72   O     O_R   0.835967 0.099376 0.956326 -0.299789
N11   N     N_R   0.094827 0.903532 0.054167 0.252034
O73   O     O_R   0.164085 0.900527 0.043658 -0.271517
O74   O     O_R   0.067812 0.858730 0.087896 -0.375976
N12   N     N_R   0.096086 0.906074 0.945877 0.241347
O75   O     O_R   0.159083 0.928423 0.929273 -0.298477
O76   O     O_R   0.080404 0.836964 0.944229 -0.333711
N13   N     N_R   0.404368 0.594245 0.554129 0.239489
O77   O     O_R   0.420376 0.663279 0.555787 -0.343204
O78   O     O_R   0.341301 0.572172 0.570781 -0.313508
N14   N     N_R   0.405603 0.596758 0.445839 0.250018
O79   O     O_R   0.432791 0.641398 0.412075 -0.390601
O80   O     O_R   0.336376 0.600103 0.456386 -0.299857
N15   N     N_R   0.594456 0.403165 0.554176 0.251951
O81   O     O_R   0.663672 0.399785 0.543594 -0.271414
O82   O     O_R   0.567299 0.358579 0.587988 -0.376158
N16   N     N_R   0.595682 0.405666 0.445868 0.241135
O83   O     O_R   0.658695 0.427789 0.429148 -0.298717
O84   O     O_R   0.579806 0.336595 0.444340 -0.333521

loop_
_geom_bond_atom_site_label_1
_geom_bond_atom_site_label_2
_geom_bond_distance
_ccdc_geom_bond_type
Zn16  O12   1.939575 S    
C20   C91   1.476704 S    
C37   C77   1.402500 A    
C60   H28   1.083824 S    
C82   N10   1.438337 S    
C25   C26   1.465888 S    
Zn5   O21   1.937987 S    
Zn2   O2    1.944549 S    
Zn14  O2    1.944096 S    
C6    C53   1.452210 S    
N11   O73   1.301114 A    
Zn9   O35   1.937232 S    
C33   C73   1.402500 A    
Zn7   O39   1.926425 S    
Zn10  O36   1.937971 S    
C34   H10   1.083590 S    
N10   O72   1.301088 A    
O44   C20   1.286201 A    
C33   H9    1.083585 S    
O50   C22   1.277311 A    
Zn3   O17   1.937492 S    
N5    O61   1.301540 A    
O49   C21   1.277456 A    
O21   C11   1.279948 A    
Zn11  O3    1.942557 S    
Zn6   O32   1.937971 S    
C70   C78   1.416521 A    
C88   C91   1.412456 A    
C35   C75   1.402871 A    
Zn7   O29   1.938628 S    
Zn2   O16   1.938070 S    
Zn10  O42   1.926425 S    
O45   C21   1.276186 A    
C88   N16   1.433004 S    
O36   C6    1.275901 A    
C44   H20   1.083384 S    
C69   N5    1.437107 S    
C60   C72   1.393290 A    
C27   C31   1.339865 D    
C46   C54   1.397568 A    
Zn15  O9    1.938930 S    
C2    C49   1.452209 S    
C86   N14   1.438395 S    
C26   C30   1.339831 D    
C41   H17   1.083392 S    
Zn14  O46   1.925410 S    
C28   C32   1.339831 D    
Zn1   O15   1.939230 S    
C59   C71   1.393334 A    
Zn13  O7    1.938413 S    
C35   H11   1.083457 S    
Zn14  O8    1.939575 S    
C86   C91   1.412375 A    
C16   C80   1.459374 S    
O31   C1    1.276838 A    
O52   C24   1.277311 A    
O40   C18   1.286199 A    
Zn9   O3    1.946364 S    
C58   H26   1.083951 S    
C85   C86   1.407047 A    
C27   C28   1.465888 S    
C8    C55   1.452962 S    
C41   C49   1.397772 A    
N6    O63   1.301541 A    
C38   C78   1.402749 A    
Zn1   O49   1.925410 S    
N15   O81   1.301079 A    
Zn6   O22   1.938818 S    
O32   C2    1.275899 A    
Zn11  O27   1.938161 S    
C82   C89   1.412362 A    
C84   N12   1.432978 S    
C23   C32   1.444107 S    
O22   C12   1.279165 A    
C55   C63   1.398673 A    
C22   C29   1.443945 S    
O30   C4    1.276773 A    
C53   C61   1.398311 A    
C72   C80   1.416686 A    
C34   C74   1.402748 A    
C39   C43   1.385880 A    
N3    O57   1.301548 A    
C37   C41   1.385669 A    
N15   O82   1.301411 A    
Zn8   O40   1.924497 S    
C31   H7    1.081398 S    
Zn6   O38   1.926425 S    
O11   C7    1.275618 A    
C69   C77   1.416724 A    
N10   O71   1.301431 A    
C45   H21   1.083392 S    
C27   H3    1.086538 S    
Zn4   O18   1.938588 S    
O23   C9    1.279120 A    
N5    O62   1.301330 A    
Zn16  O10   1.937832 S    
Zn16  O48   1.925410 S    
Zn6   O2    1.942556 S    
N16   O84   1.300608 A    
C32   H8    1.081416 S    
C39   H15   1.083457 S    
N4    O59   1.301549 A    
C49   C57   1.398310 A    
C39   C79   1.402870 A    
C48   C56   1.397791 A    
O7    C3    1.275618 A    
O26   C16   1.279165 A    
Zn4   O20   1.938070 S    
C12   C76   1.459374 S    
Zn9   O41   1.924497 S    
N2    O56   1.301340 A    
C62   C66   1.393506 A    
Zn10  O4    1.942556 S    
Zn12  O44   1.924497 S    
C36   H12   1.083466 S    
O19   C15   1.276647 A    
N8    O67   1.301549 A    
Zn7   O1    1.942557 S    
C1    C50   1.452492 S    
C81   C82   1.406954 A    
Zn4   O52   1.925331 S    
C42   C50   1.397570 A    
Zn8   O2    1.946365 S    
C38   H14   1.083587 S    
O41   C19   1.286091 A    
O5    C1    1.277125 A    
N1    O54   1.301330 A    
C3    C52   1.452730 S    
O39   C17   1.281569 A    
Zn15  O3    1.944251 S    
C83   C84   1.407103 A    
C70   N6    1.437225 S    
N13   O77   1.300604 A    
Zn11  O33   1.938628 S    
O34   C8    1.276775 A    
O16   C12   1.275180 A    
C71   N7    1.437050 S    
C81   C90   1.412309 A    
Zn15  O11   1.938413 S    
N7    O65   1.301549 A    
C54   C62   1.398599 A    
Zn3   O19   1.939230 S    
Zn16  O4    1.944096 S    
Zn12  O4    1.946365 S    
O51   C23   1.277456 A    
Zn13  O45   1.925331 S    
C43   C51   1.397594 A    
C36   C48   1.385800 A    
Zn5   O1    1.946364 S    
Zn3   O3    1.944394 S    
Zn10  O26   1.938818 S    
C44   C52   1.397793 A    
C64   H32   1.083825 S    
C87   C92   1.412486 A    
N4    O60   1.301317 A    
O24   C10   1.279866 A    
C35   C47   1.385880 A    
N7    O66   1.301317 A    
O17   C13   1.275084 A    
N1    O53   1.301541 A    
N12   O76   1.300607 A    
Zn5   O31   1.937232 S    
C46   H22   1.083395 S    
C81   N9    1.432895 S    
Zn14  O6    1.937832 S    
O27   C13   1.279121 A    
C57   C69   1.393178 A    
N9    O70   1.300902 A    
O48   C24   1.276253 A    
C25   H1    1.086538 S    
C36   C76   1.402578 A    
O12   C8    1.277087 A    
C83   C90   1.412465 A    
C25   C29   1.339865 D    
N3    O58   1.301317 A    
Zn8   O24   1.937422 S    
O29   C3    1.275989 A    
O8    C4    1.277089 A    
C85   C92   1.412313 A    
O38   C18   1.281487 A    
Zn5   O37   1.924497 S    
C68   C76   1.416683 A    
C40   C80   1.402577 A    
N16   O83   1.300878 A    
C18   C89   1.476709 S    
C9    C73   1.458795 S    
C40   H16   1.083465 S    
C61   C65   1.393177 A    
N14   O80   1.301061 A    
C24   C31   1.443945 S    
Zn9   O25   1.937987 S    
C85   N13   1.432922 S    
C62   H30   1.083953 S    
C67   N3    1.437051 S    
O35   C5    1.276838 A    
C66   N2    1.437223 S    
N2    O55   1.301542 A    
Zn2   O50   1.925331 S    
C65   N1    1.437105 S    
Zn12  O34   1.937797 S    
N11   O74   1.301440 A    
O15   C11   1.276648 A    
Zn4   O4    1.944549 S    
C15   C79   1.459593 S    
C7    C56   1.452728 S    
C48   H24   1.083384 S    
C37   H13   1.083583 S    
C56   C64   1.398379 A    
C21   C30   1.444107 S    
C66   C74   1.416523 A    
O28   C14   1.279866 A    
C72   N8    1.437072 S    
C30   H6    1.081416 S    
Zn15  O47   1.925331 S    
C5    C54   1.452494 S    
Zn2   O14   1.938588 S    
C63   H31   1.083817 S    
C71   C79   1.416462 A    
C28   H4    1.086479 S    
C17   C90   1.476674 S    
N8    O68   1.301317 A    
C29   H5    1.081398 S    
C87   C88   1.407202 A    
N13   O78   1.300869 A    
N6    O64   1.301340 A    
Zn13  O5    1.938930 S    
C33   C45   1.385669 A    
C11   C75   1.459591 S    
C50   C58   1.398599 A    
Zn1   O13   1.937492 S    
C58   C70   1.393506 A    
C4    C51   1.452961 S    
C63   C67   1.393333 A    
O20   C16   1.275180 A    
C38   C42   1.385804 A    
O46   C22   1.276253 A    
N9    O69   1.300608 A    
C51   C59   1.398674 A    
N14   O79   1.301406 A    
O10   C6    1.275610 A    
C68   N4    1.437073 S    
C34   C46   1.385803 A    
C67   C75   1.416462 A    
O9    C5    1.277124 A    
C45   C53   1.397771 A    
C43   H19   1.083390 S    
Zn8   O30   1.937797 S    
C47   H23   1.083391 S    
C13   C77   1.458795 S    
Zn13  O1    1.944251 S    
O14   C10   1.276785 A    
C64   C68   1.393289 A    
O13   C9    1.275086 A    
Zn1   O1    1.944394 S    
C42   H18   1.083391 S    
C83   N11   1.438430 S    
N12   O75   1.300907 A    
C40   C44   1.385800 A    
O43   C19   1.281560 A    
O47   C23   1.276186 A    
C10   C74   1.459063 S    
Zn7   O23   1.938161 S    
C84   C89   1.412450 A    
Zn12  O28   1.937422 S    
O37   C17   1.286093 A    
C47   C55   1.397593 A    
O18   C14   1.276785 A    
C57   H25   1.083952 S    
Zn3   O51   1.925410 S    
C65   C73   1.416724 A    
O42   C20   1.281477 A    
C14   C78   1.459064 S    
O6    C2    1.275611 A    
C61   H29   1.083953 S    
C87   N15   1.438493 S    
C52   C60   1.398375 A    
C26   H2    1.086479 S    
C59   H27   1.083818 S    
C19   C92   1.476670 S    
O33   C7    1.275989 A    
Zn11  O43   1.926425 S    
O25   C15   1.279948 A    
