data_mof_unit_40076.cif
_audit_creation_date              2012-12-10T17:18:37-0500
_audit_creation_method            fapswitch 2.2
_symmetry_space_group_name_H-M    P1
_symmetry_Int_Tables_number       1
_space_group_crystal_system       triclinic
_cell_length_a                    21.705435
_cell_length_b                    21.752468
_cell_length_c                    30.166363
_cell_angle_alpha                 89.716215
_cell_angle_beta                  90.468533
_cell_angle_gamma                 89.357535
_cell_volume                      14241.3983242

loop_
_atom_site_label
_atom_site_type_symbol
_atom_type_description
_atom_site_fract_x
_atom_site_fract_y
_atom_site_fract_z
_atom_type_partial_charge
C1    C     C_R   0.499725 0.120067 0.500132 1.064075
C2    C     C_R   0.120096 0.499756 0.499769 1.069486
C3    C     C_R   0.500401 0.879931 0.499677 1.061014
C4    C     C_R   0.880151 0.500816 0.493933 1.004560
C5    C     C_R   0.999623 0.620053 0.999773 1.059626
C6    C     C_R   0.619991 0.999833 0.999443 1.065889
C7    C     C_R   0.000395 0.380014 0.999646 1.062578
C8    C     C_R   0.380064 0.000323 0.999637 1.054120
C9    C     C_R   0.608590 0.287591 0.593565 -0.264026
C10   C     C_R   0.293471 0.382504 0.586549 -0.260867
C11   C     C_R   0.398555 0.711653 0.595925 -0.310817
C12   C     C_R   0.725598 0.639153 0.562703 -0.244453
C13   C     C_R   0.613959 0.708307 0.411520 -0.282847
C14   C     C_R   0.288731 0.617066 0.412657 -0.262591
C15   C     C_R   0.388595 0.292312 0.409046 -0.257531
C16   C     C_R   0.706363 0.368819 0.420014 -0.252449
C17   C     C_R   0.104116 0.787060 0.095730 -0.263403
C18   C     C_R   0.791416 0.895200 0.094848 -0.317431
C19   C     C_R   0.904288 0.211868 0.098546 -0.307336
C20   C     C_R   0.213093 0.097298 0.099757 -0.339960
C21   C     C_R   0.107423 0.209496 0.906957 -0.265650
C22   C     C_R   0.788477 0.112618 0.909634 -0.264008
C23   C     C_R   0.886853 0.792432 0.909529 -0.262313
C24   C     C_R   0.208984 0.889765 0.910194 -0.259703
C25   C     C_R   0.583018 0.314208 0.556088 -0.256702
C26   C     C_R   0.318167 0.411498 0.550301 -0.255043
C27   C     C_R   0.419795 0.685717 0.557244 -0.240649
C28   C     C_R   0.692149 0.589140 0.547482 -0.280081
C29   C     C_R   0.586059 0.682813 0.447944 -0.249322
C30   C     C_R   0.315066 0.587357 0.448515 -0.257982
C31   C     C_R   0.414679 0.317312 0.446497 -0.255142
C32   C     C_R   0.682102 0.403317 0.454157 -0.254052
C33   C     C_R   0.081088 0.813622 0.057372 -0.257723
C34   C     C_R   0.816793 0.917828 0.056411 -0.238928
C35   C     C_R   0.922426 0.186180 0.058948 -0.240656
C36   C     C_R   0.185276 0.076343 0.061489 -0.231392
C37   C     C_R   0.082211 0.183561 0.944280 -0.256073
C38   C     C_R   0.814895 0.084634 0.946198 -0.256046
C39   C     C_R   0.914596 0.817629 0.946261 -0.254735
C40   C     C_R   0.184110 0.915894 0.947504 -0.253703
C41   C     C_R   0.539580 0.282148 0.529798 0.016724
C42   C     C_R   0.284048 0.456934 0.526510 0.015187
C43   C     C_R   0.461764 0.717732 0.529917 0.014380
C44   C     C_R   0.719180 0.545687 0.518241 0.006760
C45   C     C_R   0.541530 0.716413 0.472311 0.023047
C46   C     C_R   0.282491 0.541835 0.472221 0.014728
C47   C     C_R   0.458761 0.283665 0.471993 0.017051
C48   C     C_R   0.716144 0.451591 0.473322 0.009970
C49   C     C_R   0.038443 0.781885 0.030196 0.017851
C50   C     C_R   0.783399 0.960096 0.029152 0.014944
C51   C     C_R   0.963208 0.217972 0.030561 0.016549
C52   C     C_R   0.217715 0.037409 0.031800 0.022928
C53   C     C_R   0.039528 0.216834 0.970511 0.019878
C54   C     C_R   0.782398 0.040261 0.971097 0.018480
C55   C     C_R   0.958643 0.783764 0.971618 0.018082
C56   C     C_R   0.217079 0.960214 0.972189 0.018471
C57   C     C_R   0.536070 0.217735 0.533419 -0.082384
C58   C     C_R   0.219635 0.460275 0.530808 -0.079325
C59   C     C_R   0.465945 0.782026 0.533457 -0.099150
C60   C     C_R   0.779767 0.554646 0.504400 -0.067090
C61   C     C_R   0.538586 0.780877 0.468275 -0.079337
C62   C     C_R   0.218001 0.538670 0.468067 -0.075610
C63   C     C_R   0.462198 0.219299 0.468006 -0.081496
C64   C     C_R   0.780199 0.455329 0.465083 -0.059986
C65   C     C_R   0.034550 0.717536 0.033685 -0.083195
C66   C     C_R   0.718910 0.963786 0.032578 -0.101369
C67   C     C_R   0.967724 0.282223 0.034062 -0.101153
C68   C     C_R   0.282559 0.035844 0.033395 -0.111810
C69   C     C_R   0.036587 0.281371 0.966926 -0.082277
C70   C     C_R   0.717882 0.037214 0.967096 -0.078394
C71   C     C_R   0.961609 0.719331 0.967704 -0.080791
C72   C     C_R   0.281305 0.964063 0.967525 -0.076132
C73   C     C_R   0.499592 0.314038 0.500617 -0.096674
C74   C     C_R   0.314240 0.499451 0.499427 -0.090756
C75   C     C_R   0.500298 0.685956 0.500329 -0.097439
C76   C     C_R   0.686645 0.495998 0.500304 -0.095017
C77   C     C_R   0.999406 0.813974 0.000480 -0.098516
C78   C     C_R   0.814032 0.999452 0.999745 -0.095809
C79   C     C_R   0.000255 0.186153 0.999995 -0.099978
C80   C     C_R   0.186160 0.999926 0.001350 -0.099712
C81   C     C_R   0.499226 0.186283 0.500554 -0.130439
C82   C     C_R   0.186449 0.499387 0.499443 -0.129640
C83   C     C_R   0.501453 0.813701 0.500268 -0.132605
C84   C     C_R   0.813070 0.504227 0.485711 -0.078920
C85   C     C_R   0.998700 0.686236 0.000255 -0.132874
C86   C     C_R   0.686193 0.999786 0.999382 -0.128957
C87   C     C_R   0.001417 0.313925 0.000044 -0.131860
C88   C     C_R   0.313989 0.000962 0.999616 -0.126807
C89   C     C_R   0.380339 0.499878 0.499832 0.844660
C90   C     C_R   0.499382 0.619775 0.500000 0.850185
C91   C     C_R   0.620040 0.498862 0.500298 0.851890
C92   C     C_R   0.500194 0.380232 0.500151 0.838336
C93   C     C_R   0.880253 0.999351 0.999890 0.846194
C94   C     C_R   0.999596 0.119852 0.999946 0.845972
C95   C     C_R   0.119819 0.001088 0.000333 0.845839
C96   C     C_R   0.000280 0.880205 0.000128 0.845676
C97   C     C_R   0.500208 0.000128 0.586666 1.112346
C98   C     C_R   0.000027 0.499890 0.586603 1.064895
C99   C     C_R   0.499780 0.000086 0.413316 1.105755
C100  C     C_R   0.000285 0.500002 0.413498 1.106085
C101  C     C_R   0.000181 0.500058 0.086782 1.106363
C102  C     C_R   0.499934 0.999886 0.086588 1.113758
C103  C     C_R   0.999772 0.500105 0.913336 1.105274
C104  C     C_R   0.499989 0.000138 0.913400 1.109544
C105  C     C_R   0.456933 0.037062 0.842555 0.245156
C106  C     C_R   0.961075 0.459432 0.842703 0.244240
C107  C     C_R   0.543967 0.964216 0.843379 0.238283
C108  C     C_R   0.036906 0.542162 0.842874 0.245201
C109  C     C_R   0.455749 0.965101 0.156829 0.255897
C110  C     C_R   0.042962 0.462085 0.157971 0.260292
C111  C     C_R   0.544023 0.034461 0.157149 0.260100
C112  C     C_R   0.956773 0.536013 0.157422 0.240802
C113  C     C_R   0.047753 0.468774 0.343751 0.234875
C114  C     C_R   0.460971 0.959408 0.342646 0.241668
C115  C     C_R   0.951008 0.527844 0.342987 0.245963
C116  C     C_R   0.537671 0.041331 0.342770 0.241416
C117  C     C_R   0.956279 0.464415 0.656887 0.251895
C118  C     C_R   0.462623 0.042732 0.656807 0.240955
C119  C     C_R   0.042759 0.536036 0.657211 0.253064
C120  C     C_R   0.538731 0.958548 0.657616 0.258940
C121  C     C_R   0.500271 0.000457 0.865638 -0.240485
C122  C     C_R   0.999269 0.500524 0.865516 -0.240553
C123  C     C_R   0.499969 0.999701 0.134333 -0.222701
C124  C     C_R   0.000290 0.499654 0.134806 -0.235705
C125  C     C_R   0.000053 0.499520 0.365898 -0.229249
C126  C     C_R   0.499342 0.000364 0.365461 -0.246380
C127  C     C_R   0.999895 0.499820 0.634379 -0.247292
C128  C     C_R   0.500609 0.000525 0.634491 -0.231611
C129  C     C_R   0.542733 0.962508 0.797069 0.040510
C130  C     C_R   0.038759 0.540607 0.796589 0.034422
C131  C     C_R   0.458583 0.039120 0.796262 0.037255
C132  C     C_R   0.958718 0.461562 0.796403 0.043574
C133  C     C_R   0.542514 0.036479 0.203431 0.039057
C134  C     C_R   0.953792 0.532270 0.203622 0.043557
C135  C     C_R   0.456937 0.963376 0.203162 0.044191
C136  C     C_R   0.044467 0.463669 0.204311 0.044491
C137  C     C_R   0.951382 0.528936 0.296687 0.036006
C138  C     C_R   0.539871 0.039316 0.296511 0.039371
C139  C     C_R   0.046272 0.466072 0.297467 0.041544
C140  C     C_R   0.458893 0.961258 0.296326 0.042616
C141  C     C_R   0.040845 0.538421 0.703467 0.029419
C142  C     C_R   0.540701 0.960305 0.703924 0.044770
C143  C     C_R   0.956723 0.463623 0.703240 0.052832
C144  C     C_R   0.460853 0.041341 0.703118 0.043524
C145  C     C_R   0.500602 0.000734 0.773421 -0.032161
C146  C     C_R   0.998833 0.500969 0.773254 -0.033077
C147  C     C_R   0.499588 0.000077 0.226537 -0.033171
C148  C     C_R   0.998938 0.497682 0.227190 -0.033839
C149  C     C_R   0.998791 0.497454 0.273826 -0.027401
C150  C     C_R   0.499369 0.000306 0.273181 -0.022340
C151  C     C_R   0.998756 0.501039 0.726593 -0.032721
C152  C     C_R   0.500687 0.000771 0.726762 -0.034403
C153  C     C_R   0.583108 0.923886 0.773811 -0.181005
C154  C     C_R   0.079101 0.578368 0.773040 -0.172244
C155  C     C_R   0.418826 0.078346 0.772227 -0.184346
C156  C     C_R   0.917260 0.425008 0.772684 -0.182204
C157  C     C_R   0.583178 0.073844 0.227182 -0.177392
C158  C     C_R   0.906978 0.562873 0.226864 -0.179126
C159  C     C_R   0.416209 0.926056 0.226695 -0.177031
C160  C     C_R   0.090319 0.431707 0.228351 -0.181848
C161  C     C_R   0.905424 0.560701 0.272697 -0.184124
C162  C     C_R   0.581509 0.075651 0.273001 -0.187738
C163  C     C_R   0.091576 0.433400 0.274217 -0.184098
C164  C     C_R   0.417701 0.924433 0.272563 -0.187681
C165  C     C_R   0.080544 0.576861 0.727208 -0.178187
C166  C     C_R   0.581659 0.922338 0.727961 -0.180757
C167  C     C_R   0.915894 0.426432 0.726821 -0.161586
C168  C     C_R   0.420277 0.079774 0.726373 -0.185253
C169  C     C_R   0.570517 0.189213 0.569755 0.384691
C170  C     C_R   0.193164 0.423758 0.566369 0.390853
C171  C     C_R   0.434072 0.810197 0.570452 0.428027
C172  C     C_R   0.803967 0.614693 0.509327 0.389846
C173  C     C_R   0.573885 0.807945 0.432520 0.385421
C174  C     C_R   0.189793 0.576028 0.432950 0.404856
C175  C     C_R   0.427896 0.192490 0.431444 0.379965
C176  C     C_R   0.806753 0.413126 0.433777 0.392012
C177  C     C_R   0.067304 0.688901 0.070723 0.371283
C178  C     C_R   0.691624 0.931172 0.069555 0.435390
C179  C     C_R   0.938213 0.310385 0.071998 0.414353
C180  C     C_R   0.311399 0.069244 0.069519 0.418866
C181  C     C_R   0.070120 0.308961 0.930525 0.384116
C182  C     C_R   0.689569 0.073116 0.931332 0.393723
C183  C     C_R   0.926220 0.692461 0.931606 0.389807
C184  C     C_R   0.308387 0.929643 0.931142 0.388661
C185  C     C_R   0.597486 0.226652 0.602886 0.423866
C186  C     C_R   0.232759 0.393248 0.597378 0.410771
C187  C     C_R   0.411044 0.772575 0.604676 0.415039
C188  C     C_R   0.782780 0.651715 0.544655 0.378113
C189  C     C_R   0.602901 0.769161 0.400967 0.414014
C190  C     C_R   0.227828 0.607069 0.402090 0.412998
C191  C     C_R   0.400335 0.231632 0.398870 0.418719
C192  C     C_R   0.766594 0.377637 0.406840 0.401507
C193  C     C_R   0.091810 0.726291 0.104867 0.426099
C194  C     C_R   0.730023 0.907106 0.103602 0.419276
C195  C     C_R   0.918119 0.272548 0.107093 0.412795
C196  C     C_R   0.275900 0.088721 0.105736 0.436541
C197  C     C_R   0.096550 0.270738 0.897583 0.423363
C198  C     C_R   0.727440 0.102444 0.899567 0.415038
C199  C     C_R   0.897059 0.731409 0.899590 0.414484
C200  C     C_R   0.269254 0.901440 0.899334 0.414148
H1    H     H_    0.615727 0.893744 0.790629 0.207448
H2    H     H_    0.110624 0.608952 0.789625 0.207723
H3    H     H_    0.386487 0.108809 0.788427 0.209060
H4    H     H_    0.885175 0.395038 0.789145 0.206749
H5    H     H_    0.616348 0.102661 0.210779 0.203532
H6    H     H_    0.870789 0.588611 0.210033 0.206323
H7    H     H_    0.383256 0.897022 0.210082 0.204130
H8    H     H_    0.126393 0.405803 0.212137 0.203652
H9    H     H_    0.868454 0.585271 0.288953 0.203404
H10   H     H_    0.613783 0.105438 0.289603 0.207085
H11   H     H_    0.128310 0.408453 0.291052 0.207172
H12   H     H_    0.385537 0.894526 0.288995 0.206914
H13   H     H_    0.112848 0.606625 0.710784 0.208366
H14   H     H_    0.613533 0.891391 0.711759 0.203526
H15   H     H_    0.883143 0.397111 0.710269 0.208203
H16   H     H_    0.388689 0.110988 0.709556 0.207645
H17   H     H_    0.636513 0.314740 0.615846 0.190306
H18   H     H_    0.322161 0.352620 0.607046 0.192122
H19   H     H_    0.372777 0.684339 0.619294 0.185690
H20   H     H_    0.706113 0.669355 0.587474 0.191505
H21   H     H_    0.643106 0.680127 0.390664 0.188481
H22   H     H_    0.316224 0.647292 0.392377 0.192250
H23   H     H_    0.360435 0.320742 0.387150 0.190165
H24   H     H_    0.677226 0.337003 0.402281 0.193283
H25   H     H_    0.130792 0.814145 0.118829 0.186985
H26   H     H_    0.819559 0.868896 0.118078 0.183992
H27   H     H_    0.880293 0.184469 0.122847 0.183960
H28   H     H_    0.186188 0.122019 0.124084 0.176148
H29   H     H_    0.134909 0.181576 0.884817 0.189027
H30   H     H_    0.815907 0.141870 0.888580 0.191351
H31   H     H_    0.857759 0.820816 0.888234 0.191558
H32   H     H_    0.180886 0.860972 0.889151 0.191089
H33   H     H_    0.595555 0.361287 0.549511 0.188063
H34   H     H_    0.365610 0.400283 0.542875 0.184976
H35   H     H_    0.405954 0.639023 0.550816 0.189901
H36   H     H_    0.646375 0.584491 0.560462 0.205510
H37   H     H_    0.597859 0.635438 0.455335 0.190947
H38   H     H_    0.362455 0.598526 0.455854 0.184436
H39   H     H_    0.402401 0.364526 0.453567 0.187427
H40   H     H_    0.634909 0.394390 0.463212 0.176202
H41   H     H_    0.094487 0.860496 0.050943 0.190504
H42   H     H_    0.864062 0.904729 0.050075 0.190851
H43   H     H_    0.907523 0.139787 0.052665 0.192110
H44   H     H_    0.137534 0.089351 0.056871 0.195266
H45   H     H_    0.094910 0.136260 0.951040 0.190561
H46   H     H_    0.862098 0.096610 0.953405 0.188087
H47   H     H_    0.902724 0.864949 0.953274 0.188046
H48   H     H_    0.137543 0.902871 0.955433 0.187291
O1    O     O_R   0.448270 0.091550 0.500010 -0.606358
O2    O     O_R   0.091550 0.551730 0.500010 -0.604482
O3    O     O_R   0.551730 0.908450 0.500010 -0.605398
O4    O     O_R   0.908450 0.448270 0.500010 -0.603964
O5    O     O_R   0.448270 0.908450 0.499990 -0.608598
O6    O     O_R   0.091550 0.448270 0.499990 -0.605170
O7    O     O_R   0.551730 0.091550 0.499990 -0.607506
O8    O     O_R   0.908450 0.551730 0.499990 -0.604041
O9    O     O_R   0.948270 0.591550 0.000010 -0.608598
O10   O     O_R   0.591550 0.051730 0.000010 -0.611025
O11   O     O_R   0.051730 0.408450 0.000010 -0.608589
O12   O     O_R   0.408450 0.948270 0.000010 -0.606550
O13   O     O_R   0.948270 0.408450 0.999990 -0.608446
O14   O     O_R   0.591550 0.948270 0.999990 -0.607934
O15   O     O_R   0.051730 0.591550 0.999990 -0.605141
O16   O     O_R   0.408450 0.051730 0.999990 -0.605075
O17   O     O_R   0.448260 0.999910 0.566090 -0.601068
O18   O     O_R   0.999910 0.551740 0.566090 -0.617160
O19   O     O_R   0.551740 0.000090 0.566090 -0.604190
O20   O     O_R   0.000090 0.448260 0.566090 -0.596153
O21   O     O_R   0.448260 0.000090 0.433910 -0.603227
O22   O     O_R   0.999910 0.448260 0.433910 -0.611741
O23   O     O_R   0.551740 0.999910 0.433910 -0.601925
O24   O     O_R   0.000090 0.551740 0.433910 -0.605331
O25   O     O_R   0.948260 0.499910 0.066090 -0.595810
O26   O     O_R   0.499910 0.051740 0.066090 -0.603655
O27   O     O_R   0.051740 0.500090 0.066090 -0.598202
O28   O     O_R   0.500090 0.948260 0.066090 -0.606717
O29   O     O_R   0.948260 0.500090 0.933910 -0.603278
O30   O     O_R   0.499910 0.948260 0.933910 -0.605887
O31   O     O_R   0.051740 0.499910 0.933910 -0.602940
O32   O     O_R   0.500090 0.051740 0.933910 -0.605315
O33   O     O_R   0.408410 0.499950 0.462690 -0.624318
O34   O     O_R   0.499950 0.591590 0.462690 -0.623489
O35   O     O_R   0.591590 0.500050 0.462690 -0.617090
O36   O     O_R   0.500050 0.408410 0.462690 -0.622480
O37   O     O_R   0.408410 0.500050 0.537310 -0.624030
O38   O     O_R   0.499950 0.408410 0.537310 -0.625113
O39   O     O_R   0.591590 0.499950 0.537310 -0.634740
O40   O     O_R   0.500050 0.591590 0.537310 -0.625197
O41   O     O_R   0.908410 0.999950 0.962690 -0.624092
O42   O     O_R   0.999950 0.091590 0.962690 -0.623995
O43   O     O_R   0.091590 0.000050 0.962690 -0.622048
O44   O     O_R   0.000050 0.908410 0.962690 -0.622661
O45   O     O_R   0.908410 0.000050 0.037310 -0.626792
O46   O     O_R   0.999950 0.908410 0.037310 -0.626760
O47   O     O_R   0.091590 0.999950 0.037310 -0.629781
O48   O     O_R   0.000050 0.091590 0.037310 -0.629465
Zn1   Zn    Zn3+2 0.430920 0.000000 0.500000 1.002269
Zn2   Zn    Zn3+2 0.000000 0.569080 0.500000 0.996301
Zn3   Zn    Zn3+2 0.569080 0.000000 0.500000 1.001111
Zn4   Zn    Zn3+2 1.000000 0.430920 0.500000 0.991356
Zn5   Zn    Zn3+2 0.930920 0.500000 0.000000 1.004516
Zn6   Zn    Zn3+2 0.500000 0.069080 0.000000 0.990403
Zn7   Zn    Zn3+2 0.069080 0.500000 0.000000 1.003968
Zn8   Zn    Zn3+2 0.500000 0.930920 0.000000 0.996585
Zn9   Zn    Zn3+2 0.500000 0.500000 0.450200 0.955131
Zn10  Zn    Zn3+2 0.500000 0.500000 0.549800 0.944965
Zn11  Zn    Zn3+2 0.000000 1.000000 0.950200 0.950352
Zn12  Zn    Zn3+2 0.000000 0.000000 0.049800 0.935420
Cl1   Cl    Cl    0.398582 0.077430 0.871931 -0.665302
Cl2   Cl    Cl    0.919007 0.403060 0.872319 -0.665786
Cl3   Cl    Cl    0.602212 0.923837 0.873844 -0.664655
Cl4   Cl    Cl    0.078706 0.598628 0.872690 -0.661244
Cl5   Cl    Cl    0.397061 0.926789 0.126593 -0.665358
Cl6   Cl    Cl    0.091856 0.410203 0.128980 -0.667031
Cl7   Cl    Cl    0.602686 0.072958 0.127405 -0.665348
Cl8   Cl    Cl    0.908783 0.589360 0.128031 -0.672024
Cl9   Cl    Cl    0.110211 0.435905 0.374498 -0.673157
Cl10  Cl    Cl    0.418569 0.903325 0.372278 -0.663828
Cl11  Cl    Cl    0.887762 0.558485 0.372881 -0.687541
Cl12  Cl    Cl    0.580208 0.097387 0.372450 -0.667060
Cl13  Cl    Cl    0.899414 0.423491 0.626630 -0.653257
Cl14  Cl    Cl    0.419701 0.099203 0.626472 -0.670289
Cl15  Cl    Cl    0.100935 0.575478 0.627594 -0.662940
Cl16  Cl    Cl    0.581143 0.901571 0.628328 -0.662361
O49   O     O_3   0.378308 0.210046 0.358805 -0.664963
C201  C     C_3   0.427184 0.186613 0.332804 0.126658
H49   H     H_    0.421970 0.135991 0.330136 0.170370
H50   H     H_    0.474276 0.195593 0.346452 0.163221
C202  C     C_3   0.422650 0.215738 0.286692 -0.366653
H51   H     H_    0.375216 0.210252 0.273401 0.236116
H52   H     H_    0.431915 0.265757 0.289217 0.226353
C203  C     C_3   0.468440 0.186644 0.254765 -0.918381
H53   H     H_    0.516319 0.193752 0.266769 0.279009
H54   H     H_    0.463155 0.208228 0.221505 0.270680
H55   H     H_    0.459752 0.136674 0.251684 0.270448
O50   O     O_3   0.204712 0.635501 0.364319 -0.664886
C204  C     C_3   0.185539 0.590837 0.333465 0.108296
H56   H     H_    0.137993 0.575956 0.341335 0.193346
H57   H     H_    0.216898 0.549750 0.333110 0.151775
C205  C     C_3   0.185731 0.620106 0.287332 -0.347709
H58   H     H_    0.156034 0.662012 0.287380 0.230735
H59   H     H_    0.233455 0.633938 0.279092 0.234574
C206  C     C_3   0.162389 0.576178 0.251928 -0.933166
H60   H     H_    0.189407 0.532517 0.252674 0.274704
H61   H     H_    0.167235 0.597653 0.218705 0.272517
H62   H     H_    0.113038 0.566379 0.257394 0.270254
O51   O     O_3   0.627230 0.791135 0.361829 -0.671443
C207  C     C_3   0.580131 0.816585 0.334425 0.127529
H63   H     H_    0.581642 0.867561 0.336724 0.176268
H64   H     H_    0.532702 0.801422 0.343268 0.157550
C208  C     C_3   0.592410 0.797172 0.286705 -0.364208
H65   H     H_    0.640418 0.808899 0.277940 0.233247
H66   H     H_    0.587445 0.746527 0.283949 0.229079
C209  C     C_3   0.548076 0.828710 0.254176 -0.926953
H67   H     H_    0.499833 0.816158 0.261756 0.280989
H68   H     H_    0.558743 0.813990 0.219870 0.268548
H69   H     H_    0.553028 0.879297 0.256132 0.269560
O52   O     O_3   0.785126 0.350327 0.367753 -0.661264
C210  C     C_3   0.800924 0.396464 0.336748 0.104011
H70   H     H_    0.847457 0.414612 0.344535 0.198150
H71   H     H_    0.766790 0.435290 0.336419 0.149371
C211  C     C_3   0.802144 0.368452 0.290479 -0.351898
H72   H     H_    0.833444 0.327719 0.290732 0.228122
H73   H     H_    0.755105 0.353043 0.281296 0.234867
C212  C     C_3   0.824204 0.414707 0.256022 -0.941083
H74   H     H_    0.794181 0.456400 0.255810 0.274722
H75   H     H_    0.822714 0.393664 0.222577 0.273870
H76   H     H_    0.872360 0.428121 0.263468 0.273884
O53   O     O_3   0.394072 0.797585 0.644774 -0.655015
C213  C     C_3   0.440913 0.784332 0.676222 0.095906
H77   H     H_    0.487240 0.797320 0.663605 0.174913
H78   H     H_    0.440954 0.734405 0.684653 0.143496
C214  C     C_3   0.428322 0.821407 0.718052 -0.323493
H79   H     H_    0.432734 0.871172 0.710363 0.235298
H80   H     H_    0.380555 0.812682 0.729068 0.231093
C215  C     C_3   0.472880 0.803981 0.755523 -0.926608
H81   H     H_    0.465352 0.755710 0.766156 0.262022
H82   H     H_    0.464964 0.834693 0.784282 0.271991
H83   H     H_    0.521268 0.808778 0.744544 0.275794
O54   O     O_3   0.211365 0.366626 0.635875 -0.662285
C216  C     C_3   0.194952 0.413098 0.666224 0.101385
H84   H     H_    0.150489 0.435165 0.656081 0.196286
H85   H     H_    0.231298 0.448870 0.668763 0.146931
C217  C     C_3   0.187404 0.383425 0.711802 -0.352220
H86   H     H_    0.152220 0.346903 0.709421 0.233813
H87   H     H_    0.231856 0.361846 0.722345 0.236258
C218  C     C_3   0.167570 0.430121 0.746560 -0.932060
H88   H     H_    0.200442 0.468834 0.748053 0.274048
H89   H     H_    0.166196 0.407569 0.779619 0.268876
H90   H     H_    0.120884 0.448075 0.738482 0.274527
O55   O     O_3   0.620857 0.202507 0.642103 -0.665130
C219  C     C_3   0.572508 0.182060 0.669559 0.117035
H91   H     H_    0.581523 0.132978 0.677986 0.170913
H92   H     H_    0.525561 0.184725 0.654112 0.168758
C220  C     C_3   0.572553 0.220063 0.712037 -0.365954
H93   H     H_    0.619514 0.219386 0.726924 0.236758
H94   H     H_    0.560179 0.268534 0.703802 0.224734
C221  C     C_3   0.526965 0.195408 0.745763 -0.917625
H95   H     H_    0.479387 0.198005 0.732033 0.277559
H96   H     H_    0.529014 0.223508 0.776349 0.267124
H97   H     H_    0.538607 0.147021 0.754591 0.272361
O56   O     O_3   0.815079 0.702084 0.559946 -0.656719
C222  C     C_3   0.875429 0.683279 0.572647 0.113744
H98   H     H_    0.904938 0.678766 0.542837 0.173726
H99   H     H_    0.875391 0.638492 0.590979 0.142694
C223  C     C_3   0.903470 0.731508 0.603137 -0.383328
H100  H     H_    0.905582 0.776270 0.585307 0.230601
H101  H     H_    0.873882 0.737366 0.632761 0.236701
C224  C     C_3   0.968307 0.712445 0.618226 -0.882371
H102  H     H_    0.967162 0.668111 0.636652 0.277990
H103  H     H_    0.987401 0.748119 0.640486 0.263254
H104  H     H_    0.999068 0.707422 0.589175 0.275520
O57   O     O_3   0.870333 0.709257 0.861193 -0.662613
C225  C     C_3   0.916503 0.689162 0.831688 0.107334
H105  H     H_    0.930815 0.641250 0.840213 0.190197
H106  H     H_    0.957843 0.719312 0.832386 0.147141
C226  C     C_3   0.889577 0.690626 0.784680 -0.347029
H107  H     H_    0.847544 0.661922 0.783364 0.236920
H108  H     H_    0.876224 0.738688 0.775929 0.230991
C227  C     C_3   0.935463 0.666798 0.750666 -0.926419
H109  H     H_    0.979065 0.692962 0.752387 0.272620
H110  H     H_    0.915474 0.671900 0.716833 0.266377
H111  H     H_    0.945221 0.617427 0.756819 0.279495
O58   O     O_3   0.704061 0.129186 0.861254 -0.664004
C228  C     C_3   0.684030 0.083268 0.831645 0.110786
H112  H     H_    0.635057 0.072344 0.838446 0.187469
H113  H     H_    0.712305 0.040090 0.834027 0.149464
C229  C     C_3   0.689354 0.108471 0.784486 -0.349615
H114  H     H_    0.662822 0.152271 0.781751 0.235542
H115  H     H_    0.738503 0.118154 0.777450 0.233155
C230  C     C_3   0.665121 0.063473 0.750131 -0.932252
H116  H     H_    0.688806 0.018154 0.753557 0.276599
H117  H     H_    0.673471 0.081785 0.716322 0.268792
H118  H     H_    0.614887 0.057712 0.754286 0.269815
O59   O     O_3   0.119361 0.293956 0.858363 -0.666704
C231  C     C_3   0.070805 0.316774 0.831076 0.120347
H119  H     H_    0.076802 0.367153 0.826914 0.172378
H120  H     H_    0.023550 0.309341 0.844446 0.165434
C232  C     C_3   0.075080 0.285539 0.785938 -0.368537
H121  H     H_    0.122612 0.290005 0.773084 0.238343
H122  H     H_    0.065314 0.235767 0.789888 0.225990
C233  C     C_3   0.029642 0.313586 0.752553 -0.922730
H123  H     H_    0.981692 0.307824 0.764291 0.278988
H124  H     H_    0.034483 0.290114 0.720152 0.266024
H125  H     H_    0.039133 0.363196 0.747752 0.274972
O60   O     O_3   0.290700 0.877302 0.860006 -0.665271
C234  C     C_3   0.312938 0.924543 0.832248 0.121134
H126  H     H_    0.363862 0.926912 0.836081 0.181997
H127  H     H_    0.292648 0.970868 0.839455 0.154783
C235  C     C_3   0.296719 0.908363 0.784369 -0.360797
H128  H     H_    0.312749 0.860792 0.777413 0.234203
H129  H     H_    0.245838 0.910075 0.779926 0.228679
C236  C     C_3   0.326070 0.952329 0.751463 -0.926564
H130  H     H_    0.309933 0.000161 0.757493 0.278936
H131  H     H_    0.313084 0.939199 0.717143 0.269107
H132  H     H_    0.376952 0.949810 0.754678 0.271680
O61   O     O_3   0.906199 0.296772 0.148384 -0.656696
C237  C     C_3   0.957951 0.284884 0.175878 0.091802
H133  H     H_    0.000796 0.303349 0.160816 0.179752
H134  H     H_    0.963578 0.234454 0.181619 0.140985
C238  C     C_3   0.948261 0.316400 0.220382 -0.328111
H135  H     H_    0.946788 0.367020 0.215273 0.237709
H136  H     H_    0.903588 0.301711 0.234294 0.232300
C239  C     C_3   0.999533 0.299959 0.253378 -0.927952
H137  H     H_    0.998284 0.250185 0.261663 0.258841
H138  H     H_    0.993092 0.326724 0.284289 0.274811
H139  H     H_    0.045232 0.310845 0.239295 0.278013
O62   O     O_3   0.705423 0.888890 0.143550 -0.654503
C240  C     C_3   0.720317 0.933008 0.175959 0.096373
H140  H     H_    0.709022 0.980656 0.164295 0.174367
H141  H     H_    0.770268 0.929639 0.184511 0.140966
C241  C     C_3   0.682632 0.920184 0.217391 -0.320531
H142  H     H_    0.632965 0.927577 0.209591 0.236314
H143  H     H_    0.689912 0.871523 0.227510 0.229887
C242  C     C_3   0.701193 0.961678 0.255747 -0.933763
H144  H     H_    0.749335 0.951268 0.266324 0.261242
H145  H     H_    0.670191 0.953657 0.284269 0.272155
H146  H     H_    0.697609 0.010754 0.245721 0.274083
O63   O     O_3   0.111705 0.702374 0.145146 -0.667043
C243  C     C_3   0.061600 0.678248 0.169243 0.116948
H147  H     H_    0.071954 0.629153 0.176827 0.170104
H148  H     H_    0.016307 0.679804 0.151352 0.167558
C244  C     C_3   0.055257 0.713894 0.212526 -0.367597
H149  H     H_    0.100479 0.714680 0.229955 0.237173
H150  H     H_    0.041278 0.762125 0.204865 0.222428
C245  C     C_3   0.007620 0.685244 0.242957 -0.917558
H151  H     H_    0.961762 0.684967 0.226373 0.281571
H152  H     H_    0.004091 0.712481 0.273876 0.262927
H153  H     H_    0.021574 0.637507 0.251893 0.271949
O64   O     O_3   0.305208 0.111424 0.142991 -0.635194
C246  C     C_3   0.289972 0.074890 0.180046 0.098134
H154  H     H_    0.294775 0.024798 0.172676 0.165570
H155  H     H_    0.241912 0.085253 0.190501 0.137014
C247  C     C_3   0.333971 0.089968 0.218072 -0.314360
H156  H     H_    0.381606 0.076483 0.208684 0.234472
H157  H     H_    0.332728 0.140271 0.223924 0.231724
C248  C     C_3   0.316574 0.056678 0.260726 -0.934743
H158  H     H_    0.271263 0.073736 0.272656 0.263354
H159  H     H_    0.351919 0.065321 0.286698 0.267126
H160  H     H_    0.313930 0.006403 0.255065 0.275129
O65   O     O_3   0.579026 0.126170 0.573322 -0.640460
C249  C     C_3   0.642981 0.109058 0.573050 0.154034
H161  H     H_    0.645929 0.058521 0.569177 0.189111
H162  H     H_    0.665369 0.117805 0.605506 0.170345
C250  C     C_3   0.680829 0.137903 0.535135 -0.411788
H163  H     H_    0.657799 0.130553 0.502691 0.263283
H164  H     H_    0.685383 0.188189 0.540204 0.219752
C251  C     C_3   0.745502 0.109812 0.533361 -0.934515
H165  H     H_    0.770137 0.117056 0.565300 0.270313
H166  H     H_    0.771933 0.132101 0.506444 0.275974
H167  H     H_    0.743088 0.059749 0.526534 0.255021
O66   O     O_3   0.130141 0.417463 0.571492 -0.641028
C252  C     C_3   0.111583 0.354471 0.570147 0.157143
H168  H     H_    0.060757 0.353982 0.566836 0.188042
H169  H     H_    0.121016 0.330693 0.602075 0.172525
C253  C     C_3   0.137922 0.316706 0.531125 -0.408706
H170  H     H_    0.129569 0.341042 0.499227 0.261786
H171  H     H_    0.188400 0.309776 0.535343 0.220853
C254  C     C_3   0.108298 0.253512 0.528580 -0.944102
H172  H     H_    0.116772 0.227493 0.559858 0.271763
H173  H     H_    0.128554 0.227183 0.500708 0.274088
H174  H     H_    0.057862 0.258314 0.522798 0.256025
O67   O     O_3   0.424780 0.873082 0.573859 -0.625029
C255  C     C_3   0.360508 0.888736 0.575231 0.162475
H175  H     H_    0.356086 0.939395 0.572757 0.187272
H176  H     H_    0.340144 0.877294 0.607765 0.177321
C256  C     C_3   0.321275 0.861291 0.537279 -0.425957
H177  H     H_    0.341448 0.872567 0.504640 0.264377
H178  H     H_    0.319457 0.810458 0.540524 0.220209
C257  C     C_3   0.255331 0.886312 0.538173 -0.939286
H179  H     H_    0.233424 0.875011 0.570307 0.270252
H180  H     H_    0.228035 0.865197 0.511047 0.275186
H181  H     H_    0.254913 0.936982 0.533343 0.259071
O68   O     O_3   0.841450 0.638570 0.476349 -0.607029
C258  C     C_3   0.816539 0.694576 0.459362 0.096227
H182  H     H_    0.835087 0.733571 0.478851 0.176106
H183  H     H_    0.765066 0.696194 0.460373 0.127178
C259  C     C_3   0.835438 0.702352 0.411043 -0.286119
H184  H     H_    0.886389 0.698433 0.408394 0.247431
H185  H     H_    0.814134 0.665436 0.390986 0.266927
C260  C     C_3   0.814206 0.764514 0.392456 -0.982710
H186  H     H_    0.763343 0.769552 0.394922 0.287896
H187  H     H_    0.827233 0.768050 0.357027 0.276979
H188  H     H_    0.836623 0.802325 0.410932 0.263386
O69   O     O_3   0.581371 0.870828 0.428183 -0.644877
C261  C     C_3   0.644937 0.887748 0.429947 0.142048
H189  H     H_    0.646610 0.938328 0.433713 0.193588
H190  H     H_    0.668233 0.878614 0.398059 0.164743
C262  C     C_3   0.682502 0.858880 0.468792 -0.403801
H191  H     H_    0.657206 0.863643 0.500394 0.266378
H192  H     H_    0.690614 0.809122 0.462737 0.208729
C263  C     C_3   0.745020 0.889550 0.473899 -0.943719
H193  H     H_    0.771004 0.886806 0.442410 0.263900
H194  H     H_    0.772189 0.865837 0.500382 0.279400
H195  H     H_    0.738836 0.938586 0.483167 0.257705
O70   O     O_3   0.126549 0.583216 0.428399 -0.637544
C264  C     C_3   0.107325 0.646361 0.431023 0.148966
H196  H     H_    0.056715 0.647221 0.435368 0.183715
H197  H     H_    0.114516 0.670856 0.399238 0.168813
C265  C     C_3   0.135616 0.682950 0.469969 -0.405586
H198  H     H_    0.130845 0.657344 0.501595 0.262775
H199  H     H_    0.185426 0.690643 0.464279 0.219457
C266  C     C_3   0.104156 0.745632 0.474770 -0.945755
H200  H     H_    0.108673 0.772766 0.443697 0.268964
H201  H     H_    0.126193 0.771301 0.502282 0.275086
H202  H     H_    0.054550 0.739969 0.482416 0.253447
O71   O     O_3   0.420548 0.129604 0.427022 -0.642683
C267  C     C_3   0.356901 0.112886 0.426365 0.143749
H203  H     H_    0.354739 0.062138 0.428625 0.190362
H204  H     H_    0.334647 0.124192 0.394126 0.170888
C268  C     C_3   0.318328 0.139218 0.464942 -0.403030
H205  H     H_    0.340725 0.128467 0.497253 0.263399
H206  H     H_    0.313861 0.189970 0.461806 0.218804
C269  C     C_3   0.253628 0.112482 0.465005 -0.941406
H207  H     H_    0.229552 0.123204 0.433215 0.270369
H208  H     H_    0.226720 0.132864 0.492542 0.274412
H209  H     H_    0.255924 0.061833 0.469803 0.258160
O72   O     O_3   0.870012 0.410450 0.427093 -0.639441
C270  C     C_3   0.893769 0.348880 0.428111 0.132289
H210  H     H_    0.944646 0.351382 0.426714 0.185763
H211  H     H_    0.881018 0.323048 0.397951 0.172870
C271  C     C_3   0.877441 0.311986 0.470242 -0.389061
H212  H     H_    0.892581 0.336830 0.500331 0.261796
H213  H     H_    0.826907 0.305176 0.472194 0.218182
C272  C     C_3   0.908706 0.248800 0.470232 -0.955443
H214  H     H_    0.893453 0.222025 0.440945 0.274022
H215  H     H_    0.896137 0.223212 0.500734 0.274802
H216  H     H_    0.959586 0.253615 0.469531 0.256361
O73   O     O_3   0.076632 0.625938 0.073994 -0.645189
C273  C     C_3   0.140862 0.610096 0.075566 0.151035
H217  H     H_    0.145059 0.559456 0.073035 0.193027
H218  H     H_    0.161777 0.620917 0.108186 0.170357
C274  C     C_3   0.179497 0.638048 0.037763 -0.407979
H219  H     H_    0.158654 0.627446 0.005059 0.263063
H220  H     H_    0.181588 0.688808 0.041115 0.219771
C275  C     C_3   0.245346 0.612717 0.038748 -0.938796
H221  H     H_    0.267905 0.623344 0.070953 0.271626
H222  H     H_    0.272229 0.634190 0.011721 0.273821
H223  H     H_    0.245445 0.562135 0.033817 0.259076
O74   O     O_3   0.628753 0.922642 0.073326 -0.622715
C276  C     C_3   0.613563 0.858718 0.074298 0.160022
H224  H     H_    0.562807 0.855242 0.071640 0.185205
H225  H     H_    0.625170 0.837333 0.106763 0.177485
C277  C     C_3   0.641399 0.820196 0.036232 -0.427045
H226  H     H_    0.630604 0.841762 0.003680 0.264928
H227  H     H_    0.692296 0.816983 0.039920 0.219800
C278  C     C_3   0.616113 0.755018 0.036314 -0.936144
H228  H     H_    0.626981 0.731733 0.068335 0.270648
H229  H     H_    0.637516 0.728217 0.009123 0.274824
H230  H     H_    0.565392 0.756067 0.031049 0.257537
O75   O     O_3   0.928411 0.373246 0.075362 -0.630140
C279  C     C_3   0.864230 0.387766 0.079832 0.157449
H231  H     H_    0.858940 0.438425 0.080640 0.191851
H232  H     H_    0.845839 0.372277 0.112114 0.177008
C280  C     C_3   0.823365 0.364056 0.041520 -0.417077
H233  H     H_    0.839605 0.382202 0.009329 0.262122
H234  H     H_    0.824991 0.313037 0.040294 0.221416
C281  C     C_3   0.756359 0.384167 0.047410 -0.944613
H235  H     H_    0.738131 0.365786 0.079062 0.272432
H236  H     H_    0.727992 0.366222 0.019640 0.274485
H237  H     H_    0.752513 0.435140 0.047423 0.262949
O76   O     O_3   0.372137 0.087741 0.069869 -0.603388
C282  C     C_3   0.373391 0.151471 0.058627 0.132078
H238  H     H_    0.342454 0.179381 0.080105 0.158872
H239  H     H_    0.358349 0.158453 0.023538 0.132385
C283  C     C_3   0.438507 0.176639 0.064257 -0.264862
H240  H     H_    0.456926 0.163816 0.097581 0.253544
H241  H     H_    0.468942 0.156919 0.038562 0.237155
C284  C     C_3   0.439256 0.246492 0.059281 -1.020321
H242  H     H_    0.420995 0.260401 0.026167 0.266633
H243  H     H_    0.487316 0.262962 0.062544 0.278835
H244  H     H_    0.410960 0.268438 0.085462 0.279572
O77   O     O_3   0.078489 0.371829 0.926943 -0.641756
C285  C     C_3   0.142396 0.387568 0.927412 0.151025
H245  H     H_    0.145309 0.438125 0.930734 0.189933
H246  H     H_    0.164491 0.377623 0.895223 0.170402
C286  C     C_3   0.180571 0.358668 0.965891 -0.412690
H247  H     H_    0.157780 0.367108 0.998075 0.263259
H248  H     H_    0.185136 0.308190 0.961334 0.217748
C287  C     C_3   0.245201 0.385475 0.967888 -0.932924
H249  H     H_    0.269613 0.377086 0.936229 0.270382
H250  H     H_    0.271870 0.363203 0.995255 0.273082
H251  H     H_    0.242736 0.435724 0.974169 0.257489
O78   O     O_3   0.626355 0.081120 0.927375 -0.642059
C288  C     C_3   0.608273 0.144625 0.929308 0.152900
H252  H     H_    0.557677 0.146506 0.933630 0.188501
H253  H     H_    0.615989 0.168355 0.897287 0.171246
C289  C     C_3   0.637326 0.181415 0.967851 -0.413121
H254  H     H_    0.633010 0.156131 0.999642 0.263111
H255  H     H_    0.687076 0.188773 0.961655 0.220279
C290  C     C_3   0.606194 0.244259 0.972675 -0.936944
H256  H     H_    0.610145 0.271078 0.941415 0.270344
H257  H     H_    0.628884 0.270106 0.999821 0.273913
H258  H     H_    0.556740 0.238841 0.980904 0.258172
O79   O     O_3   0.918651 0.629575 0.927578 -0.645498
C291  C     C_3   0.855142 0.612520 0.929135 0.152626
H259  H     H_    0.853617 0.561948 0.933312 0.189766
H260  H     H_    0.831481 0.621403 0.897026 0.173842
C292  C     C_3   0.817954 0.641177 0.967606 -0.409969
H261  H     H_    0.842567 0.634257 0.999617 0.264137
H262  H     H_    0.811555 0.691382 0.962151 0.219606
C293  C     C_3   0.754319 0.612504 0.971060 -0.929650
H263  H     H_    0.728116 0.619394 0.939609 0.269629
H264  H     H_    0.728352 0.634653 0.998359 0.273521
H265  H     H_    0.758627 0.562502 0.978287 0.257809
O80   O     O_3   0.371500 0.921724 0.926798 -0.642133
C294  C     C_3   0.389313 0.858063 0.927146 0.145325
H266  H     H_    0.440114 0.855575 0.930372 0.189637
H267  H     H_    0.379458 0.835946 0.894906 0.170033
C295  C     C_3   0.362461 0.819577 0.965578 -0.405350
H268  H     H_    0.371101 0.842181 0.997846 0.262520
H269  H     H_    0.311906 0.814634 0.961258 0.219703
C296  C     C_3   0.391237 0.755260 0.967153 -0.938130
H270  H     H_    0.382723 0.731007 0.935405 0.271411
H271  H     H_    0.370377 0.728363 0.994467 0.273285
H272  H     H_    0.441677 0.758013 0.973256 0.256676

loop_
_geom_bond_atom_site_label_1
_geom_bond_atom_site_label_2
_ccdc_geom_bond_type
C254  H174  S    
O71   C267  S    
C89   O37   A    
C153  C166  A    
C90   O34   A    
C261  C262  S    
C272  H214  S    
C94   O42   A    
C7    O11   A    
C136  C148  A    
O4    Zn4   S    
C107  C129  A    
C218  H90   S    
C53   C69   A    
C243  H147  S    
C104  O32   A    
C296  H270  S    
C105  C131  A    
C179  C195  A    
C264  H196  S    
C106  C132  A    
C177  C193  A    
C46   C62   A    
C227  H109  S    
C292  H262  S    
C14   C30   A    
C112  C124  A    
C58   C82   A    
C179  O75   S    
C290  H258  S    
C240  C241  S    
C130  C146  A    
C281  H235  S    
C22   C38   A    
C37   H45   S    
C267  H203  S    
C257  H179  S    
O61   C237  S    
C258  C259  S    
O76   C282  S    
C64   C84   A    
C295  C296  S    
C274  H220  S    
C186  O54   S    
C263  H195  S    
C229  H115  S    
C239  H137  S    
C56   C72   A    
C293  H265  S    
C241  C242  S    
C201  H49   S    
C198  O58   S    
C8    O16   A    
C129  C145  A    
C180  C196  A    
C215  H83   S    
C107  Cl3   S    
C109  Cl5   S    
C143  C151  A    
O47   Zn12  S    
C294  C295  S    
C295  H269  S    
C246  H155  S    
C42   C58   A    
C196  O64   S    
C289  C290  S    
C59   C171  A    
O26   Zn6   S    
C190  O50   S    
C204  H56   S    
C153  H1    S    
O37   Zn10  S    
C43   C75   A    
C249  H162  S    
O18   Zn2   S    
C135  C159  A    
C266  H200  S    
C160  C163  A    
C71   C183  A    
C147  C150  A    
C157  H5    S    
C205  H58   S    
C72   C184  A    
C175  O71   S    
O34   Zn9   S    
C25   C41   A    
C253  H170  S    
C162  H10   S    
O73   C273  S    
C28   C44   A    
C279  C280  S    
C172  O68   S    
C191  O49   S    
C29   C45   A    
C236  H132  S    
C252  H169  S    
C37   C53   A    
C234  H127  S    
C269  H207  S    
C242  H145  S    
C4    C84   S    
C255  C256  S    
C11   C27   A    
O66   C252  S    
C201  C202  S    
C277  H227  S    
C268  H206  S    
C61   C173  A    
C138  C162  A    
C102  O26   A    
O40   Zn10  S    
O77   C285  S    
O14   Zn8   S    
C97   O17   A    
C265  H198  S    
C240  H141  S    
C35   C51   A    
C286  H247  S    
C119  C141  A    
C272  H216  S    
C223  H101  S    
C16   H24   S    
O64   C246  S    
C102  C123  S    
C243  C244  S    
C204  C205  S    
C231  H119  S    
O12   Zn8   S    
C264  C265  S    
C13   C29   A    
C15   C191  A    
C63   C175  A    
C176  O72   S    
C89   O33   A    
C227  H111  S    
C96   O44   A    
C112  C134  A    
C291  H259  S    
C217  H87   S    
C290  H256  S    
C159  H7    S    
O41   Zn11  S    
C267  C268  S    
C187  O53   S    
C136  C160  A    
C169  O65   S    
C284  H243  S    
O32   Zn6   S    
C262  H192  S    
C19   C35   A    
C212  H74   S    
C137  C161  A    
C228  H113  S    
C120  Cl16  S    
C164  H12   S    
C239  H139  S    
C207  H63   S    
C282  C283  S    
C245  H151  S    
O33   Zn9   S    
O23   Zn3   S    
C244  C245  S    
O46   Zn12  S    
O74   C276  S    
C24   C200  A    
C40   H48   S    
C210  H70   S    
C5    O15   A    
O68   C258  S    
C67   C179  A    
C8    C88   S    
C224  H102  S    
C33   C49   A    
C157  C162  A    
C12   H20   S    
C97   C128  S    
C23   H31   S    
C69   C181  A    
O54   C216  S    
C256  C257  S    
C235  H129  S    
C35   H43   S    
C109  C135  A    
C222  H98   S    
C182  O78   S    
C48   C76   A    
C110  C136  A    
C208  H65   S    
C205  C206  S    
C167  H15   S    
C181  C197  A    
C287  H249  S    
C213  H77   S    
C278  H230  S    
C230  H117  S    
C238  H135  S    
O10   Zn6   S    
C3    O3    A    
C232  H122  S    
C199  O57   S    
C1    O1    A    
C235  C236  S    
C142  C166  A    
C211  H72   S    
C94   O48   A    
C245  H153  S    
C45   C61   A    
C44   C76   A    
C19   H27   S    
C105  Cl1   S    
C17   H25   S    
C97   O19   A    
C265  C266  S    
C230  H116  S    
C98   O20   A    
C184  C200  A    
C286  C287  S    
C113  C139  A    
C154  C165  A    
O19   Zn3   S    
C133  C147  A    
C114  C140  A    
C64   C176  A    
O5    Zn1   S    
C108  C130  A    
C75   C90   S    
C231  C232  S    
C43   C59   A    
C5    C85   S    
C26   H34   S    
C263  H194  S    
O65   C249  S    
C192  O52   S    
C202  H52   S    
C30   H38   S    
C291  C292  S    
C155  H3    S    
C279  H232  S    
C226  H108  S    
C215  H82   S    
C99   C126  S    
C240  H140  S    
C247  H157  S    
C250  H164  S    
C101  C124  S    
C237  H133  S    
C98   C127  S    
C193  O63   S    
C241  H142  S    
C79   C94   S    
C289  H255  S    
C212  H76   S    
C109  C123  A    
O2    Zn2   S    
C207  C208  S    
C248  H159  S    
C8    O12   A    
O8    Zn2   S    
C260  H186  S    
C160  H8    S    
C18   C34   A    
C244  H149  S    
C106  C122  A    
C5    O9    A    
C93   O45   A    
C6    O14   A    
C51   C67   A    
C224  H104  S    
C143  C167  A    
C271  H212  S    
O44   Zn11  S    
C28   H36   S    
C165  H13   S    
O58   C228  S    
C134  C158  A    
C255  H176  S    
C135  C147  A    
C206  H61   S    
C293  H264  S    
C4    O8    A    
O39   Zn10  S    
C285  H246  S    
C287  H251  S    
O24   Zn2   S    
C294  H266  S    
C229  H114  S    
C26   C42   A    
C216  H85   S    
O56   C222  S    
C288  C289  S    
C238  C239  S    
C9    H17   S    
C254  H173  S    
C268  C269  S    
C269  H209  S    
C30   C46   A    
C73   C92   S    
C13   H21   S    
C218  H89   S    
C243  H148  S    
C66   C86   A    
O67   C255  S    
C15   C31   A    
C205  H59   S    
C80   C95   S    
C16   C32   A    
C77   C96   S    
C141  C165  A    
C56   C80   A    
C270  C271  S    
C168  H16   S    
C285  C286  S    
C139  C163  A    
C276  H224  S    
C92   O36   A    
C284  H242  S    
C129  C153  A    
C290  H257  S    
C65   C177  A    
C98   O18   A    
C266  H201  S    
C99   O23   A    
C10   C186  A    
C49   C77   A    
C7    O13   A    
C210  C211  S    
C257  H180  S    
C258  H183  S    
C51   C79   A    
C145  C152  A    
O6    Zn4   S    
C76   C91   S    
C41   C73   A    
C146  C151  A    
C14   C190  A    
O62   C240  S    
C239  H138  S    
C209  H67   S    
C159  C164  A    
C201  H50   S    
C144  C168  A    
C233  H123  S    
C233  H124  S    
C211  C212  S    
C251  H165  S    
C281  H237  S    
C119  C127  A    
C225  H106  S    
C217  C218  S    
O57   C225  S    
C11   H19   S    
C294  H267  S    
C257  H181  S    
C113  Cl9   S    
O30   Zn8   S    
O63   C243  S    
C203  H55   S    
C178  O74   S    
O50   C204  S    
C115  Cl11  S    
C226  C227  S    
C283  H240  S    
C116  Cl12  S    
C9    C25   A    
C95   O43   A    
C100  O22   A    
C178  C194  A    
C10   H18   S    
C259  H184  S    
C188  O56   S    
C12   C28   A    
C119  Cl15  S    
C200  O60   S    
C59   C83   A    
C260  H188  S    
C214  H80   S    
C47   C63   A    
C120  C128  A    
C220  C221  S    
C48   C64   A    
C18   C194  A    
C108  Cl4   S    
C1    C81   S    
O79   C291  S    
C38   H46   S    
C2    O6    A    
C261  H189  S    
C3    C83   S    
C142  C152  A    
C236  H131  S    
C173  O69   S    
C269  H208  S    
C158  C161  A    
C154  H2    S    
C33   H41   S    
C70   C182  A    
C7    C87   S    
C278  H228  S    
C231  H120  S    
C197  O59   S    
C40   C56   A    
C275  H223  S    
C69   C87   A    
C229  C230  S    
C39   C55   A    
C265  H199  S    
C225  H105  S    
C62   C82   A    
C144  C152  A    
C268  H205  S    
C228  H112  S    
C31   C47   A    
C272  H215  S    
C17   C33   A    
C50   C78   A    
O21   Zn1   S    
C296  H271  S    
C174  O70   S    
C226  H107  S    
O29   Zn5   S    
C264  H197  S    
C208  C209  S    
C292  H261  S    
C42   C74   A    
C111  C123  A    
C234  H126  S    
C158  H6    S    
C254  H172  S    
C222  C223  S    
O31   Zn7   S    
C47   C73   A    
C253  H171  S    
C61   C83   A    
C284  H244  S    
O51   C207  S    
O45   Zn12  S    
C106  Cl2   S    
C161  H9    S    
C99   O21   A    
O3    Zn3   S    
C270  H210  S    
C117  Cl13  S    
C95   O47   A    
C224  H103  S    
C232  H121  S    
C117  C143  A    
C262  H191  S    
C170  O66   S    
C66   C178  A    
C38   C54   A    
C155  C168  A    
C21   H29   S    
C170  C186  A    
C207  H64   S    
C250  H163  S    
C282  H239  S    
C275  H221  S    
C221  H96   S    
C245  H152  S    
C117  C127  A    
C4    O4    A    
O80   C294  S    
C237  H134  S    
C174  C190  A    
C251  H167  S    
C39   H47   S    
C251  H166  S    
C291  H260  S    
C244  H150  S    
C177  O73   S    
O43   Zn11  S    
C295  H268  S    
C246  C247  S    
C214  C215  S    
C266  H202  S    
C140  C164  A    
C107  C121  A    
O70   C264  S    
C281  H236  S    
C100  O24   A    
C256  H178  S    
C31   H39   S    
C249  H161  S    
C24   C40   A    
C53   C79   A    
C67   C87   A    
C22   C198  A    
C241  H143  S    
C219  H91   S    
C24   H32   S    
C287  H250  S    
C91   O39   A    
C213  H78   S    
C220  H93   S    
C278  H229  S    
C171  O67   S    
O17   Zn1   S    
C93   O41   A    
C6    O10   A    
C132  C146  A    
C252  C253  S    
C131  C155  A    
C234  C235  S    
C41   C57   A    
O48   Zn12  S    
C242  H146  S    
C273  C274  S    
C253  C254  S    
C32   C48   A    
C211  H73   S    
C44   C60   A    
C114  C126  A    
C227  H110  S    
C277  H226  S    
C139  C149  A    
C273  H218  S    
C15   H23   S    
O49   C201  S    
C96   O46   A    
C213  C214  S    
C20   C36   A    
C27   C43   A    
C21   C37   A    
O20   Zn4   S    
O22   Zn4   S    
C280  H233  S    
C288  H253  S    
C223  H100  S    
C52   C80   A    
C103  C122  S    
C130  C154  A    
C1    O7    A    
C54   C78   A    
C249  C250  S    
C62   C174  A    
C112  Cl8   S    
O1    Zn1   S    
C206  H60   S    
C19   C195  A    
O60   C234  S    
C34   H42   S    
C60   C84   A    
C202  H51   S    
C17   C193  A    
C282  H238  S    
C182  C198  A    
C103  O31   A    
C217  H86   S    
C3    O5    A    
C274  H219  S    
O55   C219  S    
C138  C150  A    
C225  C226  S    
C247  C248  S    
O42   Zn11  S    
C49   C65   A    
C63   C81   A    
C11   C187  A    
C74   C89   S    
C58   C170  A    
C203  H54   S    
C216  H84   S    
C252  H168  S    
C262  C263  S    
C9    C185  A    
C212  H75   S    
C175  C191  A    
C275  H222  S    
O27   Zn7   S    
C176  C192  A    
C113  C125  A    
C78   C93   S    
C256  H177  S    
C12   C188  A    
C23   C199  A    
C13   C189  A    
C248  H158  S    
C173  C189  A    
C203  H53   S    
C222  H99   S    
C132  C156  A    
C71   C85   A    
C16   C192  A    
C92   O38   A    
C189  O51   S    
C267  H204  S    
O78   C288  S    
C237  C238  S    
C22   H30   S    
C258  H182  S    
C55   C71   A    
C114  Cl10  S    
C276  H225  S    
C18   H26   S    
C54   C70   A    
C133  C157  A    
C52   C68   A    
C27   H35   S    
O25   Zn5   S    
C10   C26   A    
C235  H128  S    
O38   Zn10  S    
C25   H33   S    
C116  C126  A    
C221  H97   S    
C101  O25   A    
O52   C210  S    
C118  C128  A    
C271  C272  S    
C219  C220  S    
C29   H37   S    
C72   C88   A    
C36   H44   S    
C204  H57   S    
C230  H118  S    
C57   C169  A    
C238  H136  S    
C276  C277  S    
C34   C50   A    
C194  O62   S    
C100  C125  S    
C60   C172  A    
C115  C137  A    
C120  C142  A    
C148  C149  A    
C232  C233  S    
C104  O30   A    
C242  H144  S    
C163  H11   S    
C273  H217  S    
C111  C133  A    
C104  C121  S    
C32   H40   S    
C156  C167  A    
O13   Zn5   S    
C68   C180  A    
C277  C278  S    
C183  C199  A    
C270  H211  S    
O15   Zn7   S    
C131  C145  A    
C208  H66   S    
C216  C217  S    
C2    O2    A    
O36   Zn9   S    
C111  Cl7   S    
O75   C279  S    
C20   H28   S    
C246  H154  S    
C296  H272  S    
O69   C261  S    
C105  C121  A    
C210  H71   S    
C118  Cl14  S    
C181  O77   S    
C91   O35   A    
C50   C66   A    
C219  H92   S    
C280  H234  S    
O28   Zn8   S    
C166  H14   S    
C195  O61   S    
C263  H193  S    
C137  C149  A    
C209  H68   S    
C55   C77   A    
C68   C88   A    
C202  C203  S    
C57   C81   A    
C183  O79   S    
C103  O29   A    
C118  C144  A    
O7    Zn3   S    
C70   C86   A    
C116  C138  A    
C140  C150  A    
C6    C86   S    
C46   C74   A    
C274  C275  S    
C215  H81   S    
C141  C151  A    
C184  O80   S    
O53   C213  S    
C247  H156  S    
C185  O55   S    
C250  C251  S    
C293  H263  S    
C223  C224  S    
C14   H22   S    
C110  Cl6   S    
C108  C122  A    
C289  H254  S    
C36   C52   A    
C283  H241  S    
C65   C85   A    
C180  O76   S    
C209  H69   S    
C134  C148  A    
C286  H248  S    
C259  H185  S    
C115  C125  A    
C171  C187  A    
C271  H213  S    
C45   C75   A    
C248  H160  S    
C233  H125  S    
C169  C185  A    
C260  H187  S    
C214  H79   S    
C90   O40   A    
C220  H94   S    
O9    Zn5   S    
C288  H252  S    
C172  C188  A    
C23   C39   A    
C292  C293  S    
O11   Zn7   S    
C279  H231  S    
C228  C229  S    
C21   C197  A    
O72   C270  S    
C280  C281  S    
C261  H190  S    
C236  H130  S    
O16   Zn6   S    
C283  C284  S    
C2    C82   S    
O59   C231  S    
O35   Zn9   S    
C255  H175  S    
C259  C260  S    
C206  H62   S    
C221  H95   S    
C101  O27   A    
C110  C124  A    
C102  O28   A    
C285  H245  S    
C20   C196  A    
C156  H4    S    
C218  H88   S    
