data_mof_unit_7658.cif
_audit_creation_date              2012-12-10T17:27:49-0500
_audit_creation_method            fapswitch 2.2
_symmetry_space_group_name_H-M    P1
_symmetry_Int_Tables_number       1
_space_group_crystal_system       triclinic
_cell_length_a                    10.622355
_cell_length_b                    12.091941
_cell_length_c                    12.903695
_cell_angle_alpha                 92.222151
_cell_angle_beta                  90.398622
_cell_angle_gamma                 85.884372
_cell_volume                      1651.88197

loop_
_atom_site_label
_atom_site_type_symbol
_atom_type_description
_atom_site_fract_x
_atom_site_fract_y
_atom_site_fract_z
_atom_type_partial_charge
C1    C     C_R   0.496130 0.521149 0.699284 0.899422
C2    C     C_R   0.380002 0.591999 0.851519 -0.210400
C3    C     C_R   0.572754 0.474917 0.868709 -0.214617
C4    C     C_R   0.741819 0.499782 0.498732 0.941625
C5    C     C_R   0.557528 0.473583 0.975507 0.114845
C6    C     C_R   0.449398 0.532486 0.020665 0.126889
C7    C     C_R   0.430498 0.530201 0.127535 -0.131256
C8    C     C_R   0.626242 0.409951 0.143823 -0.100554
C9    C     C_R   0.645709 0.411988 0.036726 -0.090601
C10   C     C_R   0.509278 0.938628 0.362210 0.086842
C11   C     C_R   0.500822 0.826297 0.383736 0.041880
C12   C     C_R   0.956137 0.399339 0.492693 0.039033
C13   C     C_R   0.453843 0.869192 0.559515 0.091313
C14   C     C_R   0.475981 0.982811 0.544993 -0.007320
C15   C     C_R   0.508621 0.018932 0.445920 0.062438
C16   C     C_R   0.505606 0.479046 0.299959 0.941686
C17   C     C_R   0.538517 0.133108 0.436458 0.223972
C18   C     C_R   0.507589 0.166916 0.616165 0.139469
C19   C     C_R   0.473877 0.059184 0.628634 -0.346860
C20   C     C_R   0.263148 0.498173 0.479912 0.903999
C21   C     C_R   0.921022 0.306036 0.544714 -0.267884
C22   C     C_R   0.985228 0.201666 0.528741 0.018756
C23   C     C_R   0.877069 0.498177 0.480142 -0.077097
C24   C     C_R   0.092072 0.190643 0.462820 -0.084957
C25   C     C_R   0.136023 0.287384 0.420392 -0.066639
C26   C     C_R   0.075201 0.393303 0.448185 0.115953
C27   C     C_3   0.843879 0.679200 0.377971 -0.787354
C28   C     C_2   0.762356 0.354090 0.991348 0.406676
C29   C     C_3   0.616802 0.166635 0.348530 -0.826522
C30   C     C_2   0.557808 0.219669 0.710406 0.445411
C31   C     C_3   0.506492 0.967689 0.249388 -0.888527
C32   C     C_2   0.401044 0.833284 0.656963 0.518272
C33   C     C_2   0.928741 0.106461 0.575469 0.482067
C34   C     C_R   0.926322 0.589687 0.431420 0.108200
C35   C     C_2   0.160541 0.080712 0.440694 0.451269
C36   C     C_2   0.238081 0.277391 0.341258 0.429702
C37   C     C_2   0.107028 0.705129 0.415963 0.503928
C38   C     C_2   0.319966 0.592885 0.177460 0.468326
C39   C     C_2   0.727069 0.356271 0.208747 0.395911
C40   C     C_R   0.056813 0.594318 0.428598 -0.080529
C41   C     C_R   0.132716 0.494966 0.444503 -0.161061
C42   C     C_R   0.518523 0.468669 0.188338 -0.134453
C43   C     C_R   0.485082 0.533321 0.808593 -0.074730
C44   C     C_R   0.360832 0.590323 0.956821 -0.139064
H1    H     H_    0.309537 0.633966 0.803035 0.196345
H2    H     H_    0.786453 0.267550 0.006688 0.051237
H3    H     H_    0.690866 0.100300 0.327973 0.224225
H4    H     H_    0.557334 0.189047 0.280541 0.231107
H5    H     H_    0.670324 0.237968 0.374241 0.286932
H6    H     H_    0.505427 0.221867 0.782506 0.038352
H7    H     H_    0.470225 0.899805 0.199650 0.267057
H8    H     H_    0.440816 0.041746 0.237721 0.244123
H9    H     H_    0.602425 0.980384 0.221183 0.243379
H10   H     H_    0.442876 0.854416 0.731341 0.006795
H11   H     H_    0.876290 0.119417 0.647312 0.090241
H12   H     H_    0.650910 0.428923 0.829997 0.216651
H13   H     H_    0.194836 0.058024 0.363242 0.047554
H14   H     H_    0.308575 0.208126 0.339988 0.040305
H15   H     H_    0.059169 0.778240 0.453397 0.125790
H16   H     H_    0.262681 0.552373 0.231598 0.135108
H17   H     H_    0.766543 0.273083 0.188535 0.052612
H18   H     H_    0.459091 0.033087 0.706602 0.124832
H19   H     H_    0.512383 0.765896 0.320477 0.179965
H20   H     H_    0.843136 0.312865 0.598181 0.212848
H21   H     H_    0.274182 0.631926 0.985945 0.195026
H22   H     H_    0.897236 0.723464 0.320815 0.223181
H23   H     H_    0.768484 0.641490 0.331500 0.270306
H24   H     H_    0.802905 0.741705 0.435919 0.243821
N1    N     N_R   0.523130 0.207800 0.519340 -0.121845
N2    N     N_R   0.476870 0.792180 0.480660 -0.130317
O1    O     O_R   0.506170 0.421690 0.658830 -0.608545
O2    O     O_2   0.663204 0.253596 0.710208 -0.618050
O3    O     O_2   0.307135 0.780731 0.654492 -0.542506
O4    O     O_2   0.932980 0.014868 0.531869 -0.557203
O5    O     O_2   0.182877 0.015764 0.509668 -0.519650
O6    O     O_2   0.242605 0.346029 0.274778 -0.614248
O7    O     O_2   0.196639 0.717079 0.360123 -0.526630
O8    O     O_2   0.297164 0.691510 0.162869 -0.547382
O9    O     O_2   0.771610 0.406874 0.281995 -0.585741
O10   O     O_R   0.491330 0.609320 0.646410 -0.609648
O11   O     O_R   0.690660 0.406170 0.506210 -0.603235
O12   O     O_R   0.675810 0.593790 0.493790 -0.636352
O13   O     O_R   0.508670 0.390680 0.353590 -0.613602
O14   O     O_R   0.493830 0.578310 0.341170 -0.642908
O15   O     O_R   0.324190 0.406210 0.506210 -0.637368
O16   O     O_R   0.309340 0.593830 0.493790 -0.547597
O17   O     O_2   0.834941 0.404189 0.940825 -0.543906
Zn1   Zn    Zn3+2 0.509910 0.374720 0.508290 0.980328
Zn2   Zn    Zn3+2 0.490090 0.625280 0.491710 1.011154

loop_
_geom_bond_atom_site_label_1
_geom_bond_atom_site_label_2
_ccdc_geom_bond_type
C33   H11   S    
C17   N1    A    
C17   C29   S    
C13   C32   S    
C31   H8    S    
C20   C41   S    
C11   N2    A    
C29   H5    S    
C12   C23   A    
C28   H2    S    
C1    O1    A    
O12   Zn2   S    
C29   H3    S    
C34   C40   A    
C8    C42   A    
C37   C40   S    
C11   H19   S    
C10   C15   A    
C5    C6    A    
C13   N2    A    
C19   H18   S    
C16   O14   A    
C18   C19   A    
C7    C42   A    
O10   Zn2   S    
C21   H20   S    
C27   H24   S    
C36   O6    D    
C10   C31   S    
C1    C43   S    
C4    O11   A    
C2    C44   A    
C8    C9    A    
C20   O16   A    
C18   C30   S    
C8    C39   S    
C18   N1    A    
O13   Zn1   S    
C30   H6    S    
C27   C34   S    
C6    C44   A    
C13   C14   A    
C44   H21   S    
C32   H10   S    
C2    H1    S    
C39   H17   S    
C24   C35   S    
C29   H4    S    
C24   C25   A    
C32   O3    D    
C4    C23   S    
C38   O8    D    
C25   C26   A    
C37   O7    D    
C12   C21   A    
C16   O13   A    
C12   C26   A    
C39   O9    D    
C5    C9    A    
C3    H12   S    
C2    C43   A    
C23   C34   A    
C3    C43   A    
C20   O15   A    
C28   O17   D    
C31   H9    S    
C37   H15   S    
N1    Zn1   S    
C38   H16   S    
C40   C41   A    
C22   C24   A    
N2    Zn2   S    
O14   Zn2   S    
C16   C42   S    
O15   Zn1   S    
C15   C17   A    
C22   C33   S    
C14   C19   A    
C35   O5    D    
C31   H7    S    
C3    C5    A    
O16   Zn2   S    
C30   O2    D    
C6    C7    A    
C36   H14   S    
C35   H13   S    
C27   H22   S    
C7    C38   S    
O11   Zn1   S    
C27   H23   S    
C10   C11   A    
C25   C36   S    
O1    Zn1   S    
C33   O4    D    
C4    O12   A    
C26   C41   A    
C1    O10   A    
C14   C15   A    
C21   C22   A    
C9    C28   S    
