data_mof_unit_33314.cif
_audit_creation_date              2012-12-10T20:27:13-0500
_audit_creation_method            fapswitch 2.2
_symmetry_space_group_name_H-M    P1
_symmetry_Int_Tables_number       1
_space_group_crystal_system       triclinic
_cell_length_a                    10.820459
_cell_length_b                    10.691927
_cell_length_c                    9.871254
_cell_angle_alpha                 89.433114
_cell_angle_beta                  103.922447
_cell_angle_gamma                 90.356686
_cell_volume                      1108.40784848

loop_
_atom_site_label
_atom_site_type_symbol
_atom_type_description
_atom_site_fract_x
_atom_site_fract_y
_atom_site_fract_z
_atom_type_partial_charge
C1    C     C_R   0.504189 0.259792 0.501481 0.882109
C2    C     C_R   0.601748 0.543654 0.098148 -0.131489
C3    C     C_R   0.601971 0.543174 0.954360 -0.119500
C4    C     C_R   0.259266 0.503502 0.441640 0.938673
C5    C     C_R   0.392151 0.469001 0.900890 0.189602
C6    C     C_3   0.321912 0.347889 0.876101 -0.472803
C7    C     C_3   0.328431 0.341919 0.031583 -0.134311
C8    C     C_R   0.504878 0.739980 0.500649 0.879184
C9    C     C_R   0.741050 0.504620 0.558279 0.901675
C10   C     C_2   0.122950 0.514601 0.407717 -0.385688
C11   C     C_2   0.068296 0.550951 0.507712 -0.116780
C12   C     C_R   0.525915 0.128340 0.506781 -0.106759
C13   C     C_2   0.877226 0.524528 0.592156 -0.010171
C14   C     C_2   0.932935 0.539586 0.485975 -0.200136
C15   C     C_R   0.536726 0.062006 0.631159 0.147148
C16   C     C_R   0.541700 0.065927 0.387477 -0.219338
C17   C     C_R   0.542386 0.936555 0.386916 -0.217321
C18   C     C_R   0.527361 0.871118 0.505677 -0.105465
C19   C     C_R   0.537463 0.934263 0.630461 0.140263
C20   C     C_3   0.458135 0.923701 0.734677 -0.457855
C21   C     C_3   0.456816 0.065201 0.735202 -0.504122
C22   C     C_R   0.393200 0.466733 0.043821 0.178227
H1    H     H_    0.878489 0.534021 0.378101 0.170219
H2    H     H_    0.543919 0.115714 0.291971 0.169404
H3    H     H_    0.544767 0.888989 0.291187 0.174791
H4    H     H_    0.362825 0.881584 0.690669 0.210288
H5    H     H_    0.511795 0.882031 0.835125 0.208399
H6    H     H_    0.360561 0.104687 0.690882 0.206726
H7    H     H_    0.212582 0.313248 0.164697 0.199264
H8    H     H_    0.168835 0.436257 0.058124 0.230185
H9    H     H_    0.509803 0.104635 0.836477 0.205574
H10   H     H_    0.684656 0.577426 0.173446 0.149848
H11   H     H_    0.685131 0.576056 0.921821 0.175515
H12   H     H_    0.224330 0.359673 0.808634 0.234878
H13   H     H_    0.378926 0.274836 0.841905 0.187585
H14   H     H_    0.390093 0.265254 0.087301 0.167019
H15   H     H_    0.124822 0.579459 0.609152 0.211045
H16   H     H_    0.067582 0.488547 0.304568 0.157512
I1    I     I_    0.974733 0.535615 0.806683 -0.459982
N1    N     N_R   0.499160 0.499140 0.142600 -0.117753
N2    N     N_R   0.499160 0.499180 0.856960 -0.109777
N3    N     N_3   0.202458 0.344509 0.061949 -0.405752
O1    O     O_R   0.500020 0.316790 0.614700 -0.611496
O2    O     O_R   0.500000 0.316760 0.385350 -0.628041
O3    O     O_R   0.317820 0.500020 0.571850 -0.611870
O4    O     O_R   0.317800 0.499980 0.342510 -0.620157
O5    O     O_R   0.500000 0.683240 0.614650 -0.617564
O6    O     O_R   0.499980 0.683210 0.385300 -0.619286
O7    O     O_R   0.682200 0.500020 0.657490 -0.590385
O8    O     O_R   0.682180 0.499980 0.428150 -0.639558
Zn1   Zn    Zn3+2 0.500010 0.500020 0.653140 0.959087
Zn2   Zn    Zn3+2 0.499990 0.499980 0.346860 0.939137

loop_
_geom_bond_atom_site_label_1
_geom_bond_atom_site_label_2
_ccdc_geom_bond_type
C14   H1    S    
O8    Zn2   S    
C8    O6    A    
C6    C7    S    
C5    C22   A    
C20   H5    S    
O4    Zn2   S    
H7    N3    S    
C7    C22   S    
C7    H14   S    
C1    O2    A    
C19   C20   S    
C12   C15   A    
C15   C21   S    
C10   H16   S    
C22   N1    A    
O2    Zn2   S    
C2    C3    A    
C8    O5    A    
C17   H3    S    
C16   H2    S    
C4    O4    A    
C13   C14   D    
C6    H13   S    
C15   C19   A    
C21   H9    S    
O1    Zn1   S    
C1    C12   S    
C20   H4    S    
O3    Zn1   S    
C12   C16   A    
C21   H6    S    
N2    Zn1   S    
C17   C18   A    
C4    O3    A    
C5    C6    S    
C11   C14   S    
C8    C18   S    
C13   I1    S    
C10   C11   D    
C3    H11   S    
C4    C10   S    
C2    N1    A    
O6    Zn2   S    
C9    O7    A    
C20   C21   S    
C2    H10   S    
C18   C19   A    
C7    N3    S    
C11   H15   S    
C9    C13   S    
H8    N3    S    
O5    Zn1   S    
O7    Zn1   S    
N1    Zn2   S    
C1    O1    A    
C3    N2    A    
C9    O8    A    
C6    H12   S    
C16   C17   A    
C5    N2    A    
