data_mof_unit_47376.cif
_audit_creation_date              2012-12-10T18:12:39-0500
_audit_creation_method            fapswitch 2.2
_symmetry_space_group_name_H-M    P1
_symmetry_Int_Tables_number       1
_space_group_crystal_system       triclinic
_cell_length_a                    12.63966
_cell_length_b                    13.083951
_cell_length_c                    15.71211
_cell_angle_alpha                 91.119804
_cell_angle_beta                  102.98184
_cell_angle_gamma                 82.036997
_cell_volume                      2507.40992803

loop_
_atom_site_label
_atom_site_type_symbol
_atom_type_description
_atom_site_fract_x
_atom_site_fract_y
_atom_site_fract_z
_atom_type_partial_charge
C1    C     C_R   0.438227 0.691731 0.490556 0.957792
C2    C     C_3   0.503565 0.498098 0.917967 0.170803
C3    C     C_3   0.453194 0.417355 0.017145 -0.143740
C4    C     C_3   0.498109 0.497936 0.082260 0.171826
C5    C     C_3   0.558821 0.409512 0.981813 -0.163269
C6    C     C_3   0.603725 0.490102 0.048716 -0.165353
C7    C     C_1   0.505324 0.498307 0.827223 -0.026665
C8    C     C_1   0.496052 0.498117 0.172966 -0.039982
C9    C     C_R   0.707212 0.064866 0.626266 0.471968
C10   C     C_R   0.598542 0.199407 0.528402 -0.130715
C11   C     C_R   0.301519 0.839421 0.420443 0.373063
C12   C     C_R   0.501793 0.498918 0.662010 0.944206
C13   C     C_R   0.275877 0.944446 0.402545 -0.153330
C14   C     C_R   0.348742 0.011277 0.440161 -0.203341
C15   C     C_R   0.447473 0.974648 0.500699 0.065828
C16   C     C_R   0.461650 0.873046 0.532434 -0.096488
C17   C     C_R   0.531545 0.036039 0.531161 -0.007246
C18   C     C_R   0.622216 0.001319 0.601385 -0.107157
C19   C     C_R   0.619627 0.908597 0.645706 0.340620
C20   C     C_R   0.537956 0.846485 0.612163 0.295178
C21   C     C_R   0.527228 0.131576 0.491974 -0.183908
C22   C     C_R   0.691850 0.164993 0.592170 -0.249864
C23   C     C_R   0.561333 0.308508 0.510297 0.878779
C24   C     C_R   0.396802 0.802292 0.484310 -0.159019
C25   C     C_R   0.086425 0.346883 0.378661 -0.320315
C26   C     C_R   0.798894 0.631563 0.601947 0.039210
C27   C     C_R   0.902918 0.661004 0.623575 -0.196347
C28   C     C_R   0.984865 0.610991 0.585428 -0.183010
C29   C     C_R   0.962700 0.530672 0.525339 0.037254
C30   C     C_R   0.855046 0.503559 0.505723 0.225236
C31   C     C_R   0.042113 0.476960 0.483479 -0.007110
C32   C     C_R   0.011336 0.398768 0.422576 0.117256
C33   C     C_R   0.905625 0.373064 0.405422 -0.234540
C34   C     C_R   0.498686 0.499636 0.338045 0.905454
C35   C     C_R   0.828855 0.424454 0.446863 -0.185119
C36   C     C_R   0.151227 0.497393 0.499021 -0.073254
C37   C     C_R   0.191896 0.371646 0.395367 0.531258
C38   C     C_3   0.442867 0.586519 0.018400 -0.143254
C39   C     C_3   0.548482 0.578682 0.983079 -0.124872
C40   C     C_1   0.504808 0.498550 0.751687 -0.099775
C41   C     C_1   0.496151 0.498641 0.248446 -0.121399
C42   C     C_3   0.397962 0.505940 0.951518 -0.150556
H1    H     H_    0.587551 0.644548 0.967019 0.178595
H2    H     H_    0.465017 0.158327 0.435112 0.192443
H3    H     H_    0.324026 0.091484 0.422035 0.186082
H4    H     H_    0.201761 0.974097 0.355523 0.188412
H5    H     H_    0.881963 0.312892 0.359491 0.162028
H6    H     H_    0.063198 0.288008 0.331260 0.181628
H7    H     H_    0.182294 0.554212 0.544875 0.153066
H8    H     H_    0.395309 0.658809 0.035440 0.164048
H9    H     H_    0.064008 0.637013 0.603901 0.158538
H10   H     H_    0.749225 0.400939 0.431264 0.209255
H11   H     H_    0.687790 0.483598 0.090626 0.157522
H12   H     H_    0.606372 0.337230 0.964752 0.161166
H13   H     H_    0.414101 0.351492 0.033167 0.163224
H14   H     H_    0.313890 0.512447 0.909620 0.156943
H15   H     H_    0.751021 0.216855 0.617501 0.193385
N1    N     N_R   0.222180 0.444680 0.455580 -0.127306
N2    N     N_R   0.776980 0.554790 0.543960 -0.141842
O1    O     O_R   0.366730 0.627160 0.478790 -0.562597
O2    O     O_R   0.544830 0.662520 0.507160 -0.610344
O3    O     O_R   0.410960 0.482330 0.609040 -0.629332
O4    O     O_R   0.589060 0.517690 0.637410 -0.584698
O5    O     O_R   0.455170 0.337480 0.492840 -0.574627
O6    O     O_R   0.633270 0.372840 0.521210 -0.650521
O7    O     O_R   0.410940 0.482310 0.362590 -0.536214
O8    O     O_R   0.589040 0.517670 0.390960 -0.647079
Zn1   Zn    Zn3+2 0.381080 0.476390 0.481050 1.041060
Zn2   Zn    Zn3+2 0.618920 0.523610 0.518950 0.963755
Cl1   Cl    Cl    0.213835 0.758711 0.357363 -0.581724
Cl2   Cl    Cl    0.515976 0.749217 0.680475 -0.588033
Cl3   Cl    Cl    0.283166 0.307826 0.336297 -0.633553
H16   H     H_    0.734915 0.670117 0.631352 0.195263
H17   H     H_    0.919891 0.722554 0.669569 0.209525
Cl4   Cl    Cl    0.707004 0.872669 0.748583 -0.479095
Cl5   Cl    Cl    0.836673 0.025818 0.695370 -0.525076

loop_
_geom_bond_atom_site_label_1
_geom_bond_atom_site_label_2
_ccdc_geom_bond_type
O7    Zn1   S    
C3    C42   S    
C19   C20   A    
C4    C8    S    
C34   O7    A    
C22   H15   S    
C11   Cl1   S    
C10   C22   A    
C26   C27   A    
C30   C35   A    
O5    Zn1   S    
C28   C29   A    
C38   C42   S    
C36   N1    A    
C5    C6    S    
C28   H9    S    
C9    C22   A    
C15   C16   A    
C11   C24   A    
C26   H16   S    
C18   C19   A    
C2    C7    S    
C42   H14   S    
C3    H13   S    
C2    C39   S    
O4    Zn2   S    
C7    C40   T    
C20   Cl2   S    
C9    Cl5   S    
C27   H17   S    
C26   N2    A    
C37   N1    A    
C25   C37   A    
C25   C32   A    
C16   C24   A    
C13   C14   A    
C34   C41   S    
C14   H3    S    
C10   C21   A    
C38   C39   S    
C5    H12   S    
C8    C41   T    
C4    C6    S    
C1    O1    A    
C12   O4    A    
C39   H1    S    
C17   C21   A    
O8    Zn2   S    
C12   C40   S    
C29   C30   A    
C21   H2    S    
C12   O3    A    
C31   C32   A    
C14   C15   A    
C16   C20   A    
C30   N2    A    
C17   C18   A    
C25   H6    S    
N2    Zn2   S    
N1    Zn1   S    
C23   O5    A    
C4    C38   S    
C33   H5    S    
C2    C5    S    
C6    H11   S    
C3    C4    S    
C35   H10   S    
O2    Zn2   S    
C15   C17   A    
C6    C39   S    
C3    C5    S    
C1    O2    A    
C34   O8    A    
C38   H8    S    
C10   C23   S    
O3    Zn1   S    
C32   C33   A    
C23   O6    A    
C19   Cl4   S    
C29   C31   A    
C11   C13   A    
C13   H4    S    
C2    C42   S    
O6    Zn2   S    
C33   C35   A    
C9    C18   A    
O1    Zn1   S    
C1    C24   S    
C37   Cl3   S    
C27   C28   A    
C31   C36   A    
C36   H7    S    
