data_mof_unit_41385.cif
_audit_creation_date              2012-12-10T21:29:45-0500
_audit_creation_method            fapswitch 2.2
_symmetry_space_group_name_H-M    P1
_symmetry_Int_Tables_number       1
_space_group_crystal_system       triclinic
_cell_length_a                    10.652042
_cell_length_b                    16.054786
_cell_length_c                    16.707395
_cell_angle_alpha                 88.147891
_cell_angle_beta                  91.24636
_cell_angle_gamma                 92.427272
_cell_volume                      2852.58680047

loop_
_atom_site_label
_atom_site_type_symbol
_atom_type_description
_atom_site_fract_x
_atom_site_fract_y
_atom_site_fract_z
_atom_type_partial_charge
C1    C     C_R   0.501573 0.489434 0.653092 0.932080
C2    C     C_R   0.429190 0.547676 0.096710 0.124737
C3    C     C_R   0.612251 0.485842 0.866923 -0.053127
C4    C     C_R   0.510740 0.604314 0.137571 -0.048589
C5    C     C_R   0.601862 0.462325 0.786109 0.074372
C6    C     C_R   0.547753 0.584192 0.217004 0.079592
C7    C     C_R   0.506104 0.765697 0.441615 -0.062284
C8    C     C_R   0.569633 0.238201 0.533711 -0.033950
C9    C     C_R   0.506774 0.853021 0.445227 -0.263456
C10   C     C_R   0.568125 0.150916 0.530250 -0.279600
C11   C     C_R   0.519507 0.891222 0.519941 0.328349
C12   C     C_R   0.500000 0.510463 0.346259 0.981897
C13   C     C_R   0.478210 0.109019 0.481057 0.328690
C14   C     C_R   0.533076 0.839726 0.588579 -0.295526
C15   C     C_R   0.392616 0.157108 0.436810 -0.295516
C16   C     C_R   0.735766 0.501279 0.482798 0.914394
C17   C     C_R   0.257747 0.500373 0.496288 0.902697
C18   C     C_R   0.529536 0.752765 0.582434 0.006152
C19   C     C_R   0.396417 0.244122 0.442870 -0.017096
C20   C     C_R   0.866536 0.348261 0.433563 0.044016
C21   C     C_R   0.136649 0.643941 0.408932 0.043848
C22   C     C_R   0.912961 0.274108 0.466417 -0.261431
C23   C     C_R   0.496258 0.486899 0.739788 -0.127916
C24   C     C_R   0.082854 0.721746 0.401180 -0.231215
C25   C     C_R   0.019074 0.276682 0.516423 -0.146690
C26   C     C_R   0.954770 0.727646 0.410754 -0.140469
C27   C     C_R   0.087072 0.351915 0.526474 -0.147202
C28   C     C_R   0.880559 0.655725 0.425505 -0.145626
C29   C     C_R   0.047490 0.426395 0.487452 0.032041
C30   C     C_R   0.935751 0.578042 0.443267 0.053288
C31   C     C_R   0.925851 0.425846 0.455068 0.097032
C32   C     C_R   0.067483 0.574575 0.443917 0.091540
C33   C     C_R   0.122792 0.501276 0.478276 -0.206265
C34   C     C_R   0.484871 0.517192 0.258665 -0.077938
C35   C     C_R   0.864907 0.502283 0.455415 -0.195432
C36   C     C_2   0.765101 0.342154 0.371572 0.441622
C37   C     C_2   0.240532 0.631747 0.354874 0.443011
C38   C     C_3   0.331364 0.389709 0.262780 -0.800987
C39   C     C_3   0.281806 0.550772 0.725082 -0.847830
C40   C     C_3   0.273372 0.424363 0.091610 -0.835559
C41   C     C_3   0.337841 0.633559 0.875669 -0.838126
C42   C     C_2   0.717809 0.459173 0.921087 0.430156
C43   C     C_2   0.552434 0.684545 0.096284 0.428352
C44   C     C_3   0.702776 0.411781 0.750215 -0.777853
C45   C     C_R   0.401090 0.532715 0.772960 0.105994
C46   C     C_3   0.662287 0.628134 0.254466 -0.730147
C47   C     C_R   0.395285 0.463873 0.218585 0.179144
C48   C     C_R   0.419968 0.564894 0.849320 0.203996
C49   C     C_R   0.367360 0.480092 0.136952 0.193158
C50   C     C_R   0.519998 0.535439 0.898488 0.117264
H1    H     H_    0.911211 0.786549 0.398408 0.151711
H2    H     H_    0.136351 0.775666 0.377612 0.135340
H3    H     H_    0.168058 0.350508 0.566369 0.165714
H4    H     H_    0.780874 0.662702 0.418261 0.169615
H5    H     H_    0.639434 0.270286 0.570805 0.140408
H6    H     H_    0.498626 0.737259 0.384045 0.134331
H7    H     H_    0.709572 0.284342 0.365472 0.052727
H8    H     H_    0.308122 0.682153 0.341189 0.048576
H9    H     H_    0.284173 0.410217 0.316858 0.269564
H10   H     H_    0.257844 0.355492 0.227892 0.226696
H11   H     H_    0.402701 0.343634 0.279957 0.232908
H12   H     H_    0.051841 0.219789 0.544745 0.150324
H13   H     H_    0.288641 0.614787 0.697911 0.245742
H14   H     H_    0.263963 0.505688 0.676721 0.217650
H15   H     H_    0.198850 0.544543 0.764261 0.251148
H16   H     H_    0.258381 0.444053 0.028053 0.256234
H17   H     H_    0.306141 0.359595 0.092238 0.233290
H18   H     H_    0.179947 0.425389 0.119685 0.248821
H19   H     H_    0.385980 0.672462 0.921623 0.236614
H20   H     H_    0.317234 0.677554 0.824953 0.232172
H21   H     H_    0.248092 0.606165 0.899290 0.253752
H22   H     H_    0.704079 0.452072 0.985149 0.089038
H23   H     H_    0.637663 0.116979 0.564674 0.157773
H24   H     H_    0.537195 0.694138 0.032432 0.085108
H25   H     H_    0.679432 0.389923 0.689483 0.220419
H26   H     H_    0.791758 0.450082 0.746066 0.265186
H27   H     H_    0.717811 0.354772 0.788009 0.254401
H28   H     H_    0.706999 0.588201 0.301392 0.212256
H29   H     H_    0.736000 0.640993 0.209210 0.258396
H30   H     H_    0.636004 0.687362 0.280746 0.245416
H31   H     H_    0.499323 0.890031 0.390142 0.161585
H32   H     H_    0.544829 0.866856 0.646911 0.150574
H33   H     H_    0.322534 0.127212 0.398200 0.150911
H34   H     H_    0.538342 0.714230 0.636285 0.146428
H35   H     H_    0.328885 0.280574 0.409513 0.140553
H36   H     H_    0.866962 0.214414 0.453523 0.136172
N1    N     N_2   0.525857 0.547971 0.981919 -0.215024
N2    N     N_2   0.420761 0.549765 0.012664 -0.171956
N3    N     N_R   0.515300 0.716920 0.509720 -0.092064
N4    N     N_R   0.484700 0.283080 0.490280 -0.094134
N5    N     N_2   0.524117 0.979860 0.528561 -0.186685
N6    N     N_2   0.472985 0.020327 0.472424 -0.187341
O1    O     O_R   0.494530 0.422540 0.612660 -0.621232
O2    O     O_2   0.243502 0.567231 0.318821 -0.619704
O3    O     O_2   0.822217 0.447789 0.895963 -0.576081
O4    O     O_2   0.598050 0.743114 0.133355 -0.579270
O5    O     O_R   0.505470 0.577460 0.387340 -0.647844
O6    O     O_R   0.504350 0.561840 0.618900 -0.615630
O7    O     O_R   0.495650 0.438160 0.381100 -0.610100
O8    O     O_R   0.678310 0.430340 0.496890 -0.627808
O9    O     O_R   0.321690 0.569660 0.503110 -0.618747
O10   O     O_R   0.688140 0.569650 0.503130 -0.630195
O11   O     O_R   0.311860 0.430350 0.496870 -0.630488
O12   O     O_2   0.745537 0.400523 0.324951 -0.598895
Zn1   Zn    Zn3+2 0.493440 0.406980 0.495830 0.942137
Zn2   Zn    Zn3+2 0.506560 0.593020 0.504170 0.935914

loop_
_geom_bond_atom_site_label_1
_geom_bond_atom_site_label_2
_ccdc_geom_bond_type
C24   H2    S    
C46   H30   S    
N1    N2    D    
C3    C42   S    
C23   C45   A    
C27   C29   A    
C14   C18   A    
C47   C49   A    
C15   C19   A    
C39   H14   S    
O8    Zn1   S    
C30   C35   A    
C44   H27   S    
C24   C26   A    
C16   C35   S    
C46   H29   S    
C10   H23   S    
C40   C49   S    
C7    N3    A    
C29   C33   A    
C44   H26   S    
C17   O9    A    
C12   O7    A    
O1    Zn1   S    
C22   C25   A    
N3    Zn2   S    
C18   H34   S    
C2    N2    S    
C37   H8    S    
C41   H21   S    
C38   H11   S    
C43   H24   S    
C48   C50   A    
C40   H16   S    
C39   H15   S    
C17   C33   S    
C7    H6    S    
C8    H5    S    
C3    C50   A    
O7    Zn1   S    
C21   C32   A    
C42   O3    D    
C4    C6    A    
C36   H7    S    
N5    N6    D    
C46   H28   S    
C28   H4    S    
C16   O8    A    
C15   H33   S    
C3    C5    A    
C40   H17   S    
C6    C34   A    
C44   H25   S    
C2    C4    A    
C2    C49   A    
C5    C23   A    
C42   H22   S    
C43   O4    D    
C12   O5    A    
O11   Zn1   S    
C9    C11   A    
C38   C47   S    
C50   N1    S    
C38   H10   S    
O5    Zn2   S    
C16   O10   A    
C5    C44   S    
C20   C22   A    
C1    C23   S    
C13   C15   A    
C13   N6    S    
C31   C35   A    
C8    N4    A    
C14   H32   S    
C12   C34   S    
C41   H19   S    
C45   C48   A    
O9    Zn2   S    
C7    C9    A    
C6    C46   S    
C18   N3    A    
C8    C10   A    
N4    Zn1   S    
C19   H35   S    
C10   C13   A    
C1    O6    A    
C27   H3    S    
C4    C43   S    
C25   C27   A    
C39   H13   S    
C26   C28   A    
O6    Zn2   S    
C39   C45   S    
C36   O12   D    
C32   C33   A    
C28   C30   A    
C17   O11   A    
C29   C31   A    
C19   N4    A    
C26   H1    S    
C30   C32   A    
C11   C14   A    
C41   C48   S    
C37   O2    D    
O10   Zn2   S    
C25   H12   S    
C22   H36   S    
C38   H9    S    
C20   C36   S    
C11   N5    S    
C21   C37   S    
C1    O1    A    
C40   H18   S    
C21   C24   A    
C34   C47   A    
C9    H31   S    
C41   H20   S    
C20   C31   A    
