data_mof_unit_12807.cif
_audit_creation_date              2012-12-11T15:34:34-0500
_audit_creation_method            fapswitch 2.2
_symmetry_space_group_name_H-M    P1
_symmetry_Int_Tables_number       1
_space_group_crystal_system       triclinic
_cell_length_a                    15.063592
_cell_length_b                    15.079372
_cell_length_c                    34.91776
_cell_angle_alpha                 90.516745
_cell_angle_beta                  90.0099
_cell_angle_gamma                 60.038282
_cell_volume                      6871.20834828

loop_
_atom_site_label
_atom_site_type_symbol
_atom_type_description
_atom_site_fract_x
_atom_site_fract_y
_atom_site_fract_z
_atom_type_partial_charge
C1    C     C_R   0.302797 0.608100 0.555844 0.543128
C2    C     C_R   0.233080 0.713311 0.387020 -0.124993
C3    C     C_R   0.749090 0.154237 0.265621 -0.118339
C4    C     C_R   0.754142 0.148084 0.225792 -0.114501
C5    C     C_R   0.665302 0.204313 0.203855 0.032896
C6    C     C_R   0.720149 0.231498 0.348060 -0.122545
C7    C     C_R   0.705631 0.249175 0.387404 -0.127116
C8    C     C_R   0.552192 0.235401 0.383901 -0.125152
C9    C     C_R   0.738889 0.582307 0.648185 -0.123044
C10   C     C_R   0.566628 0.218038 0.344577 -0.122000
C11   C     C_R   0.648365 0.220055 0.326182 0.031780
C12   C     C_R   0.618956 0.255824 0.405378 0.022380
C13   C     C_R   0.211438 0.717066 0.348165 -0.122688
C14   C     C_R   0.086512 0.706271 0.093368 0.007642
C15   C     C_R   0.109692 0.610152 0.107485 -0.127372
C16   C     C_R   0.149694 0.579974 0.144353 -0.004758
C17   C     C_R   0.165512 0.648515 0.167395 0.017875
C18   C     C_R   0.150194 0.740618 0.151899 -0.134889
C19   C     C_R   0.111199 0.769240 0.115208 -0.128634
C20   C     C_R   0.259846 0.646436 0.226257 -0.129029
C21   C     C_R   0.172489 0.477991 0.158342 0.028110
C22   C     C_R   0.099044 0.446740 0.155077 -0.108465
C23   C     C_R   0.120330 0.351143 0.168609 -0.112821
C24   C     C_R   0.203941 0.637142 0.330632 0.030201
C25   C     C_R   0.214938 0.285924 0.185406 -0.102853
C26   C     C_R   0.288538 0.316089 0.188653 -0.116507
C27   C     C_R   0.267711 0.411524 0.175098 -0.081941
C28   C     C_R   0.565507 0.726208 0.649750 -0.123797
C29   C     C_R   0.248944 0.628698 0.408751 0.022850
C30   C     C_R   0.735903 0.025572 0.943348 0.542397
C31   C     C_R   0.745843 0.722849 0.945094 0.546047
C32   C     C_R   0.038443 0.733904 0.948392 0.539062
C33   C     C_R   0.722848 0.039238 0.052770 0.569797
C34   C     C_R   0.733482 0.734429 0.054711 0.543393
C35   C     C_R   0.657053 0.660922 0.668884 0.033395
C36   C     C_R   0.027713 0.744603 0.057816 0.542579
C37   C     C_R   0.552986 0.707526 0.611506 -0.133054
C38   C     C_R   0.672126 0.673686 0.788315 0.345327
C39   C     C_R   0.664249 0.668450 0.710753 0.344066
C40   C     C_R   0.761197 0.598321 0.849809 -0.122012
C41   C     C_R   0.778017 0.609358 0.888329 -0.129957
C42   C     C_R   0.627431 0.778484 0.889275 -0.127943
C43   C     C_R   0.610482 0.767333 0.850735 -0.118162
C44   C     C_R   0.679732 0.678885 0.830260 0.033993
C45   C     C_R   0.610756 0.588447 0.555206 0.545882
C46   C     C_R   0.267213 0.646221 0.265982 -0.118407
C47   C     C_R   0.713844 0.701306 0.907957 0.022610
C48   C     C_R   0.722864 0.073037 0.905523 0.021207
C49   C     C_R   0.632620 0.102478 0.884750 -0.123179
C50   C     C_R   0.628718 0.123169 0.845842 -0.119803
C51   C     C_R   0.714520 0.115719 0.827097 0.028301
C52   C     C_R   0.801735 0.094831 0.848352 -0.117344
C53   C     C_R   0.806014 0.073396 0.887345 -0.122004
C54   C     C_R   0.746143 0.185704 0.767330 -0.111489
C55   C     C_R   0.739905 0.196623 0.727622 -0.109851
C56   C     C_R   0.703144 0.144038 0.705119 0.026637
C57   C     C_R   0.197843 0.633264 0.288791 0.026015
C58   C     C_R   0.590434 0.300274 0.553494 0.544221
C59   C     C_R   0.676460 0.077470 0.722913 -0.115104
C60   C     C_R   0.681862 0.067311 0.762564 -0.112798
C61   C     C_R   0.714733 0.122924 0.785098 0.025205
C62   C     C_R   0.591676 0.180923 0.647776 -0.118444
C63   C     C_R   0.564592 0.217855 0.610685 -0.125433
C64   C     C_R   0.723566 0.220191 0.604205 -0.125381
C65   C     C_R   0.750816 0.182857 0.641295 -0.119852
C66   C     C_R   0.683456 0.166329 0.663882 0.032322
C67   C     C_R   0.628500 0.241498 0.589086 0.021503
C68   C     C_R   0.123088 0.617275 0.271473 -0.117011
C69   C     C_R   0.094621 0.695770 0.911845 -0.029080
C70   C     C_R   0.300462 0.610172 0.445995 0.543550
C71   C     C_R   0.135424 0.750414 0.893730 -0.058619
C72   C     C_R   0.166406 0.731312 0.855417 0.246157
C73   C     C_R   0.154458 0.656907 0.834501 0.016330
C74   C     C_R   0.122774 0.595993 0.853613 -0.152832
C75   C     C_R   0.093315 0.615022 0.892010 -0.144205
C76   C     C_R   0.227413 0.558957 0.773544 -0.115454
C77   C     C_R   0.234036 0.555333 0.733624 -0.106127
C78   C     C_R   0.173519 0.643722 0.712005 0.032108
C79   C     C_R   0.114979 0.618656 0.231737 -0.097856
C80   C     C_R   0.104437 0.734997 0.731027 -0.112142
C81   C     C_R   0.098262 0.738626 0.770880 -0.102819
C82   C     C_R   0.607910 0.589717 0.445274 0.542540
C83   C     C_R   0.161053 0.651177 0.792372 0.013611
C84   C     C_R   0.193777 0.723117 0.652595 -0.116806
C85   C     C_R   0.223537 0.715374 0.614349 -0.124933
C86   C     C_R   0.236349 0.548986 0.609598 -0.126931
C87   C     C_R   0.206443 0.556838 0.647869 -0.119917
C88   C     C_R   0.188470 0.642343 0.670089 0.033092
C89   C     C_R   0.248966 0.626502 0.592898 0.020873
C90   C     C_R   0.182860 0.633976 0.208912 0.025126
C91   C     C_R   0.691883 0.718135 0.090491 0.021893
C92   C     C_R   0.605033 0.799376 0.108078 -0.128007
C93   C     C_R   0.578188 0.789967 0.145467 -0.122598
C94   C     C_R   0.587693 0.303231 0.443662 0.542906
C95   C     C_R   0.637594 0.699173 0.165799 0.032014
C96   C     C_R   0.719935 0.615655 0.147183 -0.120313
C97   C     C_R   0.746688 0.624966 0.109889 -0.125705
C98   C     C_R   0.634753 0.603680 0.223538 -0.120363
C99   C     C_R   0.634727 0.594021 0.263175 -0.118924
C100  C     C_R   0.620826 0.675031 0.287287 0.026854
C101  C     C_R   0.210075 0.557460 0.352905 -0.121790
C102  C     C_R   0.602567 0.767444 0.271192 -0.117472
C103  C     C_R   0.603379 0.776901 0.231495 -0.114977
C104  C     C_R   0.621565 0.694323 0.207318 0.028474
C105  C     C_R   0.549626 0.735222 0.353034 -0.122309
C106  C     C_R   0.631857 0.623300 0.591830 0.022378
C107  C     C_R   0.548033 0.715613 0.391942 -0.126731
C108  C     C_R   0.705214 0.553179 0.384020 -0.125511
C109  C     C_R   0.706216 0.572454 0.345137 -0.122163
C110  C     C_R   0.626535 0.661855 0.329131 0.030517
C111  C     C_R   0.623751 0.622577 0.407484 0.022410
C112  C     C_R   0.232735 0.553069 0.391784 -0.126843
C113  C     C_R   0.698040 0.103457 0.087720 0.060374
C114  C     C_R   0.766915 0.132797 0.102743 0.238802
C115  C     C_R   0.751472 0.173158 0.140178 -0.115949
C116  C     C_R   0.668589 0.184977 0.162314 -0.001412
C117  C     C_R   0.595429 0.165294 0.145758 -0.138204
C118  C     C_R   0.726431 0.563705 0.609996 -0.130576
C119  C     C_R   0.609874 0.125164 0.108829 -0.173340
C120  C     C_R   0.572071 0.269681 0.222329 -0.119464
C121  C     C_R   0.566943 0.275605 0.262166 -0.119608
C122  C     C_R   0.655059 0.216340 0.284097 0.027701
Cr1   Cr    Cr6+3 0.421670 0.426920 0.499620 1.010092
Cr2   Cr    Cr6+3 0.427030 0.651190 0.500980 1.010518
Cr3   Cr    Cr6+3 0.651280 0.421870 0.499380 1.010088
Cr4   Cr    Cr6+3 0.910810 0.908010 0.001130 1.062258
Cr5   Cr    Cr6+3 0.682800 0.909890 0.998370 1.012883
Cr6   Cr    Cr6+3 0.908370 0.682300 0.002180 1.012933
H1    H     H_    0.789026 0.498932 0.595429 0.129383
H2    H     H_    0.490839 0.233490 0.599845 0.127179
H3    H     H_    0.868614 0.089092 0.834365 0.116586
H4    H     H_    0.479347 0.755176 0.598176 0.128193
H5    H     H_    0.774827 0.236893 0.588099 0.124846
H6    H     H_    0.139082 0.811638 0.908793 0.155884
H7    H     H_    0.062412 0.571431 0.905231 0.139943
H8    H     H_    0.200949 0.494383 0.660473 0.104787
H9    H     H_    0.289008 0.484279 0.719765 0.107703
H10   H     H_    0.275719 0.490658 0.789778 0.111210
H11   H     H_    0.055846 0.803761 0.715091 0.108638
H12   H     H_    0.876631 0.050929 0.902594 0.135349
H13   H     H_    0.044890 0.809905 0.785056 0.136042
H14   H     H_    0.181063 0.789691 0.669057 0.107731
H15   H     H_    0.844847 0.548191 0.902020 0.130952
H16   H     H_    0.232488 0.776432 0.602333 0.127053
H17   H     H_    0.113835 0.538428 0.838079 0.122289
H18   H     H_    0.254820 0.479748 0.593756 0.124724
H19   H     H_    0.561063 0.872030 0.093786 0.126170
H20   H     H_    0.813862 0.560867 0.097096 0.127537
H21   H     H_    0.767378 0.515779 0.327244 0.103822
H22   H     H_    0.646465 0.522845 0.275060 0.111311
H23   H     H_    0.822886 0.170398 0.652802 0.103952
H24   H     H_    0.647210 0.539505 0.205571 0.106202
H25   H     H_    0.513359 0.854943 0.158993 0.100896
H26   H     H_    0.591604 0.830821 0.289330 0.104560
H27   H     H_    0.811098 0.531827 0.661938 0.131976
H28   H     H_    0.594490 0.847153 0.219819 0.104531
H29   H     H_    0.487615 0.804865 0.341228 0.101097
H30   H     H_    0.484268 0.770563 0.409306 0.121860
H31   H     H_    0.767833 0.545035 0.162218 0.101404
H32   H     H_    0.764726 0.480858 0.395077 0.125692
H33   H     H_    0.555167 0.104656 0.097883 0.136707
H34   H     H_    0.759578 0.249643 0.714744 0.113800
H35   H     H_    0.511721 0.206879 0.328277 0.102316
H36   H     H_    0.494011 0.326073 0.275872 0.110355
H37   H     H_    0.503013 0.314631 0.205943 0.098399
H38   H     H_    0.501438 0.788205 0.664822 0.132170
H39   H     H_    0.806452 0.191263 0.152668 0.085654
H40   H     H_    0.817875 0.107822 0.281998 0.103434
H41   H     H_    0.826645 0.095743 0.212210 0.105271
H42   H     H_    0.783947 0.233042 0.334436 0.099906
H43   H     H_    0.758476 0.264557 0.403186 0.123644
H44   H     H_    0.530878 0.173655 0.162325 0.113248
H45   H     H_    0.771754 0.229153 0.784268 0.113683
H46   H     H_    0.485015 0.239462 0.396946 0.126521
H47   H     H_    0.094220 0.559455 0.090154 0.126248
H48   H     H_    0.094796 0.843418 0.104894 0.144353
H49   H     H_    0.204920 0.780157 0.331407 0.104634
H50   H     H_    0.814892 0.528410 0.834972 0.132557
H51   H     H_    0.326595 0.656887 0.278972 0.113522
H52   H     H_    0.312680 0.658469 0.209051 0.109294
H53   H     H_    0.068952 0.607350 0.288710 0.106454
H54   H     H_    0.053508 0.611338 0.218853 0.118724
H55   H     H_    0.203962 0.495390 0.339761 0.103890
H56   H     H_    0.559900 0.141333 0.830021 0.108778
H57   H     H_    0.244147 0.487146 0.407880 0.122915
H58   H     H_    0.161810 0.793948 0.169203 0.111219
H59   H     H_    0.244517 0.773049 0.399300 0.127631
H60   H     H_    0.576230 0.850052 0.903726 0.131079
H61   H     H_    0.546257 0.830272 0.836571 0.136480
H62   H     H_    0.566997 0.103651 0.897967 0.130749
H63   H     H_    0.238930 0.757297 0.814860 0.335562
H64   H     H_    0.890334 0.142275 0.096079 0.309974
H65   H     H_    0.024865 0.496847 0.142545 0.102619
H66   H     H_    0.063298 0.327761 0.166180 0.101288
H67   H     H_    0.649608 0.034712 0.706217 0.112390
H68   H     H_    0.231209 0.212014 0.195916 0.101318
H69   H     H_    0.361716 0.265462 0.201693 0.094521
H70   H     H_    0.325785 0.433543 0.177572 0.106812
H71   H     H_    0.659531 0.016557 0.775730 0.118577
H72   H     H_    0.537708 0.169812 0.664609 0.104502
N1    N     N_R   0.748897 0.596463 0.767933 -0.237578
N2    N     N_R   0.744875 0.593725 0.729952 -0.237619
N3    N     N_R   0.587389 0.745843 0.731108 -0.237564
N4    N     N_R   0.591543 0.748726 0.769141 -0.234773
O1    O     O_R   0.502070 0.323090 0.541280 -0.520602
O2    O     O_R   0.831550 0.656950 0.958960 -0.519779
O3    O     O_R   0.998590 0.685540 0.963930 -0.499664
O4    O     O_R   0.338340 0.520690 0.539540 -0.502592
O5    O     O_R   0.008220 0.831200 0.045060 -0.501535
O6    O     O_R   0.813270 0.997930 0.038810 -0.430766
O7    O     O_R   0.657500 0.016560 0.039940 -0.539063
O8    O     O_R   0.685680 0.820940 0.038120 -0.502981
O9    O     O_R   0.822130 0.666070 0.043610 -0.518826
O10   O     O_R   0.989860 0.694000 0.042400 -0.506355
O11   O     O_3   0.833990 0.833400 0.000560 -0.247416
O12   O     O_R   0.520720 0.641670 0.461580 -0.502127
O13   O     O_R   0.324760 0.674070 0.543580 -0.520385
O14   O     O_R   0.522400 0.640310 0.540110 -0.502801
O15   O     O_R   0.675940 0.500630 0.542210 -0.519306
O16   O     O_R   0.641790 0.337020 0.538150 -0.501747
O17   O     O_R   0.500260 0.324550 0.456580 -0.520144
O18   O     O_R   0.336660 0.522040 0.461020 -0.502515
O19   O     O_R   0.322940 0.675540 0.458880 -0.520869
O20   O     O_3   0.204130 0.789305 0.839364 -0.709294
O21   O     O_3   0.850193 0.118181 0.081196 -0.688107
O22   O     O_R   0.674120 0.502090 0.457500 -0.521487
O23   O     O_R   0.640110 0.338380 0.459630 -0.503862
O24   O     O_3   0.499990 0.499990 0.499990 -0.234961
O25   O     O_R   0.017640 0.822070 0.960410 -0.521597
O26   O     O_R   0.822000 0.989470 0.960340 -0.500258
O27   O     O_R   0.666920 0.007430 0.955290 -0.520930
O28   O     O_R   0.694410 0.812480 0.959650 -0.501845

loop_
_geom_bond_atom_site_label_1
_geom_bond_atom_site_label_2
_ccdc_geom_bond_type
C87   C88   A    
C100  C110  S    
C16   C21   S    
C45   O14   A    
C7    H43   S    
C53   H12   S    
N1    N2    A    
C29   C112  A    
C35   C39   S    
C95   C96   A    
C51   C61   S    
N3    N4    A    
C119  H33   S    
C71   H6    S    
C114  C115  A    
C46   H51   S    
C20   H52   S    
C98   H24   S    
C77   C78   A    
C108  C109  A    
C101  C112  A    
C82   O22   A    
C26   C27   A    
C10   H35   S    
Cr5   O8    S    
C2    C29   A    
C54   H45   S    
C30   C48   S    
Cr4   O26   S    
C105  C110  A    
C77   H9    S    
C18   C19   A    
C39   N3    A    
C117  C119  A    
C6    H42   S    
C98   C99   A    
C78   C80   A    
C42   H60   S    
C115  C116  A    
C72   O20   S    
C116  C117  A    
Cr1   O1    S    
C24   C101  A    
C73   C74   A    
C63   H2    S    
C69   C71   A    
C26   H69   S    
C34   C91   S    
Cr5   O28   S    
C79   C90   A    
C74   H17   S    
C60   H71   S    
C36   O10   A    
C54   C55   A    
C58   O16   A    
C84   C85   A    
C105  H29   S    
C28   C35   A    
C16   C17   A    
C38   N1    A    
C120  H37   S    
C94   O17   A    
C56   C66   S    
C22   H65   S    
Cr6   O3    S    
Cr3   O24   S    
C102  H26   S    
C101  H55   S    
C3    C122  A    
C28   H38   S    
C36   O5    A    
C72   C73   A    
C105  C107  A    
C68   C79   A    
C81   H13   S    
C21   C27   A    
C59   C60   A    
C93   C95   A    
C31   C47   S    
C21   C22   A    
C106  C118  A    
C92   H19   S    
C9    C118  A    
C12   C94   S    
C7    C12   A    
C27   H70   S    
Cr6   O2    S    
C86   H18   S    
C76   C83   A    
Cr5   O27   S    
Cr2   O24   S    
C3    H40   S    
C17   C18   A    
C63   C67   A    
C49   H62   S    
C48   C53   A    
Cr1   O18   S    
Cr2   O14   S    
C68   H53   S    
C4    H41   S    
C62   C66   A    
C5    C120  A    
C51   C52   A    
C64   C67   A    
C85   H16   S    
Cr4   O25   S    
C76   C77   A    
C31   O2    A    
C113  C114  A    
C74   C75   A    
C6    C11   A    
C85   C89   A    
C86   C87   A    
C4    C5    A    
Cr1   O24   S    
C58   O1    A    
C59   H67   S    
C25   C26   A    
C121  H36   S    
C20   C90   A    
C18   H58   S    
C19   H48   S    
C13   C24   A    
C60   C61   A    
C30   O27   A    
C65   H23   S    
C109  H21   S    
C43   C44   A    
C38   C44   S    
C62   C63   A    
Cr1   O17   S    
C33   O6    A    
C103  H28   S    
C99   C100  A    
C56   C59   A    
Cr2   O19   S    
C84   H14   S    
C99   H22   S    
C8    C12   A    
C96   C97   A    
C55   C56   A    
C100  C102  A    
C70   O19   A    
C41   C47   A    
C50   C51   A    
C108  C111  A    
C113  C119  A    
C91   C97   A    
C32   O3    A    
C2    C13   A    
C9    H27   S    
C121  C122  A    
C6    C7    A    
C25   H68   S    
C34   O8    A    
C94   O23   A    
C82   O12   A    
Cr3   O15   S    
Cr5   O7    S    
C40   C41   A    
C65   C66   A    
C10   C11   A    
C5    C116  S    
Cr4   O6    S    
C45   C106  S    
C45   O15   A    
C97   H20   S    
C40   H50   S    
C11   C122  S    
C42   C43   A    
C57   C68   A    
C115  H39   S    
Cr3   O22   S    
C112  H57   S    
C107  H30   S    
C52   C53   A    
C1    O4    A    
C64   H5    S    
C29   C70   S    
Cr2   O12   S    
C78   C88   S    
Cr4   O5    S    
C32   O25   A    
H64   O21   S    
C1    C89   S    
C14   C15   A    
C52   H3    S    
C107  C111  A    
C14   C19   A    
C22   C23   A    
C50   H56   S    
C17   C90   S    
C84   C88   A    
C55   H34   S    
C80   C81   A    
C86   C89   A    
C81   C83   A    
C1    O13   A    
C37   H4    S    
C41   H15   S    
C32   C69   S    
C108  H32   S    
C54   C61   A    
C76   H10   S    
C80   H11   S    
C24   C57   S    
C33   C113  S    
C34   O9    A    
C79   H54   S    
C15   H47   S    
C82   C111  S    
C30   O26   A    
Cr6   O9    S    
C93   H25   S    
C62   H72   S    
C37   C106  A    
C46   C57   A    
C118  H1    S    
C109  C110  A    
C64   C65   A    
C95   C104  S    
C14   C36   S    
C33   O7    A    
C117  H44   S    
Cr5   O11   S    
C75   H7    S    
C28   C37   A    
C31   O28   A    
C98   C104  A    
C15   C16   A    
C23   H66   S    
C92   C93   A    
C70   O18   A    
C13   H49   S    
Cr1   O4    S    
C69   C75   A    
C8    H46   S    
C42   C47   A    
C23   C25   A    
C102  C103  A    
C2    H59   S    
Cr4   O11   S    
Cr2   O13   S    
Cr6   O11   S    
Cr3   O16   S    
C58   C67   S    
C40   C44   A    
C96   H31   S    
C71   C72   A    
C43   H61   S    
C8    C10   A    
C49   C50   A    
C48   C49   A    
C39   N2    A    
C103  C104  A    
C9    C35   A    
C120  C121  A    
C87   H8    S    
C38   N4    A    
Cr3   O23   S    
H63   O20   S    
C73   C83   S    
C20   C46   A    
C91   C92   A    
C3    C4    A    
Cr6   O10   S    
C114  O21   S    
