data_mof_unit_67919.cif
_audit_creation_date              2012-12-10T18:59:55-0500
_audit_creation_method            fapswitch 2.2
_symmetry_space_group_name_H-M    P1
_symmetry_Int_Tables_number       1
_space_group_crystal_system       triclinic
_cell_length_a                    10.688565
_cell_length_b                    10.791419
_cell_length_c                    9.836665
_cell_angle_alpha                 90.305717
_cell_angle_beta                  92.35441
_cell_angle_gamma                 93.503381
_cell_volume                      1131.49660538

loop_
_atom_site_label
_atom_site_type_symbol
_atom_type_description
_atom_site_fract_x
_atom_site_fract_y
_atom_site_fract_z
_atom_type_partial_charge
C1    C     C_R   0.508177 0.260797 0.499267 0.953708
C2    C     C_R   0.559681 0.068648 0.616293 0.367334
C3    C     C_R   0.505895 0.874157 0.500097 -0.434975
C4    C     C_R   0.524490 0.129843 0.495964 -0.456252
C5    C     C_R   0.587020 0.572845 0.076239 0.604392
C6    C     C_R   0.418018 0.421603 0.923806 0.585636
C7    C     C_R   0.583939 0.575402 0.931643 -0.328003
C8    C     C_R   0.416497 0.424381 0.068441 -0.314868
C9    C     C_R   0.259743 0.492207 0.497260 0.852732
C10   C     C_R   0.740098 0.504789 0.502650 0.910085
C11   C     C_R   0.099214 0.270052 0.072487 -0.152722
C12   C     C_R   0.500276 0.740576 0.500343 1.027166
C13   C     C_R   0.923988 0.801406 0.883077 -0.178114
C14   C     C_R   0.095991 0.358967 0.175595 -0.243252
C15   C     C_R   0.940585 0.694293 0.807874 -0.275032
C16   C     C_R   0.091871 0.322693 0.312235 0.025669
C17   C     C_R   0.905935 0.687472 0.668589 0.034382
C18   C     C_R   0.093768 0.195831 0.345500 0.566020
C19   C     C_R   0.856474 0.790567 0.602862 0.526682
C20   C     C_R   0.097091 0.107278 0.240429 -0.243219
C21   C     C_R   0.840732 0.898395 0.680977 -0.147037
C22   C     C_R   0.099691 0.144333 0.104848 -0.217585
C23   C     C_R   0.872250 0.501850 0.506669 -0.055048
C24   C     C_R   0.873726 0.903088 0.819897 -0.113669
C25   C     C_R   0.921181 0.415635 0.421318 -0.261172
C26   C     C_R   0.077932 0.577814 0.581044 -0.252854
C27   C     C_3   0.178940 0.107393 0.534333 -0.359146
C28   C     C_3   0.846488 0.892158 0.394197 -0.316049
C29   C     C_3   0.604822 0.133211 0.188965 -0.220104
C30   C     C_3   0.461232 0.883130 0.825156 -0.199845
C31   C     C_3   0.331329 0.865674 0.223991 -0.273704
C32   C     C_3   0.721467 0.199493 0.710982 -0.251832
C33   C     C_3   0.794195 0.595363 0.136278 -0.283709
C34   C     C_R   0.127160 0.493236 0.493742 -0.058788
C35   C     C_3   0.359880 0.218316 0.881309 -0.302843
C36   C     C_R   0.950107 0.584560 0.587463 0.051358
C37   C     C_R   0.048928 0.411846 0.411412 0.065566
C38   C     C_R   0.501264 0.063591 0.372823 0.362220
C39   C     C_R   0.538802 0.940922 0.621537 0.369976
C40   C     C_R   0.486213 0.935959 0.375785 0.383971
H1    H     H_    0.100158 0.075338 0.024583 0.141582
H2    H     H_    0.803505 0.979008 0.634644 0.143789
H3    H     H_    0.859083 0.352103 0.360029 0.135241
H4    H     H_    0.139992 0.642528 0.640888 0.148685
H5    H     H_    0.257490 0.179551 0.544884 0.183855
H6    H     H_    0.207428 0.026363 0.475185 0.141017
H7    H     H_    0.157597 0.073582 0.637584 0.190190
H8    H     H_    0.938622 0.938935 0.426267 0.180274
H9    H     H_    0.769273 0.955016 0.406687 0.160681
H10   H     H_    0.849489 0.870763 0.284023 0.204190
H11   H     H_    0.677690 0.182243 0.257340 0.131439
H12   H     H_    0.861383 0.985779 0.879088 0.145785
H13   H     H_    0.596292 0.189089 0.095195 0.166926
H14   H     H_    0.635579 0.040530 0.159412 0.189443
H15   H     H_    0.476965 0.822195 0.913869 0.197173
H16   H     H_    0.372885 0.847382 0.770418 0.116850
H17   H     H_    0.450894 0.977888 0.865418 0.165583
H18   H     H_    0.310607 0.800545 0.137211 0.167697
H19   H     H_    0.300368 0.957779 0.192045 0.186164
H20   H     H_    0.276778 0.829628 0.311105 0.124742
H21   H     H_    0.713624 0.296635 0.744901 0.204021
H22   H     H_    0.751903 0.199955 0.603849 0.127261
H23   H     H_    0.649775 0.636420 0.879260 0.212543
H24   H     H_    0.796869 0.162390 0.776295 0.157528
H25   H     H_    0.826349 0.607315 0.031644 0.135960
H26   H     H_    0.864170 0.645128 0.206537 0.207463
H27   H     H_    0.792284 0.494892 0.161787 0.156415
H28   H     H_    0.317408 0.190162 0.977867 0.172768
H29   H     H_    0.461696 0.203947 0.890475 0.211122
H30   H     H_    0.318005 0.156056 0.799666 0.170985
H31   H     H_    0.350481 0.364592 0.121421 0.206757
H32   H     H_    0.098902 0.298515 0.967144 0.184603
H33   H     H_    0.951983 0.806346 0.990093 0.138082
H34   H     H_    0.089381 0.455611 0.148460 0.147661
H35   H     H_    0.984373 0.617482 0.857176 0.152553
H36   H     H_    0.092105 0.009219 0.263230 0.118383
N1    N     N_R   0.499970 0.499970 0.857200 -0.142112
N2    N     N_R   0.500030 0.500030 0.142800 -0.143467
O1    O     O_R   0.499990 0.316750 0.614620 -0.568218
O2    O     O_3   0.822779 0.780113 0.464581 -0.623711
O3    O     O_3   0.486918 0.122586 0.248964 -0.574232
O4    O     O_3   0.565742 0.880735 0.742316 -0.555112
O5    O     O_3   0.461641 0.872005 0.254099 -0.538127
O6    O     O_3   0.606818 0.130907 0.733191 -0.597685
O7    O     O_3   0.676286 0.645208 0.150945 -0.540694
O8    O     O_3   0.335844 0.341959 0.848345 -0.584263
O9    O     O_R   0.500010 0.683250 0.385380 -0.523067
O10   O     O_R   0.499990 0.316780 0.385290 -0.583416
O11   O     O_R   0.500010 0.683220 0.614710 -0.595738
O12   O     O_R   0.316760 0.500000 0.614660 -0.581058
O13   O     O_R   0.683240 0.500000 0.385340 -0.590851
O14   O     O_R   0.316760 0.500020 0.385330 -0.640421
O15   O     O_R   0.683240 0.499980 0.614670 -0.657274
O16   O     O_3   0.070813 0.158240 0.476857 -0.638504
Zn1   Zn    Zn3+2 0.500000 0.499980 0.653120 0.991727
Zn2   Zn    Zn3+2 0.500000 0.500020 0.346880 1.013742

loop_
_geom_bond_atom_site_label_1
_geom_bond_atom_site_label_2
_ccdc_geom_bond_type
C24   H12   S    
C15   H35   S    
O10   Zn2   S    
C30   O4    S    
C34   C37   A    
C2    O6    S    
C25   H3    S    
C33   H25   S    
O12   Zn1   S    
O1    Zn1   S    
C14   H34   S    
C31   H18   S    
C19   C21   A    
C32   H21   S    
C35   O8    S    
C22   H1    S    
C29   H14   S    
C30   H17   S    
O14   Zn2   S    
C31   O5    S    
C20   H36   S    
C31   H19   S    
C33   O7    S    
C3    C12   S    
C25   C37   A    
O13   Zn2   S    
C28   H10   S    
C2    C39   A    
C26   C34   A    
C35   H30   S    
N2    Zn2   S    
C17   C36   S    
C16   C37   S    
C7    N1    A    
C5    O7    S    
C27   H5    S    
C1    O10   A    
C3    C39   A    
O15   Zn1   S    
C8    N2    A    
C40   O5    S    
C9    O14   A    
C33   H26   S    
C32   O6    S    
C26   H4    S    
C12   O11   A    
C32   H24   S    
C11   C14   A    
C5    C7    A    
C11   H32   S    
C6    N1    A    
C6    C8    A    
C10   O15   A    
C30   H16   S    
N1    Zn1   S    
C13   C24   A    
C31   H20   S    
O11   Zn1   S    
C2    C4    A    
C29   O3    S    
C28   H9    S    
O9    Zn2   S    
C7    H23   S    
C27   H6    S    
C26   C36   A    
C20   C22   A    
C10   O13   A    
C13   C15   A    
C38   O3    S    
C9    C34   S    
C1    O1    A    
C14   C16   A    
C33   H27   S    
C29   H11   S    
C27   H7    S    
C15   C17   A    
C28   H8    S    
C8    H31   S    
C12   O9    A    
C39   O4    S    
C13   H33   S    
C9    O12   A    
C3    C40   A    
C10   C23   S    
C30   H15   S    
C11   C22   A    
C6    O8    S    
C1    C4    S    
C32   H22   S    
C38   C40   A    
C29   H13   S    
C35   H28   S    
C18   O16   S    
C17   C19   A    
C18   C20   A    
C23   C25   A    
C19   O2    S    
C28   O2    S    
C21   H2    S    
C35   H29   S    
C16   C18   A    
C23   C36   A    
C21   C24   A    
C27   O16   S    
C5    N2    A    
C4    C38   A    
