data_mof_unit_43556.cif
_audit_creation_date              2012-10-26T17:12:33-0400
_audit_creation_method            fapswitch 2.2
_symmetry_space_group_name_H-M    P1
_symmetry_Int_Tables_number       1
_space_group_crystal_system       triclinic
_cell_length_a                    16.913752
_cell_length_b                    16.740488
_cell_length_c                    16.915102
_cell_angle_alpha                 68.570125
_cell_angle_beta                  68.457612
_cell_angle_gamma                 68.357152
_cell_volume                      3991.66830597

loop_
_atom_site_label
_atom_site_type_symbol
_atom_type_description
_atom_site_fract_x
_atom_site_fract_y
_atom_site_fract_z
_atom_type_partial_charge
C1    C     C_R   0.027558 0.828807 0.564904 0.855430
C2    C     C_R   0.983165 0.169642 0.431343 0.840194
C3    C     C_R   0.829106 0.565695 0.025452 0.871667
C4    C     C_R   0.169487 0.430844 0.983144 0.848803
C5    C     C_R   0.569351 0.012749 0.831976 0.848691
C6    C     C_R   0.433628 0.976828 0.170147 0.856612
C7    C     C_R   0.436128 0.171907 0.969940 0.834049
C8    C     C_R   0.564907 0.828679 0.028186 0.851563
C9    C     C_R   0.970518 0.435943 0.171936 0.879071
C10   C     C_R   0.016607 0.568682 0.830603 0.840980
C11   C     C_R   0.170768 0.976089 0.433550 0.863639
C12   C     C_R   0.831579 0.014014 0.568949 0.837179
C13   C     C_R   0.487870 0.956412 0.735557 0.190050
C14   C     C_R   0.543237 0.922392 0.296333 0.208124
C15   C     C_R   0.077154 0.700928 0.455451 0.209811
C16   C     C_R   0.051482 0.268371 0.497649 0.198746
C17   C     C_R   0.713047 0.460852 0.032139 0.227873
C18   C     C_R   0.269101 0.487956 0.059582 0.182641
C19   C     C_R   0.302702 0.915427 0.538078 0.187359
C20   C     C_R   0.735117 0.961589 0.485685 0.191395
C21   C     C_R   0.542772 0.311070 0.911024 0.182457
C22   C     C_R   0.457160 0.698755 0.079733 0.209474
C23   C     C_R   0.939824 0.545799 0.297467 0.205847
C24   C     C_R   0.976350 0.485524 0.723131 0.196783
C25   C     C_R   0.554933 0.979256 0.554517 0.042653
C26   C     C_R   0.459243 0.964072 0.457134 0.048311
C27   C     C_R   0.023366 0.546234 0.541347 0.053403
C28   C     C_R   0.004772 0.452477 0.444136 0.056928
C29   C     C_R   0.544632 0.548960 0.013756 0.052933
C30   C     C_R   0.450938 0.454890 0.987952 0.047661
C31   C     C_R   0.596129 0.973945 0.466210 0.036925
C32   C     C_R   0.420834 0.959139 0.547842 0.042904
C33   C     C_R   0.014669 0.459004 0.581093 0.027033
C34   C     C_R   0.001463 0.543539 0.407862 0.033133
C35   C     C_R   0.451707 0.579835 0.031914 0.032556
C36   C     C_R   0.543771 0.427512 0.965627 0.024031
C37   C     C_R   0.549004 0.962881 0.418462 0.027163
C38   C     C_R   0.467947 0.969866 0.596058 0.031705
C39   C     C_R   0.404378 0.528721 0.024814 0.029159
C40   C     C_R   0.589354 0.469254 0.987190 0.029032
C41   C     C_R   0.019119 0.408539 0.528239 0.025866
C42   C     C_R   0.024528 0.585955 0.451799 0.027770
C43   C     C_R   0.434346 0.963069 0.686692 -0.217784
C44   C     C_R   0.591164 0.935945 0.339579 -0.223594
C45   C     C_R   0.054685 0.662491 0.408571 -0.197672
C46   C     C_R   0.043971 0.315481 0.553978 -0.217921
C47   C     C_R   0.674238 0.425436 0.997957 -0.194351
C48   C     C_R   0.312990 0.541849 0.062856 -0.211998
C49   C     C_R   0.343754 0.928594 0.588683 -0.188767
C50   C     C_R   0.685988 0.971122 0.431543 -0.221932
C51   C     C_R   0.588400 0.358719 0.922836 -0.214984
C52   C     C_R   0.409321 0.655013 0.065952 -0.199248
C53   C     C_R   0.967187 0.590201 0.334580 -0.199516
C54   C     C_R   0.991881 0.428651 0.673018 -0.235529
C55   C     C_R   0.565875 0.984550 0.693940 -0.038831
C56   C     C_R   0.450428 0.951597 0.320883 -0.051495
C57   C     C_R   0.050777 0.676215 0.549184 -0.031480
C58   C     C_R   0.010762 0.311112 0.427807 -0.034094
C59   C     C_R   0.681806 0.552694 0.030363 -0.032582
C60   C     C_R   0.311185 0.428870 0.005820 -0.037337
C61   C     C_R   0.323543 0.952449 0.447242 -0.003429
C62   C     C_R   0.693429 0.986763 0.565185 -0.041258
C63   C     C_R   0.450341 0.327263 0.947568 -0.037205
C64   C     C_R   0.550297 0.676610 0.048800 -0.028126
C65   C     C_R   0.963740 0.451359 0.319963 -0.022110
C66   C     C_R   0.009034 0.561682 0.684853 -0.037817
C67   C     C_R   0.611219 0.001503 0.740370 -0.208325
C68   C     C_R   0.396613 0.966877 0.266308 -0.195693
C69   C     C_R   0.041342 0.730920 0.601574 -0.185813
C70   C     C_R   0.984467 0.265068 0.389979 -0.221610
C71   C     C_R   0.732600 0.602436 0.035504 -0.184241
C72   C     C_R   0.264594 0.389525 0.982155 -0.200922
C73   C     C_R   0.267667 0.967515 0.395020 -0.173679
C74   C     C_R   0.739875 0.003005 0.610739 -0.219778
C75   C     C_R   0.400982 0.271437 0.952939 -0.217625
C76   C     C_R   0.601754 0.730438 0.043083 -0.162456
C77   C     C_R   0.958336 0.401543 0.270187 -0.196104
C78   C     C_R   0.018541 0.608139 0.735288 -0.192558
C79   C     C_R   0.698813 0.007174 0.698797 0.372112
C80   C     C_R   0.303847 0.984575 0.302733 0.400702
C81   C     C_R   0.030973 0.694235 0.693878 0.337848
C82   C     C_R   0.954205 0.312818 0.313204 0.367895
C83   C     C_R   0.692777 0.692600 0.039914 0.358520
C84   C     C_R   0.310830 0.310292 0.955155 0.350629
C85   C     C_R   0.603594 0.987383 0.603597 0.030442
C86   C     C_R   0.409936 0.960369 0.407037 0.023801
C87   C     C_R   0.028989 0.594384 0.591884 0.023696
C88   C     C_R   0.992772 0.404949 0.397146 0.031868
C89   C     C_R   0.593078 0.594280 0.028073 0.016852
C90   C     C_R   0.404247 0.404592 0.978789 0.019181
Cu1   Cu    Cu3+1 0.995180 0.995180 0.424630 1.036855
Cu2   Cu    Cu3+1 0.004820 0.004820 0.575370 0.986726
Cu3   Cu    Cu3+1 0.995180 0.424630 0.995180 1.035837
Cu4   Cu    Cu3+1 0.004820 0.575370 0.004820 0.960130
Cu5   Cu    Cu3+1 0.424630 0.995180 0.995180 1.035680
Cu6   Cu    Cu3+1 0.575370 0.004820 0.004820 1.001117
H1    H     H_    0.371141 0.950126 0.723542 0.156646
H2    H     H_    0.661936 0.912997 0.316651 0.163501
H3    H     H_    0.070503 0.686090 0.337342 0.165815
H4    H     H_    0.071386 0.280369 0.610029 0.164093
H5    H     H_    0.703495 0.356473 0.996230 0.167397
H6    H     H_    0.276210 0.584981 0.105960 0.163973
H7    H     H_    0.323835 0.899851 0.658836 0.154270
H8    H     H_    0.722947 0.962570 0.366712 0.157438
H9    H     H_    0.659081 0.344548 0.893923 0.174593
H10   H     H_    0.338499 0.679283 0.086628 0.157607
H11   H     H_    0.950651 0.662329 0.313858 0.168454
H12   H     H_    0.969613 0.368715 0.705116 0.169692
O1    O     O_R   0.124540 0.978640 0.385460 -0.521503
O2    O     O_R   0.875460 0.021360 0.614540 -0.542573
O3    O     O_R   0.978640 0.385460 0.124540 -0.536181
O4    O     O_R   0.021360 0.614540 0.875460 -0.566502
O5    O     O_R   0.385460 0.124540 0.978640 -0.547360
O6    O     O_R   0.614540 0.875460 0.021360 -0.587318
O7    O     O_R   0.614540 0.021360 0.875460 -0.533477
O8    O     O_R   0.385460 0.978640 0.124540 -0.517149
O9    O     O_R   0.875460 0.614540 0.021360 -0.575962
O10   O     O_R   0.124540 0.385460 0.978640 -0.541393
O11   O     O_R   0.021360 0.875460 0.614540 -0.572330
O12   O     O_R   0.978640 0.124540 0.385460 -0.543958
O13   O     O_R   0.013780 0.867370 0.487190 -0.555264
O14   O     O_R   0.986220 0.132630 0.512810 -0.573316
O15   O     O_R   0.867370 0.487190 0.013780 -0.556528
O16   O     O_R   0.132630 0.512810 0.986220 -0.584770
O17   O     O_R   0.487190 0.013780 0.867370 -0.586446
O18   O     O_R   0.512810 0.986220 0.132630 -0.587472
O19   O     O_R   0.512810 0.132630 0.986220 -0.571243
O20   O     O_R   0.487190 0.867370 0.013780 -0.558589
O21   O     O_R   0.986220 0.512810 0.132630 -0.568006
O22   O     O_R   0.013780 0.487190 0.867370 -0.579634
O23   O     O_R   0.132630 0.986220 0.512810 -0.578865
O24   O     O_R   0.867370 0.013780 0.487190 -0.593758
I1    I     I_    0.483500 0.842591 0.844881 -0.372626
I2    I     I_    0.610810 0.815459 0.236451 -0.228451
I3    I     I_    0.178452 0.766478 0.380946 -0.255794
I4    I     I_    0.168160 0.163020 0.487340 -0.409702
I5    I     I_    0.771291 0.359430 0.129885 -0.363732
I6    I     I_    0.168241 0.459854 0.175063 -0.401264
I7    I     I_    0.289426 0.785458 0.574659 -0.407496
I8    I     I_    0.843322 0.846066 0.479575 -0.356228
I9    I     I_    0.615569 0.238229 0.814514 -0.320284
I10   I     I_    0.386287 0.765113 0.181528 -0.240893
I11   I     I_    0.831262 0.623021 0.243573 -0.298112
I12   I     I_    0.857497 0.485617 0.825082 -0.366411
O25   O     O_3   0.746404 0.013898 0.746100 -0.526891
C91   C     C_3   0.795355 0.927137 0.781884 0.153099
H13   H     H_    0.832540 0.887939 0.732147 0.145368
H14   H     H_    0.750479 0.889244 0.835381 0.092297
C92   C     C_3   0.862177 0.934990 0.816941 -0.729014
H15   H     H_    0.827787 0.967260 0.871901 0.223411
H16   H     H_    0.904100 0.867571 0.840081 0.209924
H17   H     H_    0.905498 0.975249 0.764334 0.265892
O26   O     O_3   0.248408 0.019471 0.247904 -0.530382
C93   C     C_3   0.226247 0.113595 0.227014 0.055547
H18   H     H_    0.286349 0.138166 0.191647 0.129027
H19   H     H_    0.191403 0.137587 0.287617 0.141367
C94   C     C_3   0.164902 0.153866 0.167160 -0.621069
H20   H     H_    0.103358 0.132124 0.201134 0.252840
H21   H     H_    0.147527 0.227784 0.150331 0.206286
H22   H     H_    0.198001 0.132306 0.105351 0.260378
O27   O     O_3   0.018261 0.747232 0.746940 -0.572473
C95   C     C_3   0.100829 0.745011 0.751826 0.159155
H23   H     H_    0.130427 0.790041 0.691904 0.188749
H24   H     H_    0.147298 0.676744 0.760086 0.139971
C96   C     C_3   0.088464 0.780441 0.827996 -0.773608
H25   H     H_    0.054981 0.852939 0.813774 0.221429
H26   H     H_    0.048876 0.745426 0.890640 0.257613
H27   H     H_    0.154006 0.770459 0.836078 0.207786
O28   O     O_3   0.911411 0.275865 0.285704 -0.543541
C97   C     C_3   0.821342 0.293130 0.335030 0.108188
H28   H     H_    0.783924 0.358782 0.300945 0.178901
H29   H     H_    0.810504 0.295435 0.403555 0.112476
C98   C     C_3   0.782751 0.220345 0.343447 -0.699607
H30   H     H_    0.803389 0.160444 0.395271 0.242482
H31   H     H_    0.709504 0.243714 0.362386 0.203658
H32   H     H_    0.805922 0.201403 0.280703 0.273823
O29   O     O_3   0.733325 0.733584 0.067547 -0.513444
C99   C     C_3   0.790696 0.782762 0.997958 0.169216
H33   H     H_    0.756409 0.852343 0.973150 0.161929
H34   H     H_    0.823700 0.755789 0.939245 0.117629
C100  C     C_3   0.857465 0.790528 0.034447 -0.706430
H35   H     H_    0.821952 0.816687 0.093446 0.258571
H36   H     H_    0.895497 0.837444 0.985146 0.155937
H37   H     H_    0.905609 0.725907 0.053051 0.268706
O30   O     O_3   0.266065 0.267433 0.936966 -0.550935
C101  C     C_3   0.285671 0.285088 0.844544 0.112817
H38   H     H_    0.357060 0.255771 0.815809 0.142787
H39   H     H_    0.267744 0.358237 0.812986 0.127928
C102  C     C_3   0.232311 0.243366 0.823478 -0.734371
H40   H     H_    0.160599 0.272274 0.850227 0.250584
H41   H     H_    0.247225 0.256705 0.750934 0.197580
H42   H     H_    0.249420 0.170139 0.853167 0.245893

loop_
_geom_bond_atom_site_label_1
_geom_bond_atom_site_label_2
_ccdc_geom_bond_type
C68   C80   A    
C40   C47   A    
C14   C56   A    
C25   C31   A    
C94   H20   S    
C47   H5    S    
C12   C74   S    
C11   O1    A    
C29   C40   A    
O28   C97   S    
C3    C71   S    
Cu5   Cu6   S    
C34   C42   A    
C4    C72   S    
C5    C67   S    
C4    O10   A    
C12   O2    A    
C99   H33   S    
C10   C78   S    
C80   O26   S    
C79   O25   S    
C96   H25   S    
C100  H35   S    
C27   C33   A    
C26   C32   A    
Cu3   Cu4   S    
C63   C75   A    
C22   C52   A    
Cu2   O11   S    
C19   C61   A    
C95   H23   S    
C92   H16   S    
C1    O11   A    
Cu4   O9    S    
C75   C84   A    
C98   H32   S    
C15   I3    S    
C97   H28   S    
C60   C72   A    
C24   C54   A    
C95   C96   S    
C28   C41   A    
C8    C76   S    
C55   C67   A    
C4    O16   A    
C102  H41   S    
C59   C89   A    
C18   I6    S    
C19   C49   A    
C20   C50   A    
C3    O9    A    
C44   H2    S    
Cu5   O20   S    
C8    O20   A    
C71   C83   A    
C21   C63   A    
C30   C36   A    
C28   C88   A    
C41   C46   A    
Cu6   O7    S    
C10   O4    A    
C32   C38   A    
C93   H19   S    
Cu1   Cu2   S    
C30   C90   A    
C13   C43   A    
C2    O14   A    
C82   O28   S    
C28   C34   A    
C18   C48   A    
C94   H21   S    
C98   H30   S    
C5    O7    A    
C15   C57   A    
C23   I11   S    
C84   O30   S    
C81   O27   S    
C64   C89   A    
C76   C83   A    
C29   C89   A    
C3    O15   A    
C23   C53   A    
C91   H14   S    
C100  H36   S    
C66   C78   A    
C62   C85   A    
Cu4   O21   S    
C65   C77   A    
C83   O29   S    
Cu3   O15   S    
C36   C40   A    
Cu2   O23   S    
C67   C79   A    
C60   C90   A    
C6    O18   A    
C93   C94   S    
C45   H3    S    
C92   H17   S    
C16   C46   A    
C66   C87   A    
C2    O12   A    
Cu1   O1    S    
C58   C70   A    
C7    C75   S    
Cu1   O24   S    
C14   I2    S    
C61   C73   A    
C56   C68   A    
C32   C49   A    
C22   C64   A    
C1    C69   S    
C31   C37   A    
Cu6   O19   S    
C11   O23   A    
C42   C45   A    
C55   C85   A    
C102  H42   S    
C35   C39   A    
C9    O3    A    
C10   O22   A    
Cu2   O14   S    
C25   C38   A    
C91   C92   S    
C53   H11   S    
C56   C86   A    
Cu5   O8    S    
C26   C86   A    
C48   H6    S    
C6    C68   S    
C22   I10   S    
C25   C85   A    
C64   C76   A    
Cu6   O18   S    
C16   C58   A    
C24   I12   S    
C27   C87   A    
C36   C51   A    
C6    O8    A    
C93   H18   S    
C72   C84   A    
C98   H31   S    
Cu3   O3    S    
C18   C60   A    
Cu5   O17   S    
C17   C59   A    
O29   C99   S    
C94   H22   S    
C9    O21   A    
C74   C79   A    
C11   C73   S    
Cu3   O10   S    
C15   C45   A    
C31   C50   A    
C101  H39   S    
Cu3   O22   S    
C16   I4    S    
O25   C91   S    
C21   C51   A    
C57   C69   A    
C65   C88   A    
C14   C44   A    
C91   H13   S    
C100  H37   S    
C33   C54   A    
C46   H4    S    
C7    O5    A    
C12   O24   A    
C13   I1    S    
C17   C47   A    
C13   C55   A    
C58   C88   A    
C49   H7    S    
C99   H34   S    
C26   C37   A    
C8    O6    A    
C96   H27   S    
C29   C35   A    
C54   H12   S    
C33   C41   A    
C23   C65   A    
C101  C102  S    
C9    C77   S    
C21   I9    S    
C38   C43   A    
Cu2   O2    S    
C95   H24   S    
O27   C95   S    
C92   H15   S    
C27   C42   A    
C20   I8    S    
O30   C101  S    
C97   H29   S    
C77   C82   A    
Cu5   O5    S    
C63   C90   A    
Cu4   O4    S    
C73   C80   A    
C30   C39   A    
C78   C81   A    
C20   C62   A    
C102  H40   S    
C70   C82   A    
C1    O13   A    
C51   H9    S    
Cu6   O6    S    
C99   C100  S    
C69   C81   A    
C61   C86   A    
C52   H10   S    
C37   C44   A    
C57   C87   A    
C24   C66   A    
C34   C53   A    
C96   H26   S    
C43   H1    S    
Cu1   O13   S    
C5    O17   A    
C35   C52   A    
Cu1   O12   S    
C62   C74   A    
C17   I5    S    
C7    O19   A    
C101  H38   S    
C2    C70   S    
C19   I7    S    
C50   H8    S    
C59   C71   A    
C39   C48   A    
O26   C93   S    
C97   C98   S    
Cu4   O16   S    
