data_mof_unit_29895.cif
_audit_creation_date              2013-03-05T16:20:08-0500
_audit_creation_method            fapswitch 2.2
_symmetry_space_group_name_H-M    P1
_symmetry_Int_Tables_number       1
_space_group_crystal_system       triclinic
_cell_length_a                    21.940914
_cell_length_b                    22.747618
_cell_length_c                    14.987131
_cell_angle_alpha                 90.986613
_cell_angle_beta                  91.059468
_cell_angle_gamma                 89.879466
_cell_volume                      7477.7305085

loop_
_atom_site_label
_atom_site_type_symbol
_atom_site_description
_atom_site_fract_x
_atom_site_fract_y
_atom_site_fract_z
_atom_type_partial_charge
O1    O     O_R   0.061440 0.438650 0.574260 -0.608678
O2    O     O_R   0.061440 0.438650 0.425740 -0.607575
O3    O     O_R   0.061440 0.561350 0.574260 -0.608483
O4    O     O_R   0.061440 0.561350 0.425740 -0.621445
O5    O     O_R   0.561440 0.938650 0.574260 -0.608690
O6    O     O_R   0.561440 0.938650 0.425740 -0.607559
O7    O     O_R   0.561440 0.061350 0.574260 -0.608478
O8    O     O_R   0.561440 0.061350 0.425740 -0.621445
C1    C     C_R   0.081383 0.419552 0.499881 0.905024
C2    C     C_R   0.081497 0.580211 0.501067 0.899876
C3    C     C_R   0.581382 0.919551 0.499881 0.905032
C4    C     C_R   0.581498 0.080211 0.501066 0.899875
O9    O     O_R   0.938580 0.438650 0.574260 -0.605266
O10   O     O_R   0.938580 0.438650 0.425740 -0.597030
O11   O     O_R   0.938580 0.561350 0.574260 -0.608784
O12   O     O_R   0.938580 0.561350 0.425740 -0.609477
O13   O     O_R   0.438580 0.938650 0.574260 -0.605268
O14   O     O_R   0.438580 0.938650 0.425740 -0.597031
O15   O     O_R   0.438580 0.061350 0.574260 -0.608783
O16   O     O_R   0.438580 0.061350 0.425740 -0.609485
C5    C     C_R   0.919595 0.418141 0.499177 0.907247
C6    C     C_R   0.921877 0.583452 0.499973 0.902075
C7    C     C_R   0.419592 0.918143 0.499177 0.907245
C8    C     C_R   0.421879 0.083453 0.499974 0.902079
Zn1   Zn    Zn3+2 0.000010 0.500000 0.599130 0.982301
Zn2   Zn    Zn3+2 0.000010 0.500000 0.400870 0.982899
Zn3   Zn    Zn3+2 0.500010 1.000000 0.599130 0.982297
Zn4   Zn    Zn3+2 0.500010 0.000000 0.400870 0.982901
C9    C     C_3   0.794936 0.257614 0.611158 -0.037999
C10   C     C_3   0.826981 0.221288 0.440899 -0.019210
C11   C     C_3   0.815226 0.767686 0.588647 -0.031692
C12   C     C_3   0.808338 0.755895 0.403984 -0.019163
C13   C     C_3   0.294923 0.757627 0.611159 -0.037999
C14   C     C_3   0.326975 0.721295 0.440908 -0.019209
C15   C     C_3   0.315188 0.267649 0.588678 -0.031674
C16   C     C_3   0.308348 0.255897 0.404010 -0.019148
C17   C     C_3   0.273097 0.672773 0.445900 -0.228000
C18   C     C_3   0.242776 0.706672 0.603299 -0.204204
C19   C     C_3   0.252665 0.303554 0.404727 -0.227640
C20   C     C_3   0.256506 0.310407 0.581405 -0.188096
C21   C     C_3   0.773102 0.172767 0.445890 -0.228001
C22   C     C_3   0.742788 0.206659 0.603298 -0.204203
C23   C     C_3   0.752648 0.803545 0.404712 -0.227648
C24   C     C_3   0.756538 0.810440 0.581379 -0.188085
H1    H     H_    0.266990 0.665743 0.611772 0.114978
H2    H     H_    0.288025 0.636965 0.487909 0.123629
H3    H     H_    0.272050 0.353990 0.562721 0.124630
H4    H     H_    0.271885 0.347729 0.413430 0.121361
H5    H     H_    0.767002 0.165729 0.611765 0.114974
H6    H     H_    0.788029 0.136956 0.487894 0.123629
H7    H     H_    0.772073 0.854014 0.562647 0.124631
H8    H     H_    0.771866 0.847723 0.413386 0.121358
C25   C     C_1   0.129376 0.620257 0.503470 -0.181125
C26   C     C_1   0.127820 0.377685 0.498797 -0.188183
C27   C     C_1   0.629379 0.120254 0.503469 -0.181126
C28   C     C_1   0.627818 0.877683 0.498797 -0.188202
C29   C     C_3   0.803280 0.279435 0.504338 0.121350
C30   C     C_3   0.804739 0.721172 0.500380 0.119213
C31   C     C_3   0.303270 0.779443 0.504338 0.121352
C32   C     C_3   0.304721 0.221156 0.500388 0.119223
C33   C     C_3   0.218823 0.697088 0.504078 0.161590
C34   C     C_3   0.215371 0.298272 0.494658 0.155621
C35   C     C_3   0.718830 0.197081 0.504076 0.161594
C36   C     C_3   0.715376 0.798277 0.494667 0.155644
C37   C     C_3   0.192929 0.754370 0.464043 -0.475567
C38   C     C_3   0.188315 0.236468 0.494892 -0.469006
C39   C     C_3   0.692937 0.254366 0.464048 -0.475561
C40   C     C_3   0.688328 0.736468 0.494957 -0.469062
C41   C     C_3   0.738594 0.307406 0.465740 0.043836
C42   C     C_3   0.737181 0.686737 0.510088 0.045031
C43   C     C_3   0.238585 0.807411 0.465731 0.043832
C44   C     C_3   0.237153 0.186723 0.510042 0.045017
C45   C     C_1   0.170265 0.654087 0.504163 -0.073661
C46   C     C_1   0.167289 0.342126 0.496089 -0.086360
C47   C     C_1   0.670270 0.154082 0.504161 -0.073664
C48   C     C_1   0.667289 0.842124 0.496093 -0.086355
C49   C     C_1   0.846808 0.327521 0.501147 -0.148090
C50   C     C_1   0.850023 0.674574 0.499946 -0.129642
C51   C     C_1   0.346797 0.827529 0.501144 -0.148092
C52   C     C_1   0.350010 0.174563 0.499956 -0.129654
C53   C     C_1   0.880152 0.369150 0.498515 -0.267734
C54   C     C_1   0.884541 0.633742 0.499603 -0.268234
C55   C     C_1   0.380144 0.869156 0.498513 -0.267734
C56   C     C_1   0.384537 0.133738 0.499608 -0.268281
H9    H     H_    0.148100 0.766252 0.490357 0.144677
H10   H     H_    0.178677 0.743002 0.395192 0.151928
H11   H     H_    0.147937 0.235211 0.535885 0.136625
H12   H     H_    0.165799 0.229388 0.429577 0.159150
H13   H     H_    0.648108 0.266247 0.490363 0.144662
H14   H     H_    0.678684 0.243002 0.395196 0.151931
H15   H     H_    0.647960 0.735195 0.535973 0.136613
H16   H     H_    0.665799 0.729375 0.429659 0.159178
C57   C     C_3   0.056504 0.469020 0.052574 -0.410524
C58   C     C_3   0.053968 0.464628 0.948659 -0.433647
C59   C     C_3   0.996382 0.561889 0.052902 -0.428141
C60   C     C_3   0.000863 0.561329 0.949431 -0.415206
C61   C     C_3   0.556506 0.969025 0.052574 -0.410515
C62   C     C_3   0.553974 0.964641 0.948659 -0.433642
C63   C     C_3   0.496375 0.061889 0.052902 -0.428148
C64   C     C_3   0.500843 0.061330 0.949430 -0.415203
H17   H     H_    0.096470 0.483624 0.921888 0.173112
H18   H     H_    0.097122 0.495267 0.074092 0.172788
H19   H     H_    0.044990 0.581287 0.931168 0.172619
H20   H     H_    0.034833 0.587999 0.082397 0.166487
H21   H     H_    0.596472 0.983653 0.921895 0.173099
H22   H     H_    0.597122 0.995271 0.074100 0.172779
H23   H     H_    0.544962 0.081301 0.931156 0.172615
H24   H     H_    0.534828 0.087998 0.082388 0.166491
H25   H     H_    0.953885 0.584743 0.072311 0.194209
H26   H     H_    0.964637 0.589668 0.920372 0.183400
H27   H     H_    0.063409 0.424677 0.080567 0.195491
H28   H     H_    0.052968 0.417647 0.927271 0.198437
H29   H     H_    0.453880 0.084742 0.072321 0.194199
H30   H     H_    0.464604 0.089658 0.920380 0.183405
H31   H     H_    0.563411 0.924681 0.080558 0.195506
H32   H     H_    0.552992 0.917661 0.927262 0.198416
N1    N     N_1   0.999850 0.500000 0.731150 -0.076014
N2    N     N_1   0.999850 0.500000 0.268850 -0.073313
N3    N     N_1   0.499850 1.000000 0.731150 -0.076014
N4    N     N_1   0.499850 0.000000 0.268850 -0.073311
C65   C     C_3   0.997917 0.498496 0.089861 0.155158
C66   C     C_3   0.997560 0.497682 0.909994 0.153829
C67   C     C_3   0.497917 0.998496 0.089861 0.155151
C68   C     C_3   0.497557 0.997682 0.909994 0.153828
C69   C     C_3   0.938251 0.466934 0.944313 0.284991
C70   C     C_3   0.940444 0.464229 0.051980 0.271454
C71   C     C_3   0.438256 0.966921 0.944315 0.285005
C72   C     C_3   0.440447 0.964224 0.051982 0.271454
C73   C     C_1   0.999378 0.499126 0.809198 0.097423
C74   C     C_1   0.999785 0.499795 0.190775 0.096366
C75   C     C_1   0.499376 0.999126 0.809198 0.097405
C76   C     C_1   0.499785 0.999796 0.190775 0.096370
C77   C     C_R   0.857811 0.236287 0.654385 0.107374
C78   C     C_R   0.869528 0.179163 0.689358 -0.152318
C79   C     C_R   0.923369 0.166263 0.736619 -0.111366
C80   C     C_R   0.967728 0.208966 0.751032 -0.104866
C81   C     C_R   0.958172 0.265140 0.719098 -0.098089
C82   C     C_R   0.904109 0.278878 0.673418 -0.082993
H33   H     H_    0.839827 0.142136 0.681833 0.099116
H34   H     H_    0.930950 0.122376 0.761450 0.115223
H35   H     H_    0.009557 0.198482 0.786795 0.112211
H36   H     H_    0.992489 0.298640 0.730642 0.137337
H37   H     H_    0.898424 0.324167 0.655907 0.158291
C83   C     C_R   0.889949 0.195230 0.480101 0.114862
C84   C     C_R   0.941880 0.232356 0.492854 -0.145905
C85   C     C_R   0.997606 0.212098 0.526981 -0.142130
C86   C     C_R   0.004541 0.153679 0.549956 -0.106956
C87   C     C_R   0.956907 0.114780 0.534276 -0.126798
C88   C     C_R   0.901097 0.134501 0.499506 -0.177371
H38   H     H_    0.942143 0.276785 0.470531 0.137885
H39   H     H_    0.035438 0.242216 0.535983 0.109783
H40   H     H_    0.046766 0.138364 0.579815 0.112812
H41   H     H_    0.962944 0.068804 0.550009 0.113932
H42   H     H_    0.869150 0.099356 0.489401 0.103492
C89   C     C_R   0.873466 0.812439 0.595273 0.078956
C90   C     C_R   0.879350 0.863383 0.541120 -0.117477
C91   C     C_R   0.928213 0.902542 0.548102 -0.105839
C92   C     C_R   0.972673 0.895636 0.613452 -0.117970
C93   C     C_R   0.966312 0.851548 0.674971 -0.162371
C94   C     C_R   0.916673 0.813116 0.668891 -0.183000
H43   H     H_    0.846530 0.875596 0.491737 0.108540
H44   H     H_    0.930865 0.939115 0.503012 0.118346
H45   H     H_    0.009949 0.926537 0.619276 0.118481
H46   H     H_    0.998417 0.848740 0.730509 0.123352
H47   H     H_    0.912068 0.787768 0.728025 0.147446
C95   C     C_R   0.871850 0.789360 0.389334 0.100369
C96   C     C_R   0.875738 0.841280 0.337121 -0.190590
C97   C     C_R   0.931226 0.867190 0.316128 -0.141777
C98   C     C_R   0.985726 0.843631 0.347166 -0.107221
C99   C     C_R   0.984835 0.794740 0.400979 -0.124732
C100  C     C_R   0.929557 0.768415 0.422229 -0.135919
H48   H     H_    0.836816 0.866535 0.316871 0.117723
H49   H     H_    0.931703 0.906781 0.277056 0.118971
H50   H     H_    0.028503 0.864206 0.331351 0.111357
H51   H     H_    0.027322 0.777150 0.427179 0.112051
H52   H     H_    0.934929 0.732204 0.465550 0.136251
C101  C     C_R   0.357795 0.736301 0.654394 0.107377
C102  C     C_R   0.369510 0.679179 0.689375 -0.152324
C103  C     C_R   0.423348 0.666281 0.736644 -0.111380
C104  C     C_R   0.467709 0.708983 0.751053 -0.104830
C105  C     C_R   0.458155 0.765153 0.719107 -0.098080
C106  C     C_R   0.404093 0.778891 0.673426 -0.082991
H53   H     H_    0.339811 0.642151 0.681849 0.099117
H54   H     H_    0.430927 0.622396 0.761482 0.115229
H55   H     H_    0.509536 0.698500 0.786821 0.112226
H56   H     H_    0.492474 0.798653 0.730644 0.137364
H57   H     H_    0.398409 0.824179 0.655910 0.158295
C107  C     C_R   0.389944 0.695240 0.480117 0.114866
C108  C     C_R   0.441873 0.732366 0.492873 -0.145932
C109  C     C_R   0.497598 0.712111 0.527012 -0.142113
C110  C     C_R   0.504531 0.653695 0.549998 -0.106913
C111  C     C_R   0.456899 0.614794 0.534312 -0.126817
C112  C     C_R   0.401092 0.634513 0.499529 -0.177365
H58   H     H_    0.442137 0.776793 0.470547 0.137882
H59   H     H_    0.535429 0.742230 0.536017 0.109803
H60   H     H_    0.546751 0.638384 0.579877 0.112805
H61   H     H_    0.462936 0.568820 0.550051 0.113928
H62   H     H_    0.369146 0.599368 0.489421 0.103494
C113  C     C_R   0.373425 0.312406 0.595366 0.078928
C114  C     C_R   0.379335 0.363351 0.541223 -0.117476
C115  C     C_R   0.428199 0.402508 0.548252 -0.105814
C116  C     C_R   0.472628 0.395604 0.613649 -0.117982
C117  C     C_R   0.466229 0.351521 0.675169 -0.162382
C118  C     C_R   0.416589 0.313092 0.669040 -0.183018
H63   H     H_    0.346529 0.375568 0.491822 0.108550
H64   H     H_    0.430873 0.439082 0.503165 0.118351
H65   H     H_    0.509903 0.426504 0.619512 0.118441
H66   H     H_    0.498303 0.348718 0.730746 0.123369
H67   H     H_    0.411942 0.287752 0.728176 0.147479
C119  C     C_R   0.371867 0.289360 0.389398 0.100354
C120  C     C_R   0.375768 0.341284 0.337198 -0.190602
C121  C     C_R   0.431262 0.367192 0.316233 -0.141778
C122  C     C_R   0.485756 0.343628 0.347290 -0.107233
C123  C     C_R   0.484852 0.294736 0.401099 -0.124756
C124  C     C_R   0.429566 0.268413 0.422323 -0.135914
H68   H     H_    0.336851 0.366543 0.316938 0.117736
H69   H     H_    0.431749 0.406784 0.277166 0.118975
H70   H     H_    0.528537 0.364203 0.331495 0.111361
H71   H     H_    0.527332 0.277146 0.427319 0.112049
H72   H     H_    0.434928 0.232206 0.465651 0.136256
C125  C     C_R   0.838795 0.233628 0.337391 0.102304
C126  C     C_R   0.898045 0.232517 0.298723 -0.182045
C127  C     C_R   0.906797 0.236288 0.206853 -0.109693
C128  C     C_R   0.857396 0.240248 0.148301 -0.076058
C129  C     C_R   0.798998 0.240116 0.181547 -0.132404
C130  C     C_R   0.790063 0.236477 0.273274 -0.080656
H73   H     H_    0.939681 0.226151 0.335238 0.140181
H74   H     H_    0.952523 0.235123 0.180850 0.144281
H75   H     H_    0.864388 0.242884 0.077173 0.154278
H76   H     H_    0.760133 0.242603 0.136188 0.129639
H77   H     H_    0.743555 0.235637 0.292575 0.134342
C131  C     C_R   0.776898 0.303850 0.686636 0.095372
C132  C     C_R   0.767027 0.283609 0.774599 -0.103102
C133  C     C_R   0.750717 0.321088 0.844908 -0.119263
C134  C     C_R   0.749629 0.381283 0.832544 -0.079700
C135  C     C_R   0.769474 0.403314 0.752383 -0.061335
C136  C     C_R   0.786308 0.365339 0.682754 -0.126850
H78   H     H_    0.776744 0.238976 0.791654 0.138309
H79   H     H_    0.741453 0.303447 0.909896 0.132517
H80   H     H_    0.737443 0.410862 0.886707 0.150314
H81   H     H_    0.772952 0.449970 0.744576 0.143768
H82   H     H_    0.806547 0.385766 0.627314 0.152718
C137  C     C_R   0.803687 0.711114 0.321493 0.102173
C138  C     C_R   0.857054 0.685994 0.283584 -0.160169
C139  C     C_R   0.855230 0.654594 0.202781 -0.119632
C140  C     C_R   0.800086 0.644743 0.158083 -0.102204
C141  C     C_R   0.746336 0.663371 0.196808 -0.131076
C142  C     C_R   0.747953 0.694778 0.277670 -0.093847
H83   H     H_    0.901298 0.690072 0.314792 0.149905
H84   H     H_    0.897059 0.638046 0.174872 0.138696
H85   H     H_    0.798798 0.621319 0.094642 0.165434
H86   H     H_    0.703016 0.653307 0.164392 0.135161
H87   H     H_    0.704441 0.705127 0.304816 0.140200
C143  C     C_R   0.822817 0.728676 0.676330 0.116132
C144  C     C_R   0.876135 0.692872 0.686652 -0.149343
C145  C     C_R   0.890508 0.663631 0.765458 -0.133535
C146  C     C_R   0.852659 0.668880 0.838227 -0.100979
C147  C     C_R   0.799311 0.701282 0.830890 -0.129268
C148  C     C_R   0.784180 0.729731 0.751551 -0.109608
H88   H     H_    0.911946 0.693902 0.638437 0.143149
H89   H     H_    0.932664 0.639038 0.771150 0.141784
H90   H     H_    0.864492 0.647850 0.900365 0.149622
H91   H     H_    0.768644 0.703601 0.886644 0.130779
H92   H     H_    0.740008 0.748450 0.751656 0.158832
C149  C     C_R   0.338793 0.733632 0.337399 0.102305
C150  C     C_R   0.398045 0.732528 0.298738 -0.182039
C151  C     C_R   0.406801 0.736294 0.206867 -0.109696
C152  C     C_R   0.357401 0.740244 0.148309 -0.076054
C153  C     C_R   0.299002 0.740108 0.181551 -0.132401
C154  C     C_R   0.290063 0.736474 0.273278 -0.080658
H93   H     H_    0.439682 0.726173 0.335257 0.140174
H94   H     H_    0.452528 0.735133 0.180868 0.144274
H95   H     H_    0.364395 0.742877 0.077182 0.154278
H96   H     H_    0.260138 0.742589 0.136188 0.129640
H97   H     H_    0.243554 0.735631 0.292575 0.134343
C155  C     C_R   0.276882 0.803867 0.686629 0.095362
C156  C     C_R   0.267006 0.783631 0.774594 -0.103110
C157  C     C_R   0.250693 0.821114 0.844896 -0.119257
C158  C     C_R   0.249605 0.881309 0.832522 -0.079701
C159  C     C_R   0.269452 0.903335 0.752359 -0.061338
C160  C     C_R   0.286290 0.865355 0.682738 -0.126846
H98   H     H_    0.276720 0.738999 0.791656 0.138315
H99   H     H_    0.241426 0.803477 0.909885 0.132520
H100  H     H_    0.237416 0.910891 0.886679 0.150307
H101  H     H_    0.272926 0.949991 0.744541 0.143761
H102  H     H_    0.306528 0.885781 0.627296 0.152714
C161  C     C_R   0.303713 0.211123 0.321508 0.102193
C162  C     C_R   0.357087 0.185994 0.283637 -0.160127
C163  C     C_R   0.355283 0.154595 0.202833 -0.119644
C164  C     C_R   0.300150 0.144759 0.158092 -0.102209
C165  C     C_R   0.246392 0.163396 0.196779 -0.131050
C166  C     C_R   0.247988 0.194799 0.277645 -0.093858
H103  H     H_    0.401323 0.190063 0.314880 0.149906
H104  H     H_    0.397118 0.138037 0.174957 0.138681
H105  H     H_    0.298878 0.121339 0.094647 0.165417
H106  H     H_    0.203079 0.153343 0.164330 0.135163
H107  H     H_    0.204469 0.205155 0.304761 0.140196
C167  C     C_R   0.322761 0.228615 0.676338 0.116051
C168  C     C_R   0.376095 0.192837 0.686687 -0.149330
C169  C     C_R   0.390461 0.163600 0.765502 -0.133570
C170  C     C_R   0.352581 0.168821 0.838244 -0.101049
C171  C     C_R   0.299203 0.201177 0.830862 -0.129239
C172  C     C_R   0.284079 0.229619 0.751513 -0.109486
H108  H     H_    0.411919 0.193886 0.638491 0.143169
H109  H     H_    0.432632 0.139033 0.771223 0.141766
H110  H     H_    0.364408 0.147799 0.900391 0.149647
H111  H     H_    0.268505 0.203462 0.886585 0.130801
H112  H     H_    0.239880 0.248285 0.751557 0.158848
C173  C     C_R   0.258486 0.633973 0.360493 0.125414
C174  C     C_R   0.305683 0.599987 0.321998 -0.147541
C175  C     C_R   0.294918 0.563169 0.247803 -0.133701
C176  C     C_R   0.236924 0.559577 0.208958 -0.113150
C177  C     C_R   0.189837 0.593689 0.243212 -0.132624
C178  C     C_R   0.200315 0.630770 0.317239 -0.134452
H113  H     H_    0.351896 0.602987 0.346570 0.129009
H114  H     H_    0.331939 0.537705 0.219916 0.119658
H115  H     H_    0.228675 0.531045 0.151461 0.116485
H116  H     H_    0.144987 0.591784 0.211884 0.121043
H117  H     H_    0.162245 0.657219 0.337598 0.124950
C179  C     C_R   0.194186 0.697434 0.677693 0.146157
C180  C     C_R   0.207937 0.659362 0.749557 -0.187997
C181  C     C_R   0.166295 0.649602 0.817203 -0.126729
C182  C     C_R   0.108439 0.674672 0.812632 -0.114403
C183  C     C_R   0.091217 0.706911 0.738363 -0.142170
C184  C     C_R   0.132792 0.716658 0.670743 -0.111453
H118  H     H_    0.251997 0.638487 0.755599 0.108643
H119  H     H_    0.178976 0.622407 0.873162 0.119072
H120  H     H_    0.076267 0.667739 0.865141 0.107898
H121  H     H_    0.044911 0.723110 0.731840 0.120774
H122  H     H_    0.114035 0.735279 0.611282 0.105156
C185  C     C_R   0.214720 0.312471 0.314410 0.122381
C186  C     C_R   0.149702 0.311322 0.307765 -0.139510
C187  C     C_R   0.118391 0.321480 0.227386 -0.129032
C188  C     C_R   0.150161 0.331400 0.149856 -0.123941
C189  C     C_R   0.213373 0.330071 0.152136 -0.145704
C190  C     C_R   0.244988 0.320091 0.232223 -0.153707
H123  H     H_    0.120782 0.300624 0.362024 0.128745
H124  H     H_    0.069042 0.320514 0.225077 0.154461
H125  H     H_    0.125857 0.337991 0.087342 0.130155
H126  H     H_    0.238175 0.334877 0.090901 0.126482
H127  H     H_    0.292863 0.312370 0.225471 0.141564
C191  C     C_R   0.227132 0.333393 0.668143 0.115791
C192  C     C_R   0.262840 0.368014 0.728384 -0.170232
C193  C     C_R   0.239186 0.388722 0.808908 -0.139455
C194  C     C_R   0.179225 0.376125 0.830729 -0.122624
C195  C     C_R   0.142435 0.343558 0.771444 -0.139781
C196  C     C_R   0.165822 0.322499 0.690793 -0.133076
H128  H     H_    0.309425 0.378832 0.713419 0.144133
H129  H     H_    0.267538 0.414496 0.854595 0.123205
H130  H     H_    0.161340 0.391673 0.893625 0.116443
H131  H     H_    0.095715 0.334279 0.788270 0.131623
H132  H     H_    0.135613 0.297383 0.647811 0.118131
C197  C     C_R   0.758485 0.133972 0.360479 0.125419
C198  C     C_R   0.805679 0.099983 0.321979 -0.147537
C199  C     C_R   0.794911 0.063171 0.247777 -0.133697
C200  C     C_R   0.736915 0.059587 0.208930 -0.113157
C201  C     C_R   0.689832 0.093701 0.243192 -0.132621
C202  C     C_R   0.700312 0.130775 0.317227 -0.134448
H133  H     H_    0.851892 0.102976 0.346552 0.129001
H134  H     H_    0.831929 0.037705 0.219884 0.119651
H135  H     H_    0.728664 0.031060 0.151427 0.116474
H136  H     H_    0.644981 0.091801 0.211865 0.121037
H137  H     H_    0.662244 0.157225 0.337593 0.124949
C203  C     C_R   0.694201 0.197422 0.677694 0.146166
C204  C     C_R   0.707953 0.159348 0.749557 -0.187996
C205  C     C_R   0.666314 0.149595 0.817211 -0.126723
C206  C     C_R   0.608460 0.174672 0.812645 -0.114407
C207  C     C_R   0.591235 0.206910 0.738375 -0.142177
C208  C     C_R   0.632807 0.216649 0.670749 -0.111434
H138  H     H_    0.752012 0.138470 0.755595 0.108641
H139  H     H_    0.678995 0.122400 0.873171 0.119071
H140  H     H_    0.576290 0.167748 0.865160 0.107897
H141  H     H_    0.544930 0.223113 0.731855 0.120792
H142  H     H_    0.614048 0.235267 0.611287 0.105147
C209  C     C_R   0.714680 0.812446 0.314412 0.122404
C210  C     C_R   0.649661 0.811278 0.307799 -0.139524
C211  C     C_R   0.618330 0.821421 0.227433 -0.129003
C212  C     C_R   0.650079 0.831343 0.149885 -0.123926
C213  C     C_R   0.713292 0.830033 0.152135 -0.145726
C214  C     C_R   0.744928 0.820068 0.232209 -0.153684
H143  H     H_    0.620757 0.800577 0.362075 0.128727
H144  H     H_    0.568980 0.820440 0.225147 0.154448
H145  H     H_    0.625759 0.837923 0.087381 0.130202
H146  H     H_    0.738079 0.834841 0.090886 0.126483
H147  H     H_    0.792804 0.812359 0.225436 0.141556
C215  C     C_R   0.727195 0.833469 0.668113 0.115718
C216  C     C_R   0.762925 0.868105 0.728304 -0.170260
C217  C     C_R   0.739298 0.888851 0.808824 -0.139442
C218  C     C_R   0.679343 0.876278 0.830691 -0.122666
C219  C     C_R   0.642530 0.843701 0.771452 -0.139798
C220  C     C_R   0.665889 0.822607 0.690805 -0.133124
H148  H     H_    0.809508 0.878904 0.713304 0.144154
H149  H     H_    0.767668 0.914634 0.854473 0.123215
H150  H     H_    0.661478 0.891855 0.893584 0.116445
H151  H     H_    0.595812 0.834445 0.788308 0.131650
H152  H     H_    0.635658 0.797503 0.647845 0.118165
C221  C     C_R   0.714141 0.361771 0.521607 0.120824
C222  C     C_R   0.734765 0.419811 0.503714 -0.167658
C223  C     C_R   0.708784 0.469348 0.543986 -0.132796
C224  C     C_R   0.662279 0.463487 0.604735 -0.126936
C225  C     C_R   0.642555 0.407708 0.626690 -0.146318
C226  C     C_R   0.667754 0.357983 0.585578 -0.140147
H153  H     H_    0.771165 0.427568 0.458000 0.144827
H154  H     H_    0.724929 0.512434 0.527743 0.161503
H155  H     H_    0.642573 0.502043 0.636274 0.138523
H156  H     H_    0.608641 0.402681 0.677462 0.122010
H157  H     H_    0.653761 0.317180 0.610138 0.133426
C227  C     C_R   0.735392 0.334247 0.369359 0.092223
C228  C     C_R   0.785863 0.356335 0.322416 -0.165660
C229  C     C_R   0.778232 0.382003 0.239135 -0.087522
C230  C     C_R   0.720371 0.390261 0.202087 -0.121432
C231  C     C_R   0.669518 0.372932 0.248774 -0.181032
C232  C     C_R   0.676722 0.346222 0.331441 -0.155337
H158  H     H_    0.832126 0.350908 0.344382 0.173287
H159  H     H_    0.817877 0.394225 0.202640 0.205917
H160  H     H_    0.714987 0.410410 0.137511 0.150829
H161  H     H_    0.624288 0.380560 0.221271 0.125229
H162  H     H_    0.635815 0.335338 0.366768 0.123249
C233  C     C_R   0.728680 0.654981 0.601876 0.154430
C234  C     C_R   0.766426 0.606248 0.622282 -0.136691
C235  C     C_R   0.761120 0.575104 0.700670 -0.099807
C236  C     C_R   0.714367 0.587596 0.759114 -0.104791
C237  C     C_R   0.673005 0.631903 0.738851 -0.174539
C238  C     C_R   0.679616 0.665113 0.661878 -0.187963
H163  H     H_    0.798822 0.589241 0.576156 0.132273
H164  H     H_    0.793342 0.540583 0.714408 0.158331
H165  H     H_    0.709829 0.562597 0.819412 0.142871
H166  H     H_    0.635926 0.641278 0.783645 0.125964
H167  H     H_    0.645590 0.698352 0.654609 0.111341
C239  C     C_R   0.718281 0.634034 0.444365 0.084518
C240  C     C_R   0.758510 0.596090 0.397005 -0.171736
C241  C     C_R   0.737242 0.548051 0.345913 -0.126531
C242  C     C_R   0.675481 0.534747 0.342121 -0.105188
C243  C     C_R   0.634811 0.569035 0.390294 -0.144118
C244  C     C_R   0.655825 0.617054 0.441197 -0.172974
H168  H     H_    0.806100 0.603242 0.392896 0.171226
H169  H     H_    0.769046 0.521021 0.308951 0.172053
H170  H     H_    0.659237 0.497495 0.302742 0.141871
H171  H     H_    0.586798 0.558120 0.389119 0.130720
H172  H     H_    0.622557 0.641098 0.479098 0.127551
C245  C     C_R   0.214129 0.861778 0.521589 0.120823
C246  C     C_R   0.167742 0.857992 0.585561 -0.140132
C247  C     C_R   0.142537 0.907719 0.626660 -0.146363
C248  C     C_R   0.162253 0.963498 0.604688 -0.126930
C249  C     C_R   0.208759 0.969357 0.543939 -0.132758
C250  C     C_R   0.234749 0.919818 0.503685 -0.167663
H173  H     H_    0.153756 0.817188 0.610134 0.133429
H174  H     H_    0.108625 0.902694 0.677435 0.122003
H175  H     H_    0.142541 0.002057 0.636213 0.138564
H176  H     H_    0.224898 0.012445 0.527686 0.161507
H177  H     H_    0.271152 0.927574 0.457975 0.144822
C251  C     C_R   0.235385 0.834246 0.369346 0.092229
C252  C     C_R   0.176715 0.846216 0.331422 -0.155319
C253  C     C_R   0.169514 0.872923 0.248752 -0.181020
C254  C     C_R   0.220368 0.890254 0.202070 -0.121444
C255  C     C_R   0.278228 0.881999 0.239124 -0.087527
C256  C     C_R   0.285856 0.856334 0.322406 -0.165667
H178  H     H_    0.135806 0.835332 0.366744 0.123252
H179  H     H_    0.124284 0.880548 0.221245 0.125219
H180  H     H_    0.214985 0.910401 0.137493 0.150831
H181  H     H_    0.317873 0.894224 0.202632 0.205919
H182  H     H_    0.332119 0.850911 0.344379 0.173288
C257  C     C_R   0.228612 0.154946 0.601810 0.154383
C258  C     C_R   0.266396 0.106245 0.622257 -0.136752
C259  C     C_R   0.261085 0.075099 0.700643 -0.099766
C260  C     C_R   0.214282 0.087539 0.759028 -0.104893
C261  C     C_R   0.172861 0.131788 0.738698 -0.174603
C262  C     C_R   0.179473 0.165004 0.661731 -0.187968
H183  H     H_    0.298825 0.089260 0.576165 0.132313
H184  H     H_    0.293342 0.040614 0.714421 0.158364
H185  H     H_    0.209738 0.062535 0.819320 0.142843
H186  H     H_    0.135722 0.141100 0.783423 0.125953
H187  H     H_    0.145342 0.198156 0.654380 0.111227
C263  C     C_R   0.218266 0.134035 0.444287 0.084562
C264  C     C_R   0.258507 0.096084 0.396965 -0.171730
C265  C     C_R   0.237249 0.048052 0.345850 -0.126488
C266  C     C_R   0.175484 0.034761 0.341997 -0.105176
C267  C     C_R   0.134801 0.069058 0.390130 -0.144129
C268  C     C_R   0.155805 0.117072 0.441053 -0.172968
H188  H     H_    0.306103 0.103219 0.392916 0.171203
H189  H     H_    0.269063 0.021012 0.308924 0.172047
H190  H     H_    0.159248 0.997514 0.302603 0.141862
H191  H     H_    0.086784 0.058154 0.388908 0.130716
H192  H     H_    0.122524 0.141123 0.478922 0.127553
I1    I     I_    0.943134 0.375800 0.106006 -0.447299
I2    I     I_    0.926665 0.382079 0.876760 -0.397965
I3    I     I_    0.859280 0.498525 0.116572 -0.467357
I4    I     I_    0.859389 0.512408 0.888682 -0.478404
I5    I     I_    0.443142 0.875799 0.106019 -0.447295
I6    I     I_    0.426690 0.882061 0.876773 -0.397971
I7    I     I_    0.359281 0.998520 0.116564 -0.467361
I8    I     I_    0.359381 0.012368 0.888670 -0.478369

loop_
_geom_bond_atom_site_label_1
_geom_bond_atom_site_label_2
_geom_bond_distance
_ccdc_geom_bond_type
C9    C77   1.591574 S    
C139  H84   1.079941 S    
C255  H181  1.075602 S    
C12   C95   1.609688 S    
C9    C22   1.631688 S    
C127  C128  1.385703 A    
C161  C166  1.424317 A    
C84   C85   1.396976 A    
C177  H116  1.083078 S    
C141  H86   1.082528 S    
C24   C36   1.589453 S    
C201  C202  1.397995 A    
C136  H82   1.063616 S    
C6    C54   1.405660 S    
O10   C5    1.279838 A    
C234  C235  1.389148 A    
C57   C65   1.557022 S    
C82   H37   1.073957 S    
C21   C197  1.570779 S    
C32   C44   1.687892 S    
C101  C106  1.426790 A    
C160  H102  1.063622 S    
C138  C139  1.395297 A    
C159  H101  1.072792 S    
C18   H1    1.079217 S    
C26   C46   1.184528 T    
C108  H58   1.070077 S    
C38   C44   1.573215 S    
C215  C220  1.416759 A    
C183  C184  1.396802 A    
C115  H64   1.083153 S    
C206  H140  1.080620 S    
C61   H31   1.108132 S    
C69   C70   1.615668 S    
C218  H150  1.081313 S    
C13   C31   1.697477 S    
C139  C140  1.388828 A    
C166  H107  1.068872 S    
C220  H152  1.074132 S    
C207  C208  1.396790 A    
C243  C244  1.395773 A    
C238  H167  1.066948 S    
C116  C117  1.382966 A    
C110  C111  1.384972 A    
C37   H10   1.099387 S    
C59   H25   1.107748 S    
O6    C3    1.269925 A    
C191  C192  1.414606 A    
C30   C42   1.687808 S    
O16   Zn4   1.973811 S    
C122  C123  1.385381 A    
C164  H105  1.081844 S    
C15   C32   1.692271 S    
C64   C68   1.555683 S    
C149  C154  1.426412 A    
C224  H155  1.082268 S    
C151  H94   1.083110 S    
C50   C54   1.197231 T    
C11   C89   1.635986 S    
C199  C200  1.391470 A    
O14   Zn4   1.986855 S    
O2    Zn2   1.973474 S    
C159  C160  1.397670 A    
C71   I8    2.174391 S    
C96   H48   1.070409 S    
C221  C226  1.414832 A    
C68   C71   1.577382 S    
C58   C66   1.554819 S    
C241  C242  1.389037 A    
C113  C118  1.441211 A    
O8    Zn4   1.968399 S    
C87   H41   1.083372 S    
C21   C35   1.582186 S    
C216  C217  1.396503 A    
C38   H11   1.088102 S    
C169  C170  1.386376 A    
C179  C184  1.417937 A    
C85   C86   1.385862 A    
C235  H164  1.075499 S    
C193  H129  1.082365 S    
C11   C143  1.604230 S    
C188  C189  1.386997 A    
C259  H184  1.075530 S    
C9    C131  1.586285 S    
C83   C84   1.427738 A    
C209  C210  1.428453 A    
C13   C155  1.586277 S    
Zn2   N2    1.978538 S    
C227  C232  1.425140 A    
C129  H76   1.082672 S    
C191  C196  1.416832 A    
C15   C20   1.615188 S    
C211  H144  1.082948 S    
C37   C43   1.569392 S    
C128  H75   1.082485 S    
C263  C264  1.423631 A    
C126  H73   1.067099 S    
C40   H16   1.097771 S    
C260  H185  1.082230 S    
C165  H106  1.082538 S    
C249  C250  1.394870 A    
C208  H142  1.068479 S    
C33   C37   1.546571 S    
C121  C122  1.385214 A    
C213  C214  1.396882 A    
C137  C142  1.424308 A    
C253  H179  1.082344 S    
C1    C26   1.393335 S    
C228  C229  1.394183 A    
C124  H72   1.062570 S    
C91   H44   1.083152 S    
C3    C28   1.393341 S    
C180  H118  1.079127 S    
C169  H109  1.082745 S    
C135  H81   1.072779 S    
C156  H98   1.071267 S    
C109  C110  1.385855 A    
C67   C76   1.511987 S    
C59   C60   1.555487 S    
C134  H80   1.082395 S    
C86   C87   1.384978 A    
C225  C226  1.396693 A    
C65   C74   1.511989 S    
C61   C62   1.558825 S    
C213  H146  1.082822 S    
C15   C113  1.636003 S    
C195  H131  1.082238 S    
C209  C214  1.423520 A    
C62   C68   1.554831 S    
C63   H24   1.113161 S    
C123  C124  1.398214 A    
C200  H135  1.082611 S    
O13   C7    1.273904 A    
C153  H96   1.082675 S    
C187  H124  1.082944 S    
C231  C232  1.395499 A    
C150  H93   1.067109 S    
C38   H12   1.097826 S    
C23   H8    1.095379 S    
O11   Zn1   1.973474 S    
C99   C100  1.398207 A    
C223  C224  1.388140 A    
C228  H158  1.068873 S    
C203  C204  1.421306 A    
C146  C147  1.385581 A    
C194  H130  1.081316 S    
C71   I6    2.177300 S    
C196  H132  1.074165 S    
C110  H60   1.081035 S    
O6    Zn4   1.973474 S    
C63   C64   1.555481 S    
C217  C218  1.392992 A    
C265  H189  1.082860 S    
N3    C75   1.170469 T    
C256  H182  1.068870 S    
C10   C21   1.622627 S    
C253  C254  1.389273 A    
C104  H55   1.082465 S    
N1    C73   1.170467 T    
C185  C190  1.423519 A    
C84   H38   1.070096 S    
C27   C47   1.182999 T    
C79   C80   1.387992 A    
C120  H68   1.070417 S    
C182  C183  1.389592 A    
C156  C157  1.395344 A    
C145  C146  1.386324 A    
C234  H163  1.067972 S    
C188  H125  1.081977 S    
C112  H62   1.071295 S    
C259  C260  1.386990 A    
C140  H85   1.081846 S    
O11   C6    1.276728 A    
O7    C4    1.271191 A    
C81   H36   1.081966 S    
C138  H83   1.073239 S    
C34   C38   1.527310 S    
C13   C101  1.591574 S    
O13   Zn3   1.968402 S    
C202  H137  1.074160 S    
C64   H30   1.109839 S    
C186  C187  1.398149 A    
Zn4   N4    1.978538 S    
C78   H33   1.069174 S    
C142  H87   1.068871 S    
C258  C259  1.389151 A    
C183  H121  1.083308 S    
C22   C203  1.573785 S    
C176  H115  1.082602 S    
C39   H14   1.099386 S    
C189  C190  1.396887 A    
C248  C249  1.388143 A    
C203  C208  1.417956 A    
C125  C126  1.433068 A    
C240  C241  1.399412 A    
O8    C4    1.271993 A    
C69   I4    2.174394 S    
C163  C164  1.388852 A    
C152  C153  1.383363 A    
C229  C230  1.389903 A    
C109  H59   1.082436 S    
C92   H45   1.080870 S    
C90   H43   1.063023 S    
C69   I2    2.177323 S    
C157  H99   1.082639 S    
C236  C237  1.388598 A    
C268  H192  1.075908 S    
C24   C215  1.544258 S    
C89   C90   1.433600 A    
C103  H54   1.082860 S    
C178  H117  1.074148 S    
C15   C167  1.604211 S    
C144  H88   1.077828 S    
C32   C52   1.451339 S    
C230  H160  1.082357 S    
C154  H97   1.066082 S    
C16   C19   1.631731 S    
C102  H53   1.069164 S    
C80   C81   1.386384 A    
C186  H123  1.072232 S    
C107  C112  1.436136 A    
C105  H56   1.081961 S    
C172  H112  1.057840 S    
C179  C180  1.421290 A    
C117  H66   1.083085 S    
C16   C161  1.590271 S    
C116  H65   1.080885 S    
C66   C69   1.577374 S    
C147  C148  1.397816 A    
C212  C213  1.387005 A    
C240  H168  1.060187 S    
C61   C67   1.557014 S    
C221  C222  1.427920 A    
C257  C262  1.431421 A    
C35   C47   1.447888 S    
C205  H139  1.082599 S    
C58   H28   1.110596 S    
C12   C23   1.631735 S    
C181  C182  1.391541 A    
C44   C257  1.579087 S    
C167  C172  1.422876 A    
C267  C268  1.395768 A    
C4    C27   1.391473 S    
C85   H39   1.082440 S    
C77   C82   1.426807 A    
C231  H161  1.082348 S    
C193  C194  1.393041 A    
C198  C199  1.397425 A    
C157  C158  1.385058 A    
C13   C18   1.631680 S    
C70   I3    2.179202 S    
C246  C247  1.396703 A    
C145  H89   1.082728 S    
O2    C1    1.269927 A    
O4    C2    1.271995 A    
C239  C244  1.424232 A    
C16   C119  1.609696 S    
C114  H63   1.063015 S    
C267  H191  1.082589 S    
C14   C17   1.622625 S    
C14   C149  1.607072 S    
C12   C30   1.661641 S    
C52   C56   1.197229 T    
C128  C129  1.383359 A    
C197  C198  1.416435 A    
C263  C268  1.424255 A    
C132  H78   1.071267 S    
C105  C106  1.396134 A    
C210  C211  1.398141 A    
C130  H77   1.066080 S    
C235  C236  1.386946 A    
C7    C55   1.412207 S    
C187  C188  1.388016 A    
O5    C3    1.274117 A    
C189  H126  1.082815 S    
C121  H69   1.082821 S    
C137  C138  1.425118 A    
C10   C29   1.701764 S    
O7    Zn3   1.986851 S    
C254  H180  1.082353 S    
C164  C165  1.386323 A    
C115  C116  1.380169 A    
C212  H145  1.081972 S    
C2    C25   1.391463 S    
C205  C206  1.391569 A    
C264  H188  1.060175 S    
C140  C141  1.386328 A    
C249  H176  1.076236 S    
C91   C92   1.380147 A    
C233  C234  1.416609 A    
C118  H67   1.072079 S    
C134  C135  1.387462 A    
C66   C73   1.512827 S    
C225  H156  1.081687 S    
C17   H2    1.084471 S    
C174  H113  1.074226 S    
C59   C65   1.553720 S    
C261  H186  1.082946 S    
C254  C255  1.389897 A    
N4    C76   1.170026 T    
C153  C154  1.396113 A    
C43   C251  1.578176 S    
C223  H154  1.076221 S    
C168  H108  1.077866 S    
C265  C266  1.389060 A    
C23   C36   1.596062 S    
C102  C103  1.399315 A    
C10   C125  1.607074 S    
C99   H51   1.083310 S    
O12   Zn2   1.973811 S    
C79   H34   1.082874 S    
C146  H90   1.081373 S    
C181  H119  1.082588 S    
C29   C49   1.455599 S    
O3    Zn1   1.986851 S    
O1    C1    1.274115 A    
C148  H92   1.057774 S    
C31   C51   1.455597 S    
C96   C97   1.397196 A    
C210  H143  1.072239 S    
C224  C225  1.388322 A    
C33   C45   1.447882 S    
C217  H149  1.082348 S    
C60   H26   1.109817 S    
C125  C130  1.426411 A    
C257  C258  1.416645 A    
C88   H42   1.071302 S    
C266  C267  1.388290 A    
N2    C74   1.170026 T    
C93   C94   1.398701 A    
C49   C53   1.199497 T    
C122  H70   1.081693 S    
C176  C177  1.391239 A    
C184  H122  1.068466 S    
C111  H61   1.083363 S    
C143  C148  1.422844 A    
C247  H174  1.081689 S    
C78   C79   1.399317 A    
C57   H27   1.108145 S    
C61   H22   1.113402 S    
C9    C29   1.697475 S    
Zn3   N3    1.978668 S    
C77   C78   1.430537 A    
C133  C134  1.385050 A    
C10   C83   1.607445 S    
C71   C72   1.615662 S    
C36   C40   1.527362 S    
C21   H6    1.084477 S    
C219  H151  1.082199 S    
C104  C105  1.386373 A    
C244  H172  1.075894 S    
C100  H52   1.062591 S    
C20   C191  1.544281 S    
C19   C34   1.596040 S    
C174  C175  1.397409 A    
O12   C6    1.272748 A    
C14   C31   1.701747 S    
C222  H153  1.078585 S    
C170  C171  1.385623 A    
C57   H18   1.113413 S    
C63   H29   1.107734 S    
O4    Zn2   1.968399 S    
C173  C178  1.422230 A    
C219  C220  1.398467 A    
C163  H104  1.079949 S    
C180  C181  1.398128 A    
C60   C66   1.555680 S    
C151  C152  1.385710 A    
C94   H47   1.072049 S    
C215  C216  1.414592 A    
C158  C159  1.387464 A    
C229  H159  1.075613 S    
C111  C112  1.397989 A    
C51   C55   1.199493 T    
C177  C178  1.397981 A    
C170  H110  1.081395 S    
C171  H111  1.083033 S    
C131  C132  1.424334 A    
C86   H40   1.081024 S    
C18   C179  1.573774 S    
C108  C109  1.396978 A    
C30   C50   1.451347 S    
C103  C104  1.387984 A    
C247  C248  1.388343 A    
C70   I1    2.181581 S    
C227  C228  1.420216 A    
C101  C102  1.430532 A    
C262  H187  1.067271 S    
C60   H19   1.111019 S    
C230  C231  1.389278 A    
C34   C46   1.450593 S    
C204  C205  1.398136 A    
C251  C256  1.420209 A    
C232  H162  1.081768 S    
C119  C124  1.433779 A    
C251  C252  1.425143 A    
C19   H4    1.095374 S    
C20   H3    1.091855 S    
C192  C193  1.396505 A    
C258  H183  1.067966 S    
C28   C48   1.184537 T    
C22   C35   1.579716 S    
C98   C99   1.385389 A    
C147  H91   1.082992 S    
C185  C186  1.428452 A    
C245  C246  1.414841 A    
C173  C174  1.416421 A    
C135  C136  1.397677 A    
C241  H169  1.082875 S    
C42   C239  1.589269 S    
C143  C144  1.431579 A    
C62   H21   1.113042 S    
C11   C30   1.692329 S    
C90   C91   1.396599 A    
C123  H71   1.083319 S    
C207  H141  1.083323 S    
C155  C160  1.416648 A    
C198  H133  1.074228 S    
C39   H13   1.098000 S    
C40   H15   1.088143 S    
C20   C34   1.589450 S    
C182  H120  1.080627 S    
C72   I5    2.181556 S    
C239  C240  1.423647 A    
C41   C227  1.578181 S    
C237  C238  1.399715 A    
O16   C8    1.272754 A    
C58   H17   1.113035 S    
C114  C115  1.396628 A    
C152  H95   1.082486 S    
C44   C263  1.589234 S    
C149  C150  1.433077 A    
C243  H171  1.082579 S    
C133  H79   1.082640 S    
C18   C33   1.579693 S    
C80   H35   1.082469 S    
C165  C166  1.396076 A    
C199  H134  1.082705 S    
C95   C100  1.433764 A    
O5    Zn3   1.973811 S    
C175  H114  1.082691 S    
O1    Zn1   1.973811 S    
O9    Zn1   1.968402 S    
C126  C127  1.397830 A    
C97   H49   1.082823 S    
C35   C39   1.546584 S    
C226  H157  1.052808 S    
C11   C24   1.615244 S    
O9    C5    1.273900 A    
O14   C7    1.279832 A    
C242  H170  1.081510 S    
C87   C88   1.397984 A    
C216  H148  1.080262 S    
C150  C151  1.397837 A    
C264  C265  1.399412 A    
C168  C169  1.396182 A    
C127  H74   1.083101 S    
C255  C256  1.394177 A    
C175  C176  1.391462 A    
C162  H103  1.073269 S    
C266  H190  1.081502 S    
O10   Zn2   1.986855 S    
C68   C75   1.512828 S    
C23   C209  1.591697 S    
C107  C108  1.427732 A    
C39   C41   1.569396 S    
C92   C93   1.382958 A    
C98   H50   1.081692 S    
C120  C121  1.397190 A    
C190  H127  1.070989 S    
C206  C207  1.389603 A    
C62   H32   1.110603 S    
C261  C262  1.399721 A    
C42   C233  1.579010 S    
C158  H100  1.082393 S    
C129  C130  1.396110 A    
C36   C48   1.450581 S    
C252  H178  1.081772 S    
C57   C58   1.558830 S    
C155  C156  1.424333 A    
C14   C107  1.607453 S    
C211  C212  1.388023 A    
C246  H173  1.052840 S    
C204  H138  1.079147 S    
C24   H7    1.091800 S    
C5    C53   1.412212 S    
C248  H175  1.082271 S    
C119  C120  1.431504 A    
C12   C137  1.590274 S    
C95   C96   1.431510 A    
C41   C221  1.580009 S    
C144  C145  1.396152 A    
O15   Zn3   1.973474 S    
C59   H20   1.113172 S    
C63   C67   1.553714 S    
C132  C133  1.395350 A    
C201  H136  1.083087 S    
C171  C172  1.397838 A    
C97   C98   1.385206 A    
C64   H23   1.111024 S    
C83   C88   1.436153 A    
C89   C94   1.441200 A    
C93   H46   1.083078 S    
O15   C8    1.276715 A    
C25   C45   1.182996 T    
C197  C202  1.422240 A    
C16   C32   1.661635 S    
Zn1   N1    1.978668 S    
C17   C33   1.582182 S    
C141  C142  1.396076 A    
C37   H9    1.097997 S    
C237  H166  1.082836 S    
C19   C185  1.591707 S    
C245  C250  1.427936 A    
C81   C82   1.396136 A    
C260  C261  1.388663 A    
C17   C173  1.570767 S    
C162  C163  1.395294 A    
C72   I7    2.179173 S    
C233  C238  1.431174 A    
C8    C56   1.405645 S    
C65   C70   1.575596 S    
O3    C2    1.271187 A    
C195  C196  1.398482 A    
C218  C219  1.393957 A    
C43   C245  1.580004 S    
C200  C201  1.391255 A    
C214  H147  1.070988 S    
C113  C114  1.433583 A    
C106  H57   1.073951 S    
C252  C253  1.395492 A    
C131  C136  1.416645 A    
C22   H5    1.079237 S    
C161  C162  1.425110 A    
C250  H177  1.078597 S    
C236  H165  1.082228 S    
C40   C42   1.573178 S    
C242  C243  1.388301 A    
C167  C168  1.431604 A    
C67   C72   1.575588 S    
C222  C223  1.394858 A    
C117  C118  1.398722 A    
C29   C41   1.652975 S    
C194  C195  1.393986 A    
C192  H128  1.080295 S    
C31   C43   1.652975 S    
