data_mof_unit_16688.cif
_audit_creation_date              2013-03-05T15:45:57-0500
_audit_creation_method            fapswitch 2.2
_symmetry_space_group_name_H-M    P1
_symmetry_Int_Tables_number       1
_space_group_crystal_system       triclinic
_cell_length_a                    18.922526
_cell_length_b                    11.03237
_cell_length_c                    18.708841
_cell_angle_alpha                 90.298516
_cell_angle_beta                  89.640012
_cell_angle_gamma                 90.064237
_cell_volume                      3905.53100134

loop_
_atom_site_label
_atom_site_type_symbol
_atom_site_description
_atom_site_fract_x
_atom_site_fract_y
_atom_site_fract_z
_atom_type_partial_charge
O1    O     O_R   0.787510 0.042610 0.670410 -0.442712
O2    O     O_R   0.212490 0.042610 0.329590 -0.445602
O3    O     O_R   0.287510 0.542610 0.670410 -0.442654
O4    O     O_R   0.712490 0.542610 0.329590 -0.446719
O5    O     O_R   0.765670 0.292090 0.675090 -0.557262
O6    O     O_R   0.234330 0.292090 0.324910 -0.551518
O7    O     O_R   0.265670 0.792090 0.675090 -0.557263
O8    O     O_R   0.734330 0.792090 0.324910 -0.551807
C1    C     C_R   0.731298 0.382595 0.647628 0.544265
C2    C     C_R   0.268750 0.382853 0.352384 0.540811
C3    C     C_R   0.231300 0.882595 0.647628 0.544268
C4    C     C_R   0.768752 0.882852 0.352384 0.540898
O9    O     O_R   0.670220 0.409020 0.668560 -0.428436
O10   O     O_R   0.329780 0.409020 0.331440 -0.429433
O11   O     O_R   0.170220 0.909020 0.668560 -0.428441
O12   O     O_R   0.829780 0.909020 0.331440 -0.429326
O13   O     O_R   0.556580 0.251590 0.674980 -0.457393
O14   O     O_R   0.443420 0.251590 0.325020 -0.458659
O15   O     O_R   0.056580 0.751590 0.674980 -0.457434
O16   O     O_R   0.943420 0.751590 0.325020 -0.458583
C5    C     C_R   0.532933 0.154242 0.646676 0.565070
C6    C     C_R   0.467019 0.154562 0.353410 0.559200
C7    C     C_R   0.032929 0.654241 0.646680 0.564998
C8    C     C_R   0.967017 0.654561 0.353414 0.559334
O17   O     O_R   0.545890 0.049670 0.670030 -0.544883
O18   O     O_R   0.454110 0.049670 0.329970 -0.545405
O19   O     O_R   0.045890 0.549670 0.670030 -0.544907
O20   O     O_R   0.954110 0.549670 0.329970 -0.545497
O21   O     O_R   0.681340 0.957860 0.676500 -0.440849
O22   O     O_R   0.318660 0.957860 0.323500 -0.444989
O23   O     O_R   0.181340 0.457860 0.676500 -0.440852
O24   O     O_R   0.818660 0.457860 0.323500 -0.444891
C9    C     C_R   0.726070 0.024774 0.640625 0.580514
C10   C     C_R   0.273827 0.024649 0.359597 0.577057
C11   C     C_R   0.226067 0.524778 0.640626 0.580600
C12   C     C_R   0.773825 0.524646 0.359597 0.576999
O25   O     O_R   0.787380 0.044010 0.830940 -0.501375
O26   O     O_R   0.212620 0.044010 0.169060 -0.513309
O27   O     O_R   0.287380 0.544010 0.830940 -0.501385
O28   O     O_R   0.712620 0.544010 0.169060 -0.513224
O29   O     O_R   0.765540 0.293390 0.823910 -0.508028
O30   O     O_R   0.234460 0.293390 0.176090 -0.534784
O31   O     O_R   0.265540 0.793390 0.823910 -0.508038
O32   O     O_R   0.734460 0.793390 0.176090 -0.534723
C13   C     C_R   0.729585 0.378261 0.852270 0.614925
C14   C     C_R   0.269866 0.378545 0.148002 0.582834
C15   C     C_R   0.229585 0.878261 0.852270 0.614934
C16   C     C_R   0.769866 0.878545 0.148002 0.582858
O33   O     O_R   0.670090 0.410410 0.829090 -0.487894
O34   O     O_R   0.329910 0.410410 0.170910 -0.424032
O35   O     O_R   0.170090 0.910410 0.829090 -0.487855
O36   O     O_R   0.829910 0.910410 0.170910 -0.424065
O37   O     O_R   0.556450 0.252890 0.823790 -0.501927
O38   O     O_R   0.443550 0.252890 0.176210 -0.498215
O39   O     O_R   0.056450 0.752890 0.823790 -0.501922
O40   O     O_R   0.943550 0.752890 0.176210 -0.498219
C17   C     C_R   0.529897 0.156753 0.852154 0.581837
C18   C     C_R   0.468006 0.155464 0.146126 0.570829
C19   C     C_R   0.029897 0.656753 0.852154 0.581822
C20   C     C_R   0.968006 0.655464 0.146126 0.570865
O41   O     O_R   0.545750 0.051070 0.830560 -0.449988
O42   O     O_R   0.454250 0.051070 0.169440 -0.432422
O43   O     O_R   0.045750 0.551070 0.830560 -0.449992
O44   O     O_R   0.954250 0.551070 0.169440 -0.432437
O45   O     O_R   0.681210 0.959150 0.825320 -0.476861
O46   O     O_R   0.318790 0.959150 0.174680 -0.446277
O47   O     O_R   0.181210 0.459150 0.825320 -0.476868
O48   O     O_R   0.818790 0.459150 0.174680 -0.446256
C21   C     C_R   0.740768 0.974498 0.855419 0.590065
C22   C     C_R   0.258685 0.970883 0.145924 0.571921
C23   C     C_R   0.240768 0.474498 0.855419 0.590083
C24   C     C_R   0.758685 0.470884 0.145924 0.571946
Cr1   Cr    Cr6+3 0.771950 0.169480 0.750100 1.056909
Cr2   Cr    Cr6+3 0.228050 0.169480 0.249900 1.036479
Cr3   Cr    Cr6+3 0.271950 0.669480 0.750100 1.056875
Cr4   Cr    Cr6+3 0.728050 0.669480 0.249900 1.036273
Cr5   Cr    Cr6+3 0.614930 0.323340 0.749170 1.133542
Cr6   Cr    Cr6+3 0.385070 0.323340 0.250830 1.150449
Cr7   Cr    Cr6+3 0.114930 0.823340 0.749170 1.133601
Cr8   Cr    Cr6+3 0.885070 0.823340 0.250830 1.150320
Cr9   Cr    Cr6+3 0.616590 0.010620 0.750610 1.108435
Cr10  Cr    Cr6+3 0.383410 0.010620 0.249390 1.127599
Cr11  Cr    Cr6+3 0.116590 0.510620 0.750610 1.108377
Cr12  Cr    Cr6+3 0.883410 0.510620 0.249390 1.127523
O49   O     O_3   0.667820 0.167810 0.749960 -0.336759
O50   O     O_3   0.332180 0.167810 0.250040 -0.336670
O51   O     O_3   0.167820 0.667810 0.749960 -0.336769
O52   O     O_3   0.832180 0.667810 0.250040 -0.336574
C25   C     C_R   0.491334 0.157479 0.425557 0.036309
C26   C     C_R   0.508220 0.157102 0.574738 0.036687
C27   C     C_R   0.991310 0.657470 0.425570 0.036376
C28   C     C_R   0.008194 0.657102 0.574752 0.036679
C29   C     C_R   0.493843 0.263601 0.465080 -0.030655
C30   C     C_R   0.505542 0.263464 0.535973 -0.029147
C31   C     C_R   0.993847 0.763595 0.465091 -0.030574
C32   C     C_R   0.005546 0.763458 0.535983 -0.029060
C33   C     C_R   0.501905 0.046936 0.536732 -0.162623
C34   C     C_R   0.497552 0.047113 0.462879 -0.161565
C35   C     C_R   0.001838 0.546935 0.536755 -0.162598
C36   C     C_R   0.997485 0.547103 0.462901 -0.161613
C37   C     C_3   0.490493 0.397831 0.460647 0.173236
C38   C     C_3   0.509929 0.397740 0.541067 0.171709
C39   C     C_3   0.990632 0.897829 0.460637 0.172875
C40   C     C_3   0.010045 0.897726 0.541063 0.171735
H1    H     H_    0.504008 0.959827 0.563095 0.173320
H2    H     H_    0.495574 0.960013 0.435954 0.173479
H3    H     H_    0.003923 0.459829 0.563123 0.173291
H4    H     H_    0.995488 0.460001 0.435982 0.173319
H5    H     H_    0.936653 0.930374 0.448448 0.190677
H6    H     H_    0.064297 0.929210 0.553460 0.189374
H7    H     H_    0.436478 0.430231 0.448475 0.190457
H8    H     H_    0.564161 0.429340 0.553450 0.189541
C41   C     C_R   0.675801 0.941417 0.526654 -0.090322
C42   C     C_R   0.323853 0.940381 0.473075 -0.088087
C43   C     C_R   0.175787 0.441416 0.526653 -0.090306
C44   C     C_R   0.823840 0.440379 0.473073 -0.088091
H9    H     H_    0.629754 0.910718 0.555340 0.203078
H10   H     H_    0.369714 0.909403 0.444057 0.204587
H11   H     H_    0.129740 0.410711 0.555338 0.203056
H12   H     H_    0.869700 0.409404 0.444053 0.204563
C45   C     C_R   0.686286 0.907093 0.455414 -0.157718
C46   C     C_R   0.313521 0.906145 0.544216 -0.157363
C47   C     C_R   0.186276 0.407085 0.455413 -0.157746
C48   C     C_R   0.813512 0.406149 0.544214 -0.157375
H13   H     H_    0.649496 0.844498 0.430889 0.164790
H14   H     H_    0.350230 0.843546 0.568331 0.165285
H15   H     H_    0.149491 0.344477 0.430890 0.165198
H16   H     H_    0.850224 0.343555 0.568331 0.165205
C49   C     C_R   0.746115 0.947739 0.417839 -0.001933
C50   C     C_R   0.254029 0.947199 0.582307 -0.000713
C51   C     C_R   0.246103 0.447741 0.417836 -0.001993
C52   C     C_R   0.754019 0.447197 0.582305 -0.000688
C53   C     C_R   0.789446 0.039971 0.449749 0.256992
C54   C     C_R   0.211067 0.039909 0.551036 0.258793
C55   C     C_R   0.289420 0.539991 0.449743 0.256851
C56   C     C_R   0.711045 0.539892 0.551031 0.258906
C57   C     C_R   0.778194 0.068817 0.521796 -0.053583
C58   C     C_R   0.222194 0.068827 0.479079 -0.050756
C59   C     C_R   0.278165 0.568844 0.521788 -0.053528
C60   C     C_R   0.722171 0.568807 0.479075 -0.051051
H17   H     H_    0.810385 0.136528 0.547659 0.181370
H18   H     H_    0.190504 0.137362 0.453848 0.182694
H19   H     H_    0.310335 0.636590 0.547644 0.181407
H20   H     H_    0.690455 0.637301 0.453838 0.181556
C61   C     C_R   0.726673 0.010176 0.562190 -0.017036
C62   C     C_R   0.273176 0.009641 0.438047 -0.015281
C63   C     C_R   0.226658 0.510185 0.562188 -0.016940
C64   C     C_R   0.773163 0.509636 0.438046 -0.015243
C65   C     C_R   0.482678 0.052196 0.958466 0.244776
C66   C     C_R   0.494954 0.046505 0.031910 0.224204
C67   C     C_R   0.982678 0.552196 0.958466 0.244779
C68   C     C_R   0.994954 0.546506 0.031910 0.224224
C69   C     C_R   0.493715 0.156977 0.072092 -0.033391
C70   C     C_R   0.497428 0.162539 0.923086 0.001064
C71   C     C_R   0.993715 0.656977 0.072092 -0.033382
C72   C     C_R   0.997428 0.662539 0.923086 0.001058
C73   C     C_R   0.497234 0.268146 0.036423 -0.189931
C74   C     C_R   0.503042 0.270441 0.962534 -0.180459
C75   C     C_R   0.997234 0.768146 0.036423 -0.189935
C76   C     C_R   0.003043 0.770441 0.962534 -0.180462
H21   H     H_    0.496468 0.353089 0.065730 0.186478
H22   H     H_    0.513295 0.356139 0.936419 0.179568
H23   H     H_    0.996469 0.853089 0.065730 0.186463
H24   H     H_    0.013295 0.856140 0.936419 0.179570
C77   C     C_R   0.787794 0.024333 0.972713 -0.102975
C78   C     C_R   0.274140 0.033293 0.022944 -0.076217
C79   C     C_R   0.287793 0.524334 0.972713 -0.102977
C80   C     C_R   0.774139 0.533293 0.022944 -0.076215
H25   H     H_    0.817377 0.099215 0.950101 0.201022
H26   H     H_    0.294494 0.119456 0.041867 0.110194
H27   H     H_    0.317376 0.599217 0.950102 0.201020
H28   H     H_    0.794493 0.619456 0.041867 0.110196
C81   C     C_R   0.787882 0.012265 0.045684 0.360762
C82   C     C_R   0.266289 0.014208 0.950180 0.404773
C83   C     C_R   0.287882 0.512266 0.045684 0.360766
C84   C     C_R   0.766288 0.514209 0.950180 0.404774
C85   C     C_R   0.751297 0.915750 0.076765 0.032876
C86   C     C_R   0.241715 0.902028 0.926508 0.088296
C87   C     C_R   0.251297 0.415750 0.076765 0.032880
C88   C     C_R   0.741715 0.402028 0.926508 0.088302
C89   C     C_R   0.710261 0.837457 0.034339 -0.139030
C90   C     C_R   0.221841 0.811411 0.975106 -0.162908
C91   C     C_R   0.210262 0.337456 0.034339 -0.139027
C92   C     C_R   0.721842 0.311411 0.975106 -0.162901
H29   H     H_    0.682856 0.760594 0.057319 0.179866
H30   H     H_    0.199554 0.726566 0.956391 0.103951
H31   H     H_    0.182857 0.260592 0.057319 0.179854
H32   H     H_    0.699555 0.226566 0.956390 0.103949
C93   C     C_R   0.707878 0.852990 0.960951 -0.073275
C94   C     C_R   0.228231 0.831509 0.047938 -0.094828
C95   C     C_R   0.207878 0.352989 0.960951 -0.073272
C96   C     C_R   0.728232 0.331508 0.047938 -0.094829
H33   H     H_    0.675887 0.792839 0.928551 0.210082
H34   H     H_    0.211780 0.762509 0.085546 0.168316
H35   H     H_    0.175888 0.292837 0.928551 0.210081
H36   H     H_    0.711782 0.262509 0.085546 0.168310
C97   C     C_R   0.747995 0.944829 0.929925 -0.030529
C98   C     C_R   0.254525 0.942323 0.071393 0.013353
C99   C     C_R   0.247995 0.444830 0.929925 -0.030525
C100  C     C_R   0.754525 0.442323 0.071393 0.013343
F1    F     F_    0.826456 0.091526 0.085364 -0.576920
F2    F     F_    0.282735 0.103640 0.903372 -0.604498
F3    F     F_    0.326455 0.591527 0.085365 -0.576904
F4    F     F_    0.782734 0.603640 0.903372 -0.604508
S1    S     S_3+6 0.557550 0.456199 0.402954 0.043250
O53   O     O_2   0.626220 0.394115 0.418756 -0.289309
O54   O     O_2   0.538553 0.432984 0.326250 -0.248092
O55   O     O_3   0.564077 0.606439 0.416351 -0.474274
H37   H     H_    0.581661 0.639802 0.370519 0.351646
S2    S     S_3+6 0.443288 0.457514 0.598992 0.047039
O56   O     O_2   0.374354 0.395682 0.583264 -0.285255
O57   O     O_2   0.462466 0.435223 0.675599 -0.241453
O58   O     O_3   0.437210 0.607604 0.585790 -0.474809
H38   H     H_    0.418703 0.641428 0.631325 0.351130
S3    S     S_3+6 0.057768 0.955941 0.402946 0.043133
O59   O     O_2   0.126379 0.893678 0.418772 -0.288473
O60   O     O_2   0.038763 0.932675 0.326246 -0.248879
O61   O     O_3   0.064464 0.106176 0.416305 -0.474732
H39   H     H_    0.080293 0.139884 0.369884 0.351525
S4    S     S_3+6 0.943430 0.957657 0.598966 0.047038
O62   O     O_2   0.874474 0.895871 0.583277 -0.285334
O63   O     O_2   0.962610 0.935452 0.675582 -0.241395
O64   O     O_3   0.937393 0.107734 0.585700 -0.474650
H40   H     H_    0.918751 0.141591 0.631171 0.351075
S5    S     S_3+6 0.849564 0.138392 0.403125 0.024309
O65   O     O_2   0.804513 0.228354 0.364638 -0.259235
O66   O     O_2   0.894453 0.202794 0.457102 -0.300518
O67   O     O_3   0.906846 0.078940 0.343542 -0.445986
H41   H     H_    0.931477 0.149455 0.322226 0.369526
S6    S     S_3+6 0.152139 0.139662 0.598517 0.027819
O68   O     O_2   0.198370 0.230243 0.635695 -0.252920
O69   O     O_2   0.106520 0.202964 0.545183 -0.297868
O70   O     O_3   0.095821 0.082424 0.659496 -0.448114
H42   H     H_    0.071318 0.153666 0.680439 0.367477
S7    S     S_3+6 0.349502 0.638463 0.403118 0.024651
O71   O     O_2   0.304411 0.728502 0.364745 -0.259350
O72   O     O_2   0.394451 0.702751 0.457093 -0.300023
O73   O     O_3   0.406712 0.579127 0.343426 -0.445202
H43   H     H_    0.431348 0.649680 0.322160 0.370070
S8    S     S_3+6 0.652080 0.639596 0.598507 0.027700
O74   O     O_2   0.698269 0.730109 0.635796 -0.252887
O75   O     O_2   0.606521 0.703001 0.545162 -0.298156
O76   O     O_3   0.595687 0.582246 0.659379 -0.448276
H44   H     H_    0.571208 0.653462 0.680388 0.367479
S9    S     S_3+6 0.445470 0.925211 0.911706 0.091114
O77   O     O_2   0.502972 0.842142 0.885080 -0.240095
O78   O     O_2   0.397138 0.854616 0.959979 -0.235898
O79   O     O_3   0.399402 0.975547 0.841205 -0.478057
H45   H     H_    0.396547 0.905546 0.807988 0.357825
S10   S     S_3+6 0.518996 0.904035 0.070622 0.072154
O80   O     O_2   0.454073 0.840698 0.098426 -0.180454
O81   O     O_2   0.554275 0.823290 0.016498 -0.259351
O82   O     O_3   0.575473 0.927927 0.138404 -0.538241
H46   H     H_    0.582789 0.847040 0.159848 0.360263
S11   S     S_3+6 0.945470 0.425212 0.911706 0.091120
O83   O     O_2   0.002972 0.342142 0.885080 -0.240084
O84   O     O_2   0.897138 0.354616 0.959980 -0.235892
O85   O     O_3   0.899402 0.475547 0.841206 -0.478073
H47   H     H_    0.896547 0.405547 0.807988 0.357828
S12   S     S_3+6 0.018997 0.404035 0.070623 0.072109
O86   O     O_2   0.954073 0.340698 0.098426 -0.180506
O87   O     O_2   0.054276 0.323290 0.016498 -0.259352
O88   O     O_3   0.075473 0.427928 0.138404 -0.538266
H48   H     H_    0.082789 0.347040 0.159848 0.360180

loop_
_geom_bond_atom_site_label_1
_geom_bond_atom_site_label_2
_geom_bond_distance
_ccdc_geom_bond_type
O7    Cr3   1.958440 S    
C18   O42   1.259995 A    
Cr11  O51   1.985840 S    
O4    C12   1.308173 A    
C53   C57   1.398402 A    
C73   C74   1.386410 A    
O39   C19   1.288525 A    
O20   Cr12  2.065281 S    
O5    Cr1   1.958440 S    
C60   H20   1.078143 S    
C84   F4    1.357245 S    
C38   H8    1.108893 S    
C31   C32   1.346030 A    
O8    Cr4   1.948128 S    
C56   C60   1.399708 A    
C60   C64   1.390413 A    
S6    O69   1.499330 D    
S4    O63   1.502251 D    
C33   C34   1.384692 A    
O1    C9    1.306658 A    
O88   H48   0.990544 S    
S1    O53   1.501316 D    
O79   H45   0.990388 S    
O7    C3    1.301891 A    
C59   C63   1.390835 A    
C37   C38   1.551118 S    
C5    O17   1.260637 A    
O36   Cr8   2.069942 S    
C96   H36   1.083376 S    
C57   C61   1.390871 A    
C53   S5    1.796831 S    
C70   C74   1.401650 A    
C15   C86   1.431998 S    
C51   C55   1.435944 A    
S3    O60   1.502254 D    
C90   H30   1.083602 S    
O82   H46   0.990542 S    
O45   C21   1.273755 A    
C1    C52   1.479249 S    
C89   H29   1.082982 S    
C77   C81   1.372376 A    
O76   H44   0.990789 S    
C43   C63   1.394758 A    
C82   F2    1.357245 S    
S5    O67   1.681220 S    
O23   Cr11  1.932423 S    
C48   C52   1.402836 A    
S6    O70   1.681268 S    
C81   F1    1.359093 S    
O30   C14   1.267639 A    
C39   S3    1.782698 S    
C41   C61   1.394725 A    
O32   Cr4   1.951290 S    
C1    O9    1.252196 A    
C2    C51   1.476677 S    
C40   S4    1.782382 S    
O25   Cr1   2.077750 S    
C13   C88   1.431998 S    
S5    O66   1.499357 D    
C45   H13   1.082454 S    
C3    O11   1.252225 A    
C12   C64   1.477836 S    
O11   Cr7   2.062846 S    
C4    O12   1.251072 A    
O21   C9    1.307084 A    
O33   Cr5   2.061607 S    
O55   H37   0.990372 S    
C66   C69   1.428770 A    
C9    C61   1.475394 S    
C65   S9    1.793437 S    
S7    O71   1.499073 D    
C92   C96   1.385394 A    
C66   S10   1.794343 S    
O6    Cr2   1.948128 S    
O27   Cr3   2.077750 S    
C27   C36   1.412166 A    
O19   Cr11  2.069179 S    
O28   C24   1.261432 A    
O70   H42   0.990746 S    
Cr4   O52   1.970530 S    
C26   C33   1.410236 A    
O47   C23   1.273755 A    
O2    Cr2   2.069758 S    
C52   C56   1.436473 A    
C48   H16   1.082252 S    
C33   H1    1.083354 S    
S11   O84   1.501335 D    
O2    C10   1.308212 A    
S10   O82   1.683022 S    
O10   Cr6   2.056709 S    
C54   C58   1.399725 A    
O42   Cr10  2.052744 S    
S11   O85   1.682607 S    
Cr5   O49   1.987544 S    
C22   C98   1.430571 S    
O27   C23   1.254135 A    
S9    O77   1.504195 D    
C77   H25   1.083712 S    
S7    O72   1.499384 D    
C50   C54   1.436445 A    
C89   C93   1.385566 A    
S12   O88   1.683021 S    
O8    C4    1.299423 A    
O34   Cr6   2.069942 S    
Cr7   O51   1.987544 S    
C16   C85   1.442245 S    
C31   C39   1.485035 S    
C20   O44   1.259995 A    
C26   C30   1.383810 A    
C94   H34   1.083377 S    
C87   C91   1.406467 A    
C5    C26   1.428097 S    
S1    O54   1.502203 D    
C28   C32   1.383778 A    
O31   Cr3   1.941375 S    
O24   Cr12  1.935945 S    
O9    Cr5   2.062846 S    
C36   H4    1.083333 S    
C78   C82   1.385300 A    
C4    C49   1.476651 S    
O22   C10   1.306793 A    
C71   C75   1.400623 A    
O48   Cr12  1.944976 S    
O58   H38   0.990392 S    
O16   C8    1.279620 A    
C72   C76   1.401649 A    
C43   C47   1.396710 A    
C42   C62   1.395571 A    
O64   H40   0.990395 S    
S12   O87   1.499334 D    
C2    O10   1.251104 A    
S3    O61   1.679666 S    
C29   C37   1.485074 S    
C44   C64   1.395542 A    
O16   Cr8   1.950621 S    
C38   S2    1.782332 S    
C79   H27   1.083712 S    
S10   O80   1.503973 D    
Cr10  O50   1.987627 S    
O29   Cr1   1.941375 S    
C25   C29   1.382406 A    
O13   C5    1.276730 A    
O40   C20   1.295276 A    
C92   H32   1.083600 S    
O48   C24   1.268259 A    
O12   Cr8   2.056709 S    
Cr12  O52   1.987627 S    
C46   H14   1.082252 S    
O15   C7    1.276730 A    
C65   C70   1.415370 A    
C78   C98   1.403939 A    
O5    C1    1.301905 A    
C18   C69   1.465328 S    
C77   C97   1.405730 A    
C24   C100  1.430571 S    
O39   Cr7   1.941019 S    
O25   C21   1.254135 A    
C68   S12   1.794343 S    
C23   C99   1.440861 S    
O45   Cr9   1.950024 S    
C75   C76   1.386410 A    
C68   C71   1.428769 A    
C84   C88   1.392715 A    
O40   Cr8   1.936185 S    
C67   C68   1.396730 A    
C21   C97   1.440862 S    
C47   C51   1.403277 A    
S8    O75   1.499314 D    
C13   O33   1.260911 A    
C59   H19   1.078007 S    
C29   C30   1.346048 A    
C11   C63   1.475430 S    
C67   C72   1.415370 A    
Cr2   O50   1.970530 S    
C6    C25   1.428965 S    
O15   Cr7   1.943736 S    
O32   C16   1.267639 A    
O35   Cr7   2.061607 S    
Cr1   O49   1.970486 S    
C42   H10   1.075844 S    
O30   Cr2   1.951290 S    
C37   S1    1.782675 S    
S8    O76   1.681276 S    
C41   H9    1.075778 S    
S2    O57   1.502253 D    
Cr3   O51   1.970486 S    
O26   C22   1.261431 A    
O21   Cr9   1.932423 S    
C49   C53   1.435978 A    
C7    O19   1.260620 A    
S9    O78   1.501334 D    
C83   C87   1.396754 A    
O37   Cr5   1.941019 S    
S7    O73   1.681195 S    
C75   H23   1.083335 S    
S9    O79   1.682607 S    
C37   H7    1.108550 S    
O3    C11   1.306704 A    
S11   O83   1.504195 D    
C3    C50   1.479272 S    
C76   H24   1.083258 S    
C47   H15   1.082466 S    
O47   Cr11  1.950024 S    
O3    Cr3   2.059673 S    
C94   C98   1.389434 A    
O14   Cr6   1.950621 S    
O38   C18   1.295276 A    
S1    O55   1.679579 S    
C93   C97   1.392359 A    
C67   S11   1.793438 S    
C80   C84   1.385300 A    
O29   C13   1.269976 A    
C57   H17   1.078022 S    
O73   H43   0.990735 S    
O37   C17   1.288525 A    
O22   Cr10  1.935945 S    
C44   C48   1.397896 A    
S5    O65   1.499097 D    
O14   C6    1.279601 A    
C19   O43   1.267657 A    
C14   C87   1.442244 S    
C82   C86   1.392716 A    
C80   C100  1.403938 A    
C8    O20   1.259581 A    
C54   S6    1.795468 S    
C45   C49   1.403259 A    
C73   H21   1.083336 S    
O17   Cr9   2.069179 S    
C91   C95   1.385568 A    
O6    C2    1.299407 A    
C15   O35   1.260911 A    
C19   C72   1.459993 S    
O24   C12   1.306813 A    
C17   O41   1.267657 A    
C86   C90   1.404222 A    
S2    O58   1.679622 S    
C35   H3    1.083357 S    
C17   C70   1.459992 S    
C14   O34   1.265639 A    
C43   H11   1.075796 S    
C34   H2    1.083336 S    
C35   C36   1.384702 A    
O44   Cr12  2.052744 S    
C25   C34   1.412155 A    
C39   H5    1.108513 S    
C55   C59   1.398404 A    
O1    Cr1   2.059673 S    
C32   C40   1.486222 S    
O85   H47   0.990386 S    
C20   C71   1.465328 S    
C83   F3    1.359095 S    
Cr8   O52   1.985473 S    
C56   S8    1.795533 S    
O41   Cr9   2.050009 S    
C65   C66   1.396730 A    
S12   O86   1.503973 D    
O46   Cr10  1.944976 S    
C40   H6    1.108916 S    
O13   Cr5   1.943736 S    
C10   C62   1.477863 S    
Cr6   O50   1.985473 S    
O61   H39   0.991020 S    
O46   C22   1.268260 A    
O31   C15   1.269977 A    
C58   C62   1.390382 A    
C85   C89   1.406467 A    
O23   C11   1.307063 A    
C58   H18   1.078151 S    
S8    O74   1.498744 D    
C95   C99   1.392360 A    
C78   H26   1.083826 S    
O26   Cr2   2.066784 S    
S4    O62   1.501357 D    
C79   C83   1.372376 A    
C55   S7    1.796748 S    
C96   C100  1.389431 A    
S3    O59   1.501338 D    
C69   C73   1.400623 A    
S6    O68   1.498724 D    
C44   H12   1.075823 S    
C95   H35   1.083415 S    
O4    Cr4   2.069758 S    
C74   H22   1.083258 S    
O67   H41   0.990735 S    
C8    C27   1.429014 S    
C42   C46   1.397916 A    
C93   H33   1.083414 S    
C16   O36   1.265639 A    
C41   C45   1.396682 A    
C30   C38   1.486210 S    
C27   C31   1.382413 A    
O18   Cr10  2.065281 S    
S2    O56   1.501364 D    
C6    O18   1.259578 A    
O28   Cr4   2.066784 S    
O43   Cr11  2.050009 S    
C39   C40   1.551123 S    
C79   C99   1.405732 A    
C7    C28   1.428055 S    
C90   C94   1.385392 A    
C81   C85   1.396754 A    
C80   H28   1.083827 S    
S10   O81   1.499334 D    
C46   C50   1.402847 A    
S4    O64   1.679605 S    
Cr9   O49   1.985840 S    
C91   H31   1.082982 S    
C88   C92   1.404220 A    
C28   C35   1.410233 A    
O38   Cr6   1.936185 S    
