data_mof_unit_52269.cif
_audit_creation_date              2012-12-11T14:00:02-0500
_audit_creation_method            fapswitch 2.2
_symmetry_space_group_name_H-M    P1
_symmetry_Int_Tables_number       1
_space_group_crystal_system       triclinic
_cell_length_a                    11.12598
_cell_length_b                    11.221751
_cell_length_c                    18.639896
_cell_angle_alpha                 90.040081
_cell_angle_beta                  90.569528
_cell_angle_gamma                 120.315697
_cell_volume                      2008.86922053

loop_
_atom_site_label
_atom_site_type_symbol
_atom_type_description
_atom_site_fract_x
_atom_site_fract_y
_atom_site_fract_z
_atom_type_partial_charge
C1    C     C_R   0.581384 0.452356 0.861897 0.510296
C2    C     C_R   0.445983 0.588075 0.357652 0.605230
C3    C     C_R   0.058668 0.518062 0.349654 0.610709
C4    C     C_R   0.461238 0.942171 0.349938 0.601136
C5    C     C_2   0.975092 0.479794 0.573152 0.411867
C6    C     C_2   0.482792 0.509221 0.584802 0.403867
C7    C     C_2   0.526455 0.079428 0.566579 0.483773
C8    C     C_2   0.527974 0.035563 0.410113 0.381740
C9    C     C_2   0.432723 0.581748 0.435763 0.371816
C10   C     C_2   0.974818 0.489008 0.412872 0.375557
C11   C     C_2   0.948695 0.380305 0.453056 0.469644
C12   C     C_R   0.549368 0.129251 0.861907 0.511325
C13   C     C_2   0.539955 0.662674 0.479783 0.461805
C14   C     C_2   0.470207 0.100253 0.442575 0.430744
C15   C     C_2   0.516601 0.156777 0.514582 0.417959
C16   C     C_2   0.541209 0.637819 0.557372 0.446114
C17   C     C_2   0.910369 0.372013 0.526996 0.417384
C18   C     C_2   0.916970 0.449044 0.935442 -0.107742
C19   C     C_2   0.553272 0.469481 0.935782 -0.105666
C20   C     C_2   0.533549 0.083955 0.935756 -0.106963
C21   C     C_2   0.447155 0.916777 0.064263 -0.106027
C22   C     C_2   0.466481 0.550064 0.064264 -0.106407
C23   C     C_R   0.871196 0.419584 0.861398 0.509018
C24   C     C_2   0.086840 0.533347 0.064336 -0.108688
C25   C     C_2   0.035596 0.607965 0.035172 -0.149603
C26   C     C_2   0.396306 0.422059 0.036450 -0.145311
C27   C     C_2   0.573220 0.965414 0.035218 -0.149438
C28   C     C_2   0.604352 0.027063 0.963750 -0.145078
C29   C     C_2   0.427453 0.391475 0.964980 -0.149965
C30   C     C_2   0.972947 0.576463 0.963502 -0.146954
C31   C     C_R   0.450655 0.579800 0.138083 0.508776
C32   C     C_R   0.130077 0.548845 0.138777 0.508205
C33   C     C_R   0.418795 0.871217 0.138073 0.509009
C34   C     C_R   0.538986 0.481971 0.649892 0.630085
C35   C     C_R   0.547708 0.128613 0.639567 0.634921
C36   C     C_R   0.934068 0.454721 0.647246 0.608774
Cr1   Cr    Cr6+3 0.464030 0.233680 0.750360 1.100137
Cr2   Cr    Cr6+3 0.766320 0.230350 0.750360 1.126881
Cr3   Cr    Cr6+3 0.769650 0.535970 0.750360 1.108902
Cr4   Cr    Cr6+3 0.233680 0.464030 0.249640 1.130383
Cr5   Cr    Cr6+3 0.230350 0.766320 0.249640 1.112151
Cr6   Cr    Cr6+3 0.535970 0.769650 0.249640 1.117627
F1    F     F_    0.962917 0.274330 0.427511 -0.481209
F2    F     F_    0.497459 0.947792 0.554137 -0.550356
F3    F     F_    0.387661 0.396322 0.547294 -0.506133
F4    F     F_    0.075027 0.608140 0.552525 -0.559101
F5    F     F_    0.660065 0.767569 0.452660 -0.488283
F6    F     F_    0.360783 0.105287 0.412697 -0.532060
F7    F     F_    0.539873 0.285204 0.529144 -0.610340
F8    F     F_    0.633051 0.748112 0.597952 -0.520970
F9    F     F_    0.818536 0.242882 0.550154 -0.572646
F10   F     F_    0.940521 0.583517 0.435340 -0.557550
F11   F     F_    0.303297 0.497611 0.462263 -0.565765
F12   F     F_    0.648476 0.047900 0.436583 -0.508309
H1    H     H_    0.038031 0.693172 0.064154 0.157913
H2    H     H_    0.456981 0.093911 0.966735 0.104371
H3    H     H_    0.638799 0.551997 0.965922 0.108572
H4    H     H_    0.908279 0.363323 0.966498 0.106164
H5    H     H_    0.314435 0.337310 0.066274 0.158858
H6    H     H_    0.655901 0.960373 0.063978 0.156560
H7    H     H_    0.686700 0.024836 0.934060 0.158665
H8    H     H_    0.344951 0.303300 0.936320 0.155726
H9    H     H_    0.973567 0.659998 0.933800 0.158640
H10   H     H_    0.092962 0.454110 0.033916 0.107887
H11   H     H_    0.542582 0.636682 0.033165 0.104839
H12   H     H_    0.361519 0.913214 0.034041 0.108114
O1    O     O_R   0.434100 0.092480 0.829780 -0.489544
O2    O     O_R   0.362730 0.477510 0.175360 -0.496615
O3    O     O_R   0.114780 0.637270 0.175360 -0.504362
O4    O     O_R   0.522490 0.885220 0.175360 -0.506239
O5    O     O_R   0.432250 0.092620 0.670380 -0.467599
O6    O     O_R   0.907380 0.339630 0.670380 -0.467653
O7    O     O_R   0.660370 0.567750 0.670380 -0.453507
O8    O     O_R   0.092620 0.432250 0.329620 -0.443984
O9    O     O_R   0.339630 0.907380 0.329620 -0.447069
O10   O     O_R   0.567750 0.660370 0.329620 -0.432539
O11   O     O_R   0.475790 0.362860 0.676880 -0.460018
O12   O     O_R   0.907520 0.341620 0.829780 -0.498451
O13   O     O_R   0.637140 0.112930 0.676880 -0.406030
O14   O     O_R   0.887070 0.524210 0.676880 -0.464927
O15   O     O_R   0.362860 0.475790 0.323120 -0.414534
O16   O     O_R   0.112930 0.637140 0.323120 -0.449023
O17   O     O_R   0.524210 0.887070 0.323120 -0.466234
O18   O     O_3   0.666667 0.333333 0.749450 -0.378321
O19   O     O_3   0.333333 0.666667 0.250550 -0.392960
O20   O     O_R   0.658380 0.565900 0.829780 -0.493376
O21   O     O_R   0.092480 0.434100 0.170220 -0.500262
O22   O     O_R   0.341620 0.907520 0.170220 -0.494717
O23   O     O_R   0.565900 0.658380 0.170220 -0.489646
O24   O     O_R   0.477510 0.362730 0.824640 -0.509420
O25   O     O_R   0.637270 0.114780 0.824640 -0.493272
O26   O     O_R   0.885220 0.522490 0.824640 -0.501276

loop_
_geom_bond_atom_site_label_1
_geom_bond_atom_site_label_2
_ccdc_geom_bond_type
C1    O24   A    
C6    F3    S    
C21   H12   S    
C12   O25   A    
C4    C8    S    
C10   F10   S    
C17   F9    S    
C19   H3    S    
Cr1   O24   S    
Cr4   O21   S    
C33   O22   A    
C16   F8    S    
Cr3   O18   S    
C27   H6    S    
C34   O11   A    
C21   C33   S    
Cr2   O13   S    
C5    C36   S    
Cr6   O4    S    
C3    O8    A    
C9    C13   D    
C4    O9    A    
C18   H4    S    
C31   O23   A    
Cr1   O18   S    
C11   F1    S    
C18   C30   D    
C26   H5    S    
C20   C28   D    
C20   H2    S    
C28   H7    S    
C7    C15   D    
C21   C27   D    
C35   O5    A    
C24   H10   S    
C30   H9    S    
C31   O2    A    
C12   O1    A    
Cr2   O6    S    
C1    C19   S    
C22   C31   S    
C18   C23   S    
C24   C25   D    
C36   O14   A    
C8    F12   S    
C13   F5    S    
C14   F6    S    
Cr2   O12   S    
C32   O21   A    
Cr1   O11   S    
Cr2   O25   S    
C6    C34   S    
Cr4   O19   S    
C24   C32   S    
C22   H11   S    
Cr5   O9    S    
C12   C20   S    
C3    O16   A    
Cr6   O19   S    
C7    F2    S    
C33   O4    A    
Cr3   O7    S    
Cr1   O5    S    
C22   C26   D    
C9    F11   S    
C19   C29   D    
Cr3   O26   S    
C2    O10   A    
Cr5   O3    S    
C25   C30   S    
Cr5   O22   S    
C29   H8    S    
C11   C17   S    
C8    C14   D    
Cr2   O18   S    
C23   O26   A    
C7    C35   S    
Cr4   O15   S    
Cr6   O17   S    
C25   H1    S    
C32   O3    A    
Cr5   O19   S    
C5    F4    S    
Cr6   O10   S    
Cr6   O23   S    
Cr3   O14   S    
C3    C10   S    
C4    O17   A    
Cr5   O16   S    
Cr1   O1    S    
C35   O13   A    
Cr4   O8    S    
C15   F7    S    
C23   O12   A    
C10   C11   D    
C34   O7    A    
C6    C16   D    
C1    O20   A    
C5    C17   D    
C26   C29   S    
Cr4   O2    S    
C13   C16   S    
C27   C28   S    
C14   C15   S    
C2    O15   A    
Cr3   O20   S    
C2    C9    S    
C36   O6    A    
