data_mof_unit_49862.cif
_audit_creation_date              2012-12-10T19:04:13-0500
_audit_creation_method            fapswitch 2.2
_symmetry_space_group_name_H-M    P1
_symmetry_Int_Tables_number       1
_space_group_crystal_system       triclinic
_cell_length_a                    10.630361
_cell_length_b                    10.885537
_cell_length_c                    9.559342
_cell_angle_alpha                 89.595541
_cell_angle_beta                  90.107522
_cell_angle_gamma                 90.368819
_cell_volume                      1106.12784201

loop_
_atom_site_label
_atom_site_type_symbol
_atom_type_description
_atom_site_fract_x
_atom_site_fract_y
_atom_site_fract_z
_atom_type_partial_charge
C1    C     C_R   0.499649 0.262937 0.500293 0.814900
C2    C     C_3   0.959037 0.604602 0.555125 -0.191522
C3    C     C_3   0.042505 0.595113 0.423421 -0.151637
C4    C     C_3   0.122582 0.499519 0.500184 0.030166
C5    C     C_R   0.503920 0.060916 0.620223 0.077330
C6    C     C_R   0.498300 0.130711 0.498662 -0.131513
C7    C     C_R   0.490808 0.067618 0.370696 -0.258027
C8    C     C_R   0.489924 0.938522 0.367393 0.138493
C9    C     C_R   0.497036 0.870433 0.495053 -0.099042
C10   C     C_R   0.502578 0.937008 0.618319 0.073535
C11   C     C_3   0.510402 0.924721 0.773609 -0.520253
C12   C     C_R   0.259377 0.499806 0.499981 0.774478
C13   C     C_3   0.511371 0.066515 0.776223 -0.195458
C14   C     C_R   0.556860 0.593371 0.073475 0.235306
C15   C     C_R   0.431449 0.416340 0.074862 -0.027081
C16   C     C_R   0.430523 0.417064 0.926014 -0.024432
C17   C     C_R   0.561713 0.590028 0.926656 0.198089
C18   C     C_3   0.700195 0.621419 0.928990 -0.094954
C19   C     C_3   0.690107 0.633990 0.086482 -0.443310
C20   C     C_R   0.498969 0.737399 0.498960 0.818568
C21   C     C_R   0.740754 0.499555 0.499911 0.789159
C22   C     C_3   0.041593 0.393912 0.444147 -0.164575
C23   C     C_3   0.959209 0.489469 0.367250 -0.130718
C24   C     C_3   0.877826 0.499026 0.499148 0.013002
C25   C     C_3   0.958003 0.403342 0.575832 -0.167387
C26   C     C_3   0.041445 0.508933 0.631993 -0.156368
Cu1   Cu    Cu3+1 0.499990 0.499980 0.640670 0.941513
Cu2   Cu    Cu3+1 0.500010 0.500020 0.359330 0.956701
H1    H     H_    0.924689 0.480195 0.258300 0.139015
H2    H     H_    0.599596 0.881230 0.807944 0.199411
H3    H     H_    0.425522 0.106075 0.824065 0.128266
H4    H     H_    0.378203 0.346838 0.130918 0.129472
H5    H     H_    0.376216 0.348439 0.870703 0.129963
H6    H     H_    0.724497 0.708886 0.874310 0.146234
H7    H     H_    0.749159 0.568126 0.145665 0.228879
H8    H     H_    0.698056 0.730593 0.122297 0.165292
H9    H     H_    0.078568 0.307821 0.398707 0.128065
H10   H     H_    0.920267 0.325086 0.638333 0.159635
H11   H     H_    0.077855 0.516920 0.740512 0.145498
H12   H     H_    0.922176 0.690747 0.600576 0.134320
H13   H     H_    0.080095 0.673505 0.361057 0.132753
H14   H     H_    0.485372 0.117592 0.272423 0.182121
H15   H     H_    0.423675 0.883194 0.818947 0.190341
N1    N     N_R   0.500800 0.500930 0.147930 -0.186006
N2    N     N_R   0.500800 0.500890 0.852020 -0.196106
O1    O     O_R   0.500000 0.319640 0.618810 -0.586063
O2    O     O_R   0.500010 0.319680 0.381230 -0.585410
O3    O     O_R   0.316850 0.499950 0.618770 -0.591416
O4    O     O_R   0.316860 0.499990 0.381190 -0.587474
O5    O     O_R   0.499990 0.680320 0.618770 -0.589202
O6    O     O_R   0.500000 0.680360 0.381190 -0.546486
O7    O     O_R   0.683140 0.500010 0.618810 -0.590164
O8    O     O_R   0.683150 0.500050 0.381230 -0.589926
C27   C     C_2   0.632611 0.121206 0.830101 0.888857
O9    O     O_2   0.732916 0.097607 0.774023 -0.613779
O10   O     O_R   0.629474 0.198241 0.946250 -0.789384
H16   H     H_    0.716202 0.228282 0.974748 0.324548
N3    N     N_3   0.784189 0.519302 0.895781 -0.573878
H17   H     H_    0.840762 0.545766 0.811827 0.237521
H18   H     H_    0.734195 0.440325 0.867593 0.272211
N4    N     N_3   0.480930 0.878894 0.234491 -0.569255
H19   H     H_    0.397524 0.906956 0.186109 0.210729
H20   H     H_    0.555909 0.909341 0.172364 0.216458

loop_
_geom_bond_atom_site_label_1
_geom_bond_atom_site_label_2
_ccdc_geom_bond_type
Cu1   O3    S    
C16   N2    A    
C4    C26   S    
C23   C24   S    
Cu2   O2    S    
C11   H15   S    
C6    C7    A    
C16   H5    S    
C4    C12   S    
C4    C22   S    
Cu2   O4    S    
C9    C20   S    
C5    C13   S    
Cu1   O5    S    
C8    N4    S    
C12   O3    A    
Cu1   N2    S    
N4    H20   S    
C12   O4    A    
N3    H17   S    
C15   H4    S    
C2    C26   S    
C19   H7    S    
Cu1   O7    S    
Cu2   O8    S    
C21   O8    A    
C11   C13   S    
C14   C17   A    
C5    C6    A    
C26   H11   S    
C15   C16   A    
C23   H1    S    
Cu1   O1    S    
C5    C10   A    
C13   H3    S    
C15   N1    A    
C17   C18   S    
C20   O6    A    
C2    C3    S    
C19   H8    S    
C18   H6    S    
C2    C24   S    
N4    H19   S    
C25   H10   S    
Cu2   O6    S    
C27   O10   S    
C1    O1    A    
C21   C24   S    
C10   C11   S    
C17   N2    A    
N3    H18   S    
C3    C4    S    
C2    H12   S    
C7    C8    A    
C24   C25   S    
C8    C9    A    
C14   N1    A    
C13   C27   S    
C9    C10   A    
C7    H14   S    
Cu1   Cu2   S    
O10   H16   S    
C22   C23   S    
C18   C19   S    
C20   O5    A    
C25   C26   S    
C27   O9    D    
C22   H9    S    
C3    C23   S    
C14   C19   S    
Cu2   N1    S    
C21   O7    A    
C3    H13   S    
C1    C6    S    
C11   H2    S    
C1    O2    A    
C18   N3    S    
C22   C25   S    
