data_mof_unit_40152.cif
_audit_creation_date              2012-12-10T18:48:40-0500
_audit_creation_method            fapswitch 2.2
_symmetry_space_group_name_H-M    P1
_symmetry_Int_Tables_number       1
_space_group_crystal_system       triclinic
_cell_length_a                    15.594043
_cell_length_b                    14.557558
_cell_length_c                    10.054777
_cell_angle_alpha                 90.005876
_cell_angle_beta                  89.995567
_cell_angle_gamma                 90.000259
_cell_volume                      2282.54682712

loop_
_atom_site_label
_atom_site_type_symbol
_atom_type_description
_atom_site_fract_x
_atom_site_fract_y
_atom_site_fract_z
_atom_type_partial_charge
C1    C     C_R   0.118543 0.379395 0.499891 0.949468
C2    C     C_R   0.999306 0.419171 0.928570 0.203316
C3    C     C_R   0.000779 0.419171 0.071407 0.203224
C4    C     C_R   0.000702 0.580828 0.928595 0.203233
C5    C     C_R   0.500723 0.080829 0.071433 0.203311
C6    C     C_R   0.500751 0.919172 0.928568 0.203316
C7    C     C_R   0.499277 0.919172 0.071404 0.203245
C8    C     C_R   0.499256 0.080829 0.928595 0.203227
C9    C     C_R   0.828282 0.228921 0.436716 0.008023
C10   C     C_R   0.261923 0.665193 0.565572 0.022873
C11   C     C_R   0.171716 0.771073 0.436732 0.008030
C12   C     C_R   0.881452 0.620598 0.499906 0.949458
C13   C     C_R   0.738067 0.334830 0.565553 0.022881
C14   C     C_R   0.171694 0.228906 0.563212 0.008007
C15   C     C_R   0.738090 0.665194 0.434393 0.022853
C16   C     C_R   0.828267 0.771066 0.563327 0.008041
C17   C     C_R   0.261930 0.334807 0.434442 0.022868
C18   C     C_R   0.238074 0.834813 0.434433 0.022851
C19   C     C_R   0.671710 0.271088 0.563269 0.008021
C20   C     C_R   0.761926 0.165178 0.434440 0.022885
C21   C     C_R   0.328280 0.728934 0.563278 0.008029
C22   C     C_R   0.761912 0.834809 0.565603 0.022838
C23   C     C_R   0.881454 0.379400 0.500098 0.949447
C24   C     C_R   0.328292 0.271073 0.436760 0.007986
C25   C     C_R   0.238058 0.165172 0.565531 0.022852
C26   C     C_R   0.671736 0.728938 0.436668 0.008046
C27   C     C_R   0.185113 0.686788 0.500665 -0.055017
C28   C     C_R   0.814884 0.313217 0.500652 -0.055011
C29   C     C_R   0.814884 0.686784 0.499356 -0.055041
C30   C     C_R   0.185104 0.313200 0.499311 -0.054989
C31   C     C_R   0.685110 0.186790 0.499343 -0.055016
C32   C     C_R   0.314884 0.813217 0.499341 -0.055006
C33   C     C_R   0.314884 0.186783 0.500670 -0.054951
C34   C     C_R   0.118547 0.620599 0.500102 0.949454
C35   C     C_R   0.685118 0.813219 0.500642 -0.055044
C36   C     C_3   0.996098 0.672260 0.141559 -0.822204
C37   C     C_3   0.996254 0.327738 0.858446 -0.822343
C38   C     C_3   0.003987 0.327742 0.141509 -0.822135
C39   C     C_3   0.003761 0.672258 0.858494 -0.822277
C40   C     C_3   0.503825 0.172260 0.141565 -0.822283
C41   C     C_3   0.503922 0.827748 0.858433 -0.822372
C42   C     C_3   0.496179 0.827744 0.141507 -0.822330
C43   C     C_3   0.496159 0.172260 0.858495 -0.822197
C44   C     C_R   0.618549 0.879403 0.500094 0.949472
C45   C     C_R   0.381453 0.120599 0.500107 0.949472
C46   C     C_R   0.381451 0.879403 0.499898 0.949460
C47   C     C_R   0.618543 0.120603 0.499901 0.949459
C48   C     C_R   0.999234 0.580828 0.071431 0.203286
H1    H     H_    0.999326 0.667406 0.248897 0.302078
H2    H     H_    0.000662 0.667393 0.751150 0.302104
H3    H     H_    0.948344 0.714942 0.889209 0.210320
H4    H     H_    0.064481 0.708370 0.882580 0.213453
H5    H     H_    0.500679 0.167407 0.248901 0.302066
H6    H     H_    0.564577 0.208315 0.117524 0.213481
H7    H     H_    0.448458 0.214999 0.110859 0.210299
H8    H     H_    0.500657 0.832593 0.751110 0.302084
H9    H     H_    0.564743 0.791805 0.882342 0.213560
H10   H     H_    0.448654 0.784913 0.889259 0.210253
H11   H     H_    0.499335 0.832606 0.248844 0.302102
H12   H     H_    0.051422 0.715051 0.110759 0.210225
H13   H     H_    0.435424 0.791689 0.117477 0.213492
H14   H     H_    0.551548 0.785010 0.110750 0.210311
H15   H     H_    0.499313 0.167396 0.751147 0.302076
H16   H     H_    0.435401 0.208325 0.882558 0.213489
H17   H     H_    0.551542 0.214993 0.889235 0.210272
H18   H     H_    0.901612 0.188018 0.281307 0.183687
H19   H     H_    0.935888 0.151315 0.431604 0.171332
H20   H     H_    0.325294 0.544786 0.596280 0.167900
H21   H     H_    0.280935 0.591671 0.734321 0.189586
H22   H     H_    0.098359 0.812000 0.281390 0.183687
H23   H     H_    0.935298 0.708262 0.117590 0.213523
H24   H     H_    0.064110 0.848674 0.431741 0.171314
H25   H     H_    0.674705 0.455263 0.596194 0.167918
H26   H     H_    0.719016 0.408407 0.734279 0.189572
H27   H     H_    0.098300 0.187977 0.718518 0.183693
H28   H     H_    0.064110 0.151275 0.568166 0.171322
H29   H     H_    0.674724 0.544782 0.403597 0.167914
H30   H     H_    0.719122 0.591677 0.265600 0.189579
H31   H     H_    0.901549 0.811950 0.718793 0.183685
H32   H     H_    0.935881 0.848670 0.568516 0.171309
H33   H     H_    0.325295 0.455232 0.403805 0.167913
H34   H     H_    0.999334 0.332594 0.751103 0.302082
H35   H     H_    0.281003 0.408347 0.265720 0.189557
H36   H     H_    0.174703 0.955217 0.403676 0.167908
H37   H     H_    0.219087 0.908316 0.265666 0.189590
H38   H     H_    0.598374 0.311986 0.718675 0.183688
H39   H     H_    0.564116 0.348712 0.568379 0.171309
H40   H     H_    0.825296 0.044746 0.403812 0.167926
H41   H     H_    0.780977 0.091588 0.265723 0.189569
H42   H     H_    0.401640 0.688006 0.718612 0.183695
H43   H     H_    0.435883 0.651339 0.568262 0.171323
H44   H     H_    0.825284 0.955212 0.596440 0.167918
H45   H     H_    0.051676 0.285066 0.889124 0.210361
H46   H     H_    0.780856 0.908314 0.734406 0.189583
H47   H     H_    0.401739 0.312089 0.281571 0.183693
H48   H     H_    0.435874 0.348662 0.431990 0.171343
H49   H     H_    0.174702 0.044744 0.596199 0.167922
H50   H     H_    0.219000 0.091645 0.734269 0.189565
H51   H     H_    0.598452 0.688072 0.281191 0.183685
H52   H     H_    0.564125 0.651324 0.431460 0.171307
H53   H     H_    0.935545 0.291618 0.882546 0.213425
H54   H     H_    0.000678 0.332601 0.248852 0.302075
H55   H     H_    0.948734 0.284854 0.110635 0.210174
H56   H     H_    0.064858 0.291835 0.117591 0.213577
N1    N     N_R   0.000000 0.500000 0.857200 -0.118883
N2    N     N_3   0.728674 0.578759 0.366767 -0.438090
N3    N     N_3   0.910351 0.792566 0.619761 -0.478843
N4    N     N_3   0.271373 0.421253 0.366879 -0.438113
N5    N     N_3   0.228652 0.921244 0.366829 -0.438109
N6    N     N_3   0.589610 0.292604 0.619640 -0.478864
N7    N     N_3   0.771367 0.078715 0.366892 -0.438118
N8    N     N_3   0.410386 0.707419 0.619597 -0.478903
N9    N     N_3   0.771325 0.921240 0.633240 -0.438103
N10   N     N_3   0.410421 0.292616 0.380559 -0.478936
N11   N     N_3   0.228623 0.078732 0.633111 -0.438123
N12   N     N_R   1.000000 0.500000 0.142800 -0.118905
N13   N     N_3   0.589652 0.707438 0.380232 -0.478840
N14   N     N_R   0.500000 0.000000 0.857200 -0.118886
N15   N     N_R   0.500000 0.000000 0.142800 -0.118887
N16   N     N_3   0.910382 0.207409 0.380332 -0.478874
N17   N     N_3   0.271353 0.578756 0.633158 -0.438107
N18   N     N_3   0.089609 0.792588 0.380410 -0.478889
N19   N     N_3   0.728630 0.421289 0.633113 -0.438121
N20   N     N_3   0.089575 0.207376 0.619490 -0.478893
O1    O     O_R   0.091610 0.408380 0.614620 -0.618985
O2    O     O_R   0.408390 0.091620 0.385380 -0.618985
O3    O     O_R   0.408390 0.091620 0.614620 -0.623858
O4    O     O_R   0.591610 0.908380 0.385380 -0.618981
O5    O     O_R   0.408390 0.908380 0.385380 -0.623839
O6    O     O_R   0.591610 0.091620 0.614620 -0.618988
O7    O     O_R   0.591610 0.091620 0.385380 -0.623844
O8    O     O_R   0.408390 0.908380 0.614620 -0.618990
O9    O     O_R   0.908390 0.591620 0.385380 -0.623831
O10   O     O_R   0.908390 0.591620 0.614620 -0.618977
O11   O     O_R   0.091610 0.408380 0.385380 -0.623829
O12   O     O_R   0.908390 0.408380 0.385380 -0.619010
O13   O     O_R   0.091610 0.591620 0.614620 -0.623842
O14   O     O_R   0.091610 0.591620 0.385380 -0.618989
O15   O     O_R   0.908390 0.408380 0.614620 -0.623844
O16   O     O_R   0.591610 0.908380 0.614620 -0.623813
Zn1   Zn    Zn3+2 0.000000 0.500000 0.653120 0.949129
Zn2   Zn    Zn3+2 0.000000 0.500000 0.346880 0.949122
Zn3   Zn    Zn3+2 0.500000 0.000000 0.653120 0.949125
Zn4   Zn    Zn3+2 0.500000 0.000000 0.346880 0.949127

loop_
_geom_bond_atom_site_label_1
_geom_bond_atom_site_label_2
_ccdc_geom_bond_type
C10   C27   A    
C39   H3    S    
C11   C18   A    
C24   N10   S    
N15   Zn4   S    
C12   C29   S    
C33   C45   S    
C18   N5    S    
H42   N8    S    
C10   N17   S    
C19   C31   A    
C46   O5    A    
C43   H15   S    
O5    Zn4   S    
C22   C35   A    
H32   N3    S    
O9    Zn2   S    
C23   O12   A    
C5    N15   A    
C15   N2    S    
C23   O15   A    
H29   N2    S    
H38   N6    S    
C1    O1    A    
C41   H10   S    
H37   N5    S    
C3    N12   A    
C25   N11   S    
C46   O8    A    
C13   N19   S    
H47   N10   S    
H35   N4    S    
C7    C42   S    
O12   Zn2   S    
C16   N3    S    
C26   N13   S    
H40   N7    S    
O11   Zn2   S    
C3    C38   S    
O1    Zn1   S    
H25   N19   S    
C6    C41   S    
C38   H56   S    
C8    C43   S    
C13   C28   A    
C36   C48   S    
H21   N17   S    
H49   N11   S    
H19   N16   S    
C42   H14   S    
C36   H23   S    
C48   N12   A    
O8    Zn3   S    
C39   H4    S    
H33   N4    S    
C44   O16   A    
C12   O10   A    
C17   C30   A    
H48   N10   S    
C14   C30   A    
C37   H45   S    
H46   N9    S    
C43   H16   S    
C15   C29   A    
C22   N9    S    
C27   C34   S    
C21   C32   A    
C17   C24   A    
C14   N20   S    
C13   C19   A    
C47   O6    A    
C8    N14   A    
H27   N20   S    
H28   N20   S    
C7    N15   A    
N14   Zn3   S    
O14   Zn2   S    
C17   N4    S    
H39   N6    S    
C15   C26   A    
C16   C29   A    
C34   O14   A    
C47   O7    A    
H43   N8    S    
H20   N17   S    
C41   H8    S    
C38   H55   S    
O6    Zn3   S    
H44   N9    S    
H51   N13   S    
C20   N7    S    
H22   N18   S    
C9    C20   A    
C4    C39   S    
C11   C27   A    
C45   O2    A    
C43   H17   S    
C40   H7    S    
H31   N3    S    
O3    Zn3   S    
C23   C28   S    
O16   Zn3   S    
C35   C44   S    
O4    Zn4   S    
C42   H13   S    
N12   Zn2   S    
C40   H6    S    
C12   O9    A    
C37   H34   S    
C5    C40   S    
C11   N18   S    
C18   C32   A    
C21   N8    S    
C4    C48   A    
C19   N6    S    
O13   Zn1   S    
C44   O4    A    
C16   C22   A    
C2    N1    A    
H24   N18   S    
C32   C46   S    
C24   C33   A    
C36   H12   S    
C10   C21   A    
C5    C8    A    
C6    C7    A    
C4    N1    A    
H41   N7    S    
C34   O13   A    
H36   N5    S    
H30   N2    S    
C2    C3    A    
C41   H9    S    
C38   H54   S    
O10   Zn1   S    
C37   H53   S    
O15   Zn1   S    
C2    C37   S    
H50   N11   S    
C45   O3    A    
O2    Zn4   S    
C1    C30   S    
H26   N19   S    
C14   C25   A    
N1    Zn1   S    
H18   N16   S    
O7    Zn4   S    
C26   C35   A    
C39   H2    S    
C40   H5    S    
C42   H11   S    
C9    N16   S    
C31   C47   S    
H52   N13   S    
C1    O11   A    
C6    N14   A    
C36   H1    S    
C9    C28   A    
C25   C33   A    
C20   C31   A    
