data_mof_unit_58089.cif
_audit_creation_date              2012-12-10T18:53:39-0500
_audit_creation_method            fapswitch 2.2
_symmetry_space_group_name_H-M    P1
_symmetry_Int_Tables_number       1
_space_group_crystal_system       triclinic
_cell_length_a                    10.663417
_cell_length_b                    9.888329
_cell_length_c                    19.157976
_cell_angle_alpha                 89.658435
_cell_angle_beta                  92.02195
_cell_angle_gamma                 88.91362
_cell_volume                      2018.41659464

loop_
_atom_site_label
_atom_site_type_symbol
_atom_type_description
_atom_site_fract_x
_atom_site_fract_y
_atom_site_fract_z
_atom_type_partial_charge
C1    C     C_R   0.258777 0.501440 0.502449 0.946901
C2    C     C_R   0.737184 0.499094 0.488690 0.919245
C3    C     C_R   0.490543 0.501068 0.930076 0.327672
C4    C     C_R   0.502676 0.503763 0.070299 0.328001
C5    C     C_R   0.499825 0.500331 0.365833 0.864879
C6    C     C_R   0.499096 0.499489 0.634292 0.875848
C7    C     C_R   0.058950 0.381318 0.504102 0.338265
C8    C     C_R   0.929613 0.621162 0.463839 0.298274
C9    C     C_R   0.937192 0.375980 0.478895 0.384119
C10   C     C_R   0.057736 0.626047 0.480245 0.410707
C11   C     C_R   0.868153 0.497574 0.471856 -0.437601
C12   C     C_R   0.122955 0.504638 0.499530 -0.397591
C13   C     C_R   0.578630 0.068334 0.545533 0.174395
C14   C     C_R   0.430993 0.929785 0.450379 0.181797
C15   C     C_R   0.426354 0.074903 0.452494 0.186897
C16   C     C_R   0.570500 0.924251 0.548605 0.223265
C17   C     C_R   0.581172 0.587990 0.256607 -0.287013
C18   C     C_R   0.545981 0.388426 0.747726 -0.271871
C19   C     C_R   0.432977 0.603756 0.743543 -0.275716
C20   C     C_R   0.426014 0.411590 0.252953 -0.276899
C21   C     C_R   0.585719 0.586532 0.184077 0.194426
C22   C     C_R   0.541299 0.385975 0.820227 0.201857
C23   C     C_R   0.427345 0.603512 0.815962 0.186537
C24   C     C_R   0.428703 0.408693 0.180484 0.201619
C25   C     C_R   0.507652 0.498100 0.145902 0.008330
C26   C     C_R   0.484078 0.495644 0.854481 0.009744
C27   C     C_R   0.501922 0.500567 0.290642 -0.073535
C28   C     C_R   0.493485 0.497724 0.709664 -0.079532
H1    H     H_    0.640544 0.656113 0.286378 0.147997
H2    H     H_    0.591226 0.305246 0.721201 0.154781
H3    H     H_    0.388943 0.686282 0.713785 0.165947
H4    H     H_    0.363683 0.345373 0.279777 0.146360
N1    N     N_R   0.500000 0.857200 0.500000 -0.137357
N2    N     N_R   0.500000 0.142800 0.500000 -0.146608
N3    N     N_R   0.608542 0.486232 0.034247 -0.163750
N4    N     N_R   0.384790 0.519301 0.966141 -0.161703
N5    N     N_R   0.602536 0.484777 0.964985 -0.154358
N6    N     N_R   0.390738 0.520294 0.035387 -0.154259
O1    O     O_R   0.316770 0.614620 0.500000 -0.536088
O2    O     O_R   0.683230 0.385380 0.500000 -0.616292
O3    O     O_R   0.683230 0.614620 0.500000 -0.590593
O4    O     O_R   0.316770 0.385380 0.500000 -0.585852
O5    O     O_R   0.499990 0.614700 0.398140 -0.600858
O6    O     O_R   0.500010 0.385300 0.601860 -0.652917
O7    O     O_R   0.500010 0.614700 0.601860 -0.589411
O8    O     O_R   0.499990 0.385300 0.398140 -0.620456
Zn1   Zn    Zn3+2 0.500000 0.653120 0.500000 0.997939
Zn2   Zn    Zn3+2 0.500000 0.346880 0.500000 0.957031
O9    O     O_3   0.112368 0.264398 0.532454 -0.717918
H5    H     H_    0.166667 0.290357 0.573085 0.336178
O10   O     O_3   0.867289 0.736979 0.439664 -0.768347
H6    H     H_    0.797935 0.709737 0.407173 0.341532
O11   O     O_3   0.887122 0.251131 0.464839 -0.720298
H7    H     H_    0.821276 0.263180 0.427342 0.341768
O12   O     O_3   0.120862 0.747015 0.477883 -0.751532
H8    H     H_    0.061798 0.823776 0.468172 0.376490
N7    N     N_2   0.664090 0.678467 0.149585 -0.302391
H9    H     H_    0.654264 0.776333 0.167249 0.224749
C29   C     C_3   0.794517 0.635591 0.149137 -0.748081
H10   H     H_    0.836337 0.634416 0.203129 0.227012
H11   H     H_    0.847313 0.707105 0.116910 0.241708
H12   H     H_    0.803725 0.533008 0.126324 0.258391
N8    N     N_2   0.595212 0.273867 0.858413 -0.297144
H13   H     H_    0.668916 0.226827 0.834134 0.225460
C30   C     C_3   0.504953 0.177852 0.882092 -0.775736
H14   H     H_    0.456051 0.130139 0.836606 0.232983
H15   H     H_    0.434775 0.228203 0.915195 0.253270
H16   H     H_    0.554236 0.097533 0.913849 0.241528
N9    N     N_2   0.370969 0.715425 0.850030 -0.302029
H17   H     H_    0.401811 0.807306 0.832277 0.222713
C31   C     C_3   0.235431 0.711891 0.850199 -0.750479
H18   H     H_    0.195111 0.722893 0.796113 0.227220
H19   H     H_    0.199550 0.796526 0.882179 0.240156
H20   H     H_    0.204172 0.615282 0.873137 0.259490
N10   N     N_2   0.351558 0.316319 0.142657 -0.297287
H21   H     H_    0.269739 0.293437 0.167005 0.225384
C32   C     C_3   0.417258 0.196074 0.119744 -0.776793
H22   H     H_    0.453334 0.135850 0.165619 0.230389
H23   H     H_    0.496664 0.223080 0.086706 0.254029
H24   H     H_    0.351843 0.133042 0.088138 0.242068
N11   N     N_2   0.667996 0.133768 0.590597 -0.319518
H25   H     H_    0.657992 0.235475 0.596565 0.286195
C33   C     C_3   0.798722 0.091102 0.587786 -0.690755
H26   H     H_    0.825796 0.029816 0.634746 0.215841
H27   H     H_    0.859936 0.180660 0.588994 0.280028
H28   H     H_    0.817101 0.032082 0.539856 0.278628
N12   N     N_2   0.364549 0.858029 0.397203 -0.229297
H29   H     H_    0.268609 0.870281 0.397241 0.257430
C34   C     C_3   0.414855 0.865488 0.328061 -0.761121
H30   H     H_    0.382940 0.959586 0.300701 0.206883
H31   H     H_    0.379867 0.779259 0.296640 0.250667
H32   H     H_    0.519134 0.860164 0.330808 0.240618
N13   N     N_2   0.356368 0.151629 0.401210 -0.264501
H33   H     H_    0.398782 0.160763 0.354050 0.213610
C35   C     C_3   0.221476 0.137715 0.397033 -0.666934
H34   H     H_    0.193318 0.080523 0.349497 0.193633
H35   H     H_    0.176744 0.239703 0.392829 0.257667
H36   H     H_    0.186638 0.085186 0.443778 0.280753
N14   N     N_2   0.634502 0.847209 0.602123 -0.238254
H37   H     H_    0.729039 0.830896 0.595710 0.240437
C36   C     C_3   0.598311 0.873822 0.672984 -0.758810
H38   H     H_    0.639437 0.968855 0.692809 0.236414
H39   H     H_    0.632959 0.789665 0.707526 0.238031
H40   H     H_    0.494535 0.881495 0.675548 0.235297

loop_
_geom_bond_atom_site_label_1
_geom_bond_atom_site_label_2
_ccdc_geom_bond_type
O12   H8    S    
N8    C30   S    
N13   H33   S    
C6    O7    A    
C17   H1    S    
C23   N9    S    
C35   H34   S    
N12   H29   S    
C19   H3    S    
C14   N1    A    
C4    C25   S    
C35   H36   S    
O11   H7    S    
C36   H38   S    
C33   H26   S    
N3    N5    A    
C14   N12   S    
N7    C29   S    
C2    O3    A    
C13   N11   S    
O2    Zn2   S    
C23   C26   A    
N9    C31   S    
C22   N8    S    
C5    C27   S    
C6    C28   S    
C20   C24   A    
C30   H15   S    
C18   H2    S    
C34   H31   S    
C15   N2    A    
C32   H23   S    
C5    O5    A    
C4    N3    A    
C29   H10   S    
N13   C35   S    
C6    O6    A    
C1    C12   S    
C2    C11   S    
N11   C33   S    
N11   H25   S    
O7    Zn1   S    
C7    C12   A    
O8    Zn2   S    
C29   H11   S    
O10   H6    S    
C17   C27   A    
C18   C28   A    
C24   C25   A    
C7    O9    S    
C31   H19   S    
C32   H22   S    
C17   C21   A    
C19   C23   A    
N10   H21   S    
C21   N7    S    
C10   O12   S    
C16   N1    A    
N10   C32   S    
N14   H37   S    
C30   H16   S    
O3    Zn1   S    
C16   N14   S    
O4    Zn2   S    
C34   H32   S    
C19   C28   A    
C9    C11   A    
C8    O10   S    
C10   C12   A    
C8    C10   A    
C33   H27   S    
C4    N6    A    
C30   H14   S    
C36   H40   S    
N12   C34   S    
N1    Zn1   S    
C9    O11   S    
O1    Zn1   S    
C20   H4    S    
C32   H24   S    
C7    C9    A    
C21   C25   A    
C29   H12   S    
N14   C36   S    
C18   C22   A    
C3    C26   S    
C15   N13   S    
C31   H20   S    
C35   H35   S    
C24   N10   S    
C20   C27   A    
C5    O8    A    
N4    N6    A    
C13   N2    A    
N7    H9    S    
C3    N4    A    
C8    C11   A    
N9    H17   S    
C1    O1    A    
N8    H13   S    
C2    O2    A    
C1    O4    A    
C31   H18   S    
C33   H28   S    
N2    Zn2   S    
C3    N5    A    
C36   H39   S    
O9    H5    S    
C22   C26   A    
C13   C16   A    
C14   C15   A    
C34   H30   S    
O5    Zn1   S    
O6    Zn2   S    
