data_mof_unit_24610.cif
_audit_creation_date              2012-12-10T17:19:57-0500
_audit_creation_method            fapswitch 2.2
_symmetry_space_group_name_H-M    P1
_symmetry_Int_Tables_number       1
_space_group_crystal_system       triclinic
_cell_length_a                    9.621274
_cell_length_b                    10.755045
_cell_length_c                    15.438051
_cell_angle_alpha                 87.614757
_cell_angle_beta                  73.774249
_cell_angle_gamma                 89.995577
_cell_volume                      1532.41597962

loop_
_atom_site_label
_atom_site_type_symbol
_atom_type_description
_atom_site_fract_x
_atom_site_fract_y
_atom_site_fract_z
_atom_type_partial_charge
C1    C     C_R   0.000413 0.262836 0.499218 0.785991
C2    C     C_R   0.666616 0.557729 0.900988 0.112377
C3    C     C_R   0.764344 0.603013 0.946241 0.158916
C4    C     C_R   0.515336 0.554465 0.944812 0.001031
C5    C     C_R   0.468809 0.566720 0.040054 0.028087
C6    C     C_R   0.569726 0.609963 0.083740 -0.206806
C7    C     C_R   0.713841 0.631920 0.036629 -0.230190
C8    C     C_R   0.408211 0.543418 0.897731 0.219712
C9    C     C_R   0.264514 0.519661 0.945324 -0.257857
C10   C     C_R   0.220746 0.514701 0.039282 0.110798
C11   C     C_R   0.322033 0.539054 0.087854 0.087533
C12   C     C_R   0.917703 0.503323 0.672058 0.799230
C13   C     C_R   0.075015 0.489590 0.085179 -0.194252
C14   C     C_R   0.028664 0.486647 0.179109 -0.190168
C15   C     C_R   0.273605 0.531001 0.182775 -0.254669
C16   C     C_R   0.142842 0.139763 0.333669 -0.166762
C17   C     C_R   0.206856 0.079463 0.254269 -0.126406
C18   C     C_R   0.200881 0.950180 0.253159 -0.143600
C19   C     C_R   0.132301 0.880437 0.331684 -0.202120
C20   C     C_R   0.069848 0.939499 0.413292 0.097256
C21   C     C_R   0.072836 0.070816 0.413942 0.097091
C22   C     C_R   0.002585 0.129266 0.494597 -0.090714
C23   C     C_R   0.000348 0.737226 0.498685 0.774857
C24   C     C_R   0.930526 0.059701 0.572465 -0.203834
C25   C     C_R   0.930665 0.931221 0.572381 -0.166342
C26   C     C_R   0.001310 0.871246 0.494095 -0.085150
C27   C     C_R   0.698507 0.664339 0.379716 -0.133834
C28   C     C_R   0.652940 0.746003 0.321528 -0.206908
C29   C     C_R   0.509368 0.747592 0.322412 -0.222573
C30   C     C_R   0.410858 0.666716 0.380859 -0.141809
C31   C     C_R   0.452019 0.581624 0.441350 0.214900
C32   C     C_R   0.601492 0.581066 0.441073 0.208814
C33   C     C_R   0.548681 0.422605 0.555987 0.000580
C34   C     C_R   0.082302 0.501197 0.327689 0.743560
C35   C     C_R   0.400967 0.422614 0.555948 -0.019955
C36   C     C_R   0.870967 0.526398 0.768936 -0.073263
C37   C     C_R   0.128108 0.506053 0.228448 -0.053243
C38   C     C_R   0.912127 0.616540 0.900804 -0.221803
C39   C     C_R   0.964834 0.580552 0.811903 -0.187320
C40   C     C_R   0.724745 0.509463 0.815632 -0.187158
Cu1   Cu    Cu3+1 0.140660 0.499990 0.500010 0.945873
Cu2   Cu    Cu3+1 0.859340 0.500010 0.499990 0.954345
H1    H     H_    0.996712 0.472169 0.048365 0.143784
H2    H     H_    0.875757 0.105242 0.633858 0.139545
H3    H     H_    0.147754 0.240279 0.331402 0.135773
H4    H     H_    0.259880 0.133359 0.193151 0.142808
H5    H     H_    0.248903 0.903732 0.191144 0.140315
H6    H     H_    0.126599 0.780560 0.327561 0.104566
H7    H     H_    0.876452 0.878126 0.633795 0.156388
H8    H     H_    0.582934 0.359186 0.602055 0.140161
H9    H     H_    0.810867 0.670769 0.373593 0.194331
H10   H     H_    0.348047 0.540939 0.222765 0.153470
H11   H     H_    0.473936 0.811357 0.276941 0.160624
H12   H     H_    0.325316 0.359200 0.601945 0.141419
H13   H     H_    0.915586 0.467425 0.213030 0.160398
H14   H     H_    0.185551 0.508015 0.908171 0.171989
H15   H     H_    0.078039 0.596401 0.776609 0.193955
H16   H     H_    0.657635 0.455899 0.785089 0.182859
N1    N     N_R   0.648320 0.501210 0.499140 -0.199222
N2    N     N_R   0.352470 0.501290 0.499110 -0.201193
O1    O     O_R   0.118810 0.319640 0.500010 -0.576043
O2    O     O_R   0.881240 0.319660 0.500000 -0.575652
O3    O     O_R   0.055570 0.499980 0.629840 -0.572244
O4    O     O_R   0.818000 0.500010 0.629830 -0.555800
O5    O     O_R   0.118760 0.680340 0.500000 -0.584858
O6    O     O_R   0.881190 0.680360 0.499990 -0.581106
O7    O     O_R   0.182000 0.499990 0.370170 -0.605795
O8    O     O_R   0.944430 0.500020 0.370160 -0.602244
H17   H     H_    0.787238 0.667020 0.072163 0.146189
H18   H     H_    0.729886 0.808564 0.275426 0.156085
H19   H     H_    0.304163 0.674720 0.375374 0.194123
H20   H     H_    0.986345 0.656258 0.933813 0.149147
H21   H     H_    0.539334 0.632590 0.153761 0.150054
Br1   Br    Br    0.437291 0.591056 0.771934 -0.578043

loop_
_geom_bond_atom_site_label_1
_geom_bond_atom_site_label_2
_ccdc_geom_bond_type
C16   C21   A    
C34   C37   S    
Cu1   Cu2   S    
C19   C20   A    
Cu1   O1    S    
C4    C8    A    
C18   H5    S    
C30   H19   S    
Cu1   O7    S    
C29   H11   S    
C23   O6    A    
C28   C29   A    
C5    C11   A    
C3    C7    A    
C5    C6    A    
C12   O4    A    
C39   H15   S    
C18   C19   A    
C23   C26   S    
C15   C37   A    
C11   C15   A    
C3    C38   A    
C8    C9    A    
C12   C36   S    
C9    C10   A    
Cu2   O2    S    
C14   H13   S    
C1    C22   S    
C33   N1    A    
C21   C22   A    
C1    O2    A    
C35   H12   S    
Cu2   O8    S    
C27   H9    S    
C38   H20   S    
C40   H16   S    
C36   C40   A    
C24   C25   A    
C34   O8    A    
C12   O3    A    
C19   H6    S    
C16   C17   A    
Cu1   O5    S    
C33   H8    S    
C35   N2    A    
C31   N2    A    
Cu2   N1    S    
C2    C4    A    
C29   C30   A    
C31   C32   A    
C30   C31   A    
C8    Br1   S    
C17   C18   A    
C9    H14   S    
C15   H10   S    
C17   H4    S    
C24   H2    S    
C22   C24   A    
Cu1   O3    S    
Cu2   O4    S    
C13   H1    S    
C6    H21   S    
C27   C32   A    
C36   C39   A    
C28   H18   S    
Cu1   N2    S    
C4    C5    A    
C10   C13   A    
C1    O1    A    
C34   O7    A    
C7    H17   S    
C6    C7    A    
C23   O5    A    
C2    C3    A    
C25   C26   A    
C14   C37   A    
C38   C39   A    
C20   C26   A    
C33   C35   A    
C25   H7    S    
C10   C11   A    
C16   H3    S    
C2    C40   A    
C20   C21   A    
C27   C28   A    
Cu2   O6    S    
C32   N1    A    
C13   C14   A    
