data_mof_unit_42242.cif
_audit_creation_date              2012-12-11T14:40:16-0500
_audit_creation_method            fapswitch 2.2
_symmetry_space_group_name_H-M    P1
_symmetry_Int_Tables_number       1
_space_group_crystal_system       triclinic
_cell_length_a                    19.528383
_cell_length_b                    10.8486
_cell_length_c                    19.48327
_cell_angle_alpha                 90.115445
_cell_angle_beta                  97.870521
_cell_angle_gamma                 90.600246
_cell_volume                      4088.50882762

loop_
_atom_site_label
_atom_site_type_symbol
_atom_type_description
_atom_site_fract_x
_atom_site_fract_y
_atom_site_fract_z
_atom_type_partial_charge
C1    C     C_R   0.709804 0.994370 0.367752 0.531799
C2    C     C_R   0.289791 0.992830 0.632611 0.535665
C3    C     C_R   0.209805 0.494365 0.367752 0.531727
C4    C     C_R   0.789790 0.492828 0.632610 0.534431
C5    C     C_3   0.709677 0.311597 0.499685 -0.149794
C6    C     C_3   0.313793 0.378972 0.510255 -0.134077
C7    C     C_3   0.209682 0.811596 0.499686 -0.149459
C8    C     C_3   0.813789 0.878986 0.510257 -0.133604
C9    C     C_3   0.739360 0.366590 0.437855 0.060352
C10   C     C_3   0.261637 0.364487 0.561638 0.054675
C11   C     C_3   0.239361 0.866594 0.437854 0.060319
C12   C     C_3   0.761633 0.864498 0.561640 0.056349
C13   C     C_3   0.724179 0.497953 0.459659 -0.116480
C14   C     C_3   0.233109 0.493783 0.545511 -0.110179
C15   C     C_3   0.224177 0.997955 0.459659 -0.116607
C16   C     C_3   0.733104 0.993793 0.545514 -0.111050
C17   C     C_3   0.797567 0.504508 0.501175 -0.147413
C18   C     C_3   0.178886 0.436385 0.489152 -0.124402
C19   C     C_3   0.297566 0.004516 0.501174 -0.147753
C20   C     C_3   0.678882 0.936393 0.489153 -0.124607
C21   C     C_3   0.812524 0.372684 0.478459 -0.101663
C22   C     C_3   0.207685 0.306603 0.506067 -0.114907
C23   C     C_3   0.312526 0.872695 0.478457 -0.101868
C24   C     C_3   0.707682 0.806613 0.506069 -0.114572
C25   C     C_3   0.782970 0.317828 0.540965 -0.115106
C26   C     C_3   0.259502 0.321894 0.453565 -0.109655
C27   C     C_3   0.282976 0.817834 0.540963 -0.114852
C28   C     C_3   0.759499 0.821906 0.453567 -0.109775
C29   C     C_3   0.768347 0.449259 0.563145 0.060221
C30   C     C_3   0.230651 0.450981 0.437493 0.055459
C31   C     C_3   0.268349 0.949262 0.563145 0.059892
C32   C     C_3   0.730647 0.950992 0.437495 0.055585
C33   C     C_3   0.505356 0.271297 0.978685 0.136241
C34   C     C_3   0.455198 0.275530 0.032742 0.117055
C35   C     C_3   0.004316 0.772102 0.978983 0.135184
C36   C     C_3   0.953995 0.774965 0.032920 0.116932
C37   C     C_3   0.545025 0.165199 0.017475 -0.121016
C38   C     C_3   0.407121 0.179387 0.991246 -0.163924
C39   C     C_3   0.044460 0.666392 0.017693 -0.120124
C40   C     C_3   0.906519 0.678327 0.991110 -0.159966
C41   C     C_3   0.494724 0.169978 0.071459 0.033549
C42   C     C_3   0.457919 0.175423 0.937609 0.020901
C43   C     C_3   0.994032 0.669881 0.071618 0.032795
C44   C     C_3   0.957516 0.675642 0.937648 0.021818
C45   C     C_R   0.535082 0.179697 0.338050 0.533956
C46   C     C_R   0.464929 0.180150 0.661968 0.542608
C47   C     C_R   0.035081 0.679697 0.338050 0.533909
C48   C     C_R   0.964927 0.680150 0.661967 0.543847
C49   C     C_3   0.447418 0.073029 0.031368 -0.146970
C50   C     C_3   0.497381 0.068813 0.976113 -0.127035
C51   C     C_3   0.947281 0.572387 0.031238 -0.148893
C52   C     C_3   0.997417 0.569462 0.976118 -0.129075
C53   C     C_1   0.763593 0.426168 0.904622 0.017216
C54   C     C_1   0.220828 0.464669 0.087084 0.015666
C55   C     C_1   0.263603 0.926359 0.904657 0.016656
C56   C     C_1   0.716528 0.978288 0.084633 0.009662
C57   C     C_1   0.748476 0.409065 0.035030 -0.016908
C58   C     C_1   0.250282 0.406020 0.965111 -0.007581
C59   C     C_1   0.248464 0.909338 0.035064 -0.017771
C60   C     C_1   0.740773 0.941195 0.957569 -0.009704
C61   C     C_1   0.755404 0.416387 0.964344 -0.014481
C62   C     C_1   0.234249 0.438990 0.030583 -0.007756
C63   C     C_1   0.255388 0.916671 0.964377 -0.015234
C64   C     C_1   0.727414 0.962973 0.025848 -0.012144
C65   C     C_1   0.743103 0.395630 0.095222 0.014972
C66   C     C_1   0.262915 0.372212 0.909635 0.013794
C67   C     C_1   0.243113 0.895806 0.095256 0.014142
C68   C     C_1   0.751884 0.913307 0.900293 0.010577
C69   C     C_R   0.726685 0.317076 0.368553 0.532204
C70   C     C_R   0.273662 0.315323 0.631140 0.533221
C71   C     C_R   0.226686 0.817078 0.368553 0.532021
C72   C     C_R   0.773660 0.815329 0.631139 0.530665
C73   C     C_R   0.704032 0.999216 0.154484 0.562159
C74   C     C_R   0.278208 0.952870 0.836479 0.548394
C75   C     C_R   0.205284 0.495697 0.154241 0.556597
C76   C     C_R   0.778197 0.452818 0.836460 0.550360
C77   C     C_R   0.526786 0.178072 0.142779 0.556373
C78   C     C_R   0.436659 0.182537 0.863165 0.550831
C79   C     C_R   0.026548 0.678049 0.142899 0.557078
C80   C     C_R   0.936500 0.682592 0.863122 0.568615
C81   C     C_R   0.736003 0.360592 0.164388 0.548550
C82   C     C_R   0.274558 0.322877 0.844544 0.529575
C83   C     C_R   0.236011 0.860637 0.164403 0.548944
C84   C     C_R   0.763481 0.863277 0.834845 0.548235
C85   C     C_1   0.486017 0.172189 0.594807 -0.016629
C86   C     C_1   0.514159 0.171594 0.405287 -0.012095
C87   C     C_1   0.986014 0.672189 0.594805 -0.015148
C88   C     C_1   0.014157 0.671594 0.405286 -0.011925
C89   C     C_1   0.504262 0.168288 0.464789 -0.061111
C90   C     C_1   0.496011 0.168549 0.535339 -0.062423
C91   C     C_1   0.004259 0.668288 0.464787 -0.061123
C92   C     C_1   0.996008 0.668550 0.535337 -0.062088
C93   C     C_3   0.694970 0.443850 0.523192 -0.107969
C94   C     C_3   0.284851 0.509213 0.492613 -0.127520
C95   C     C_3   0.194971 0.943847 0.523193 -0.107756
C96   C     C_3   0.784846 0.009225 0.492616 -0.127239
Cr1   Cr    Cr6+3 0.765830 0.160660 0.268180 1.043448
Cr2   Cr    Cr6+3 0.234170 0.160660 0.731820 1.033384
Cr3   Cr    Cr6+3 0.265830 0.660660 0.268180 1.043502
Cr4   Cr    Cr6+3 0.734170 0.660660 0.731820 1.034009
Cr5   Cr    Cr6+3 0.612110 0.009150 0.248770 1.030679
Cr6   Cr    Cr6+3 0.387890 0.009150 0.751230 1.030663
Cr7   Cr    Cr6+3 0.112110 0.509150 0.248770 1.030935
Cr8   Cr    Cr6+3 0.887890 0.509150 0.751230 1.034453
Cr9   Cr    Cr6+3 0.615930 0.324050 0.248450 1.055962
Cr10  Cr    Cr6+3 0.384070 0.324050 0.751550 1.053567
Cr11  Cr    Cr6+3 0.115930 0.824050 0.248450 1.056006
Cr12  Cr    Cr6+3 0.884070 0.824050 0.751550 1.050986
H1    H     H_    0.672966 0.232349 0.496662 0.100026
H2    H     H_    0.369206 0.354038 0.520840 0.121179
H3    H     H_    0.172974 0.732344 0.496662 0.100096
H4    H     H_    0.869203 0.854054 0.520843 0.121150
H5    H     H_    0.647437 0.474403 0.543393 0.130542
H6    H     H_    0.316545 0.591649 0.483993 0.119621
H7    H     H_    0.147438 0.974394 0.543395 0.130744
H8    H     H_    0.816540 0.091662 0.483995 0.119618
H9    H     H_    0.698986 0.568394 0.423786 0.129107
H10   H     H_    0.222728 0.562195 0.585155 0.131248
H11   H     H_    0.198981 0.068393 0.423787 0.129062
H12   H     H_    0.722722 0.062199 0.585161 0.128548
H13   H     H_    0.333940 0.084270 0.503824 0.099862
H14   H     H_    0.623414 0.961230 0.478906 0.119913
H15   H     H_    0.833944 0.584258 0.503825 0.099794
H16   H     H_    0.123419 0.461225 0.478904 0.120117
H17   H     H_    0.861104 0.342924 0.459985 0.139032
H18   H     H_    0.175986 0.223528 0.513584 0.120459
H19   H     H_    0.361106 0.842941 0.459980 0.139018
H20   H     H_    0.675985 0.723536 0.513585 0.120575
H21   H     H_    0.807504 0.245270 0.575855 0.135996
H22   H     H_    0.270285 0.254054 0.413809 0.131170
H23   H     H_    0.307513 0.745275 0.575851 0.136691
H24   H     H_    0.770284 0.754065 0.413812 0.131341
H25   H     H_    0.602178 0.159273 0.029281 0.114960
H26   H     H_    0.350039 0.184244 0.979112 0.108805
H27   H     H_    0.101652 0.661087 0.029576 0.116673
H28   H     H_    0.849428 0.683664 0.978456 0.122677
H29   H     H_    0.423818 0.992483 0.054647 0.143178
H30   H     H_    0.515095 0.984394 0.951809 0.155077
H31   H     H_    0.923999 0.491259 0.054285 0.143457
H32   H     H_    0.015664 0.485540 0.951763 0.155627
O1    O     O_R   0.783230 0.287800 0.346510 -0.522792
O2    O     O_R   0.216770 0.287800 0.653490 -0.505034
O3    O     O_R   0.283230 0.787800 0.346510 -0.522854
O4    O     O_R   0.716770 0.787800 0.653490 -0.511432
O5    O     O_R   0.554500 0.081650 0.170370 -0.519567
O6    O     O_R   0.445500 0.081650 0.829630 -0.492841
O7    O     O_R   0.054500 0.581650 0.170370 -0.517707
O8    O     O_R   0.945500 0.581650 0.829630 -0.493560
O9    O     O_R   0.545430 0.285140 0.163100 -0.473272
O10   O     O_R   0.454570 0.285140 0.836900 -0.471062
O11   O     O_R   0.045430 0.785140 0.163100 -0.473597
O12   O     O_R   0.954570 0.785140 0.836900 -0.468508
O13   O     O_R   0.677850 0.374730 0.185500 -0.476696
O14   O     O_R   0.322150 0.374730 0.814500 -0.483576
O15   O     O_R   0.177850 0.874730 0.185500 -0.476994
O16   O     O_R   0.822150 0.874730 0.814500 -0.496710
O17   O     O_3   0.664630 0.164620 0.255130 -0.318706
O18   O     O_3   0.335370 0.164620 0.744870 -0.330900
O19   O     O_3   0.164630 0.664620 0.255130 -0.315808
O20   O     O_3   0.835370 0.664620 0.744870 -0.318033
O21   O     O_R   0.760130 0.037060 0.338610 -0.498943
O22   O     O_R   0.239870 0.037060 0.661390 -0.511916
O23   O     O_R   0.260130 0.537060 0.338610 -0.499013
O24   O     O_R   0.739870 0.537060 0.661390 -0.512718
O25   O     O_R   0.666620 0.921370 0.332440 -0.498583
O26   O     O_R   0.333380 0.921370 0.667560 -0.504595
O27   O     O_R   0.166620 0.421370 0.332440 -0.498678
O28   O     O_R   0.833380 0.421370 0.667560 -0.506726
O29   O     O_R   0.557170 0.082420 0.312350 -0.515066
O30   O     O_R   0.442830 0.082420 0.687650 -0.501079
O31   O     O_R   0.057170 0.582420 0.312350 -0.515154
O32   O     O_R   0.942830 0.582420 0.687650 -0.501256
O33   O     O_R   0.548310 0.285980 0.316250 -0.503034
O34   O     O_R   0.451690 0.285980 0.683750 -0.507098
O35   O     O_R   0.048310 0.785980 0.316250 -0.503217
O36   O     O_R   0.951690 0.785980 0.683750 -0.507212
O37   O     O_R   0.680520 0.375500 0.327470 -0.492514
O38   O     O_R   0.319480 0.375500 0.672530 -0.486934
O39   O     O_R   0.180520 0.875500 0.327470 -0.492883
O40   O     O_R   0.819480 0.875500 0.672530 -0.494117
O41   O     O_R   0.780350 0.286970 0.193350 -0.506373
O42   O     O_R   0.219650 0.286970 0.806650 -0.485016
O43   O     O_R   0.280350 0.786970 0.193350 -0.505548
O44   O     O_R   0.719650 0.786970 0.806650 -0.496296
O45   O     O_R   0.757460 0.036290 0.196640 -0.463682
O46   O     O_R   0.242540 0.036290 0.803360 -0.495786
O47   O     O_R   0.257460 0.536290 0.196640 -0.465096
O48   O     O_R   0.742540 0.536290 0.803360 -0.482762
O49   O     O_R   0.663740 0.920540 0.179290 -0.485151
O50   O     O_R   0.336260 0.920540 0.820710 -0.502139
O51   O     O_R   0.163740 0.420540 0.179290 -0.487071
O52   O     O_R   0.836260 0.420540 0.820710 -0.505615
I1    I     I_    0.558984 0.429543 0.945838 -0.290245
I2    I     I_    0.419713 0.439592 0.077391 -0.301689
I3    I     I_    0.057283 0.931647 0.946800 -0.290933
I4    I     I_    0.915719 0.936645 0.077391 -0.301516

loop_
_geom_bond_atom_site_label_1
_geom_bond_atom_site_label_2
_ccdc_geom_bond_type
C58   C62   S    
Cr9   O13   S    
C67   C83   S    
Cr10  O10   S    
C49   H29   S    
C17   C29   S    
C14   C18   S    
C7    C27   S    
C35   C39   S    
C35   C36   S    
C8    C96   S    
C81   O41   A    
C44   C80   S    
C19   C31   S    
C69   O37   A    
Cr3   O47   S    
C94   H6    S    
C3    O27   A    
C38   C49   S    
C39   H27   S    
C10   C22   S    
C15   C19   S    
C40   H28   S    
Cr5   O5    S    
Cr11  O35   S    
C33   C42   S    
C79   O11   A    
C16   C20   S    
Cr4   O48   S    
C9    C69   S    
C38   C42   S    
Cr3   O19   S    
C16   H12   S    
C15   C95   S    
C73   O49   A    
C11   C71   S    
C13   H9    S    
C22   H18   S    
C83   O15   A    
C4    O24   A    
Cr1   O45   S    
C69   O1    A    
Cr8   O52   S    
C81   O13   A    
Cr12  O40   S    
C80   O12   A    
C12   C24   S    
C71   O39   A    
C57   C61   S    
C9    C13   S    
C59   C67   T    
Cr12  O12   S    
C55   C74   S    
C11   C15   S    
C17   H15   S    
Cr9   O17   S    
Cr2   O18   S    
C95   H7    S    
Cr10  O14   S    
C55   C63   T    
C46   O34   A    
Cr5   O29   S    
C18   C30   S    
C23   C27   S    
C2    O26   A    
C40   C44   S    
C20   H14   S    
C4    C29   S    
C76   O48   A    
C3    O23   A    
Cr8   O32   S    
C46   C85   S    
Cr11  O11   S    
C34   I2    S    
C39   C52   S    
C12   C72   S    
Cr5   O17   S    
Cr6   O26   S    
Cr9   O33   S    
C87   C92   T    
Cr2   O2    S    
Cr7   O31   S    
C6    H2    S    
Cr6   O18   S    
C34   C41   S    
C53   C61   T    
Cr8   O20   S    
C28   C32   S    
C41   C49   S    
C73   O45   A    
Cr2   O22   S    
C58   C66   T    
C7    C11   S    
C25   C29   S    
C70   O2    A    
C16   C96   S    
C27   C31   S    
C51   C52   S    
C68   C84   S    
C12   C16   S    
C84   O44   A    
C10   C14   S    
C77   O9    A    
C91   C92   S    
C29   C93   S    
C19   C23   S    
C70   O38   A    
C39   C43   S    
C54   C62   T    
C6    C94   S    
Cr10  O18   S    
C1    C32   S    
C33   C37   S    
C27   H23   S    
C4    O28   A    
C82   O14   A    
C13   C93   S    
C2    C31   S    
C28   H24   S    
Cr1   O17   S    
Cr2   O42   S    
C3    C30   S    
C75   O51   A    
C36   I4    S    
C5    C9    S    
C76   O52   A    
C45   O33   A    
Cr8   O28   S    
Cr4   O20   S    
C47   O31   A    
Cr12  O16   S    
C88   C91   T    
C36   C40   S    
C8    C12   S    
Cr11  O19   S    
C74   O50   A    
C56   C64   T    
C33   C34   S    
Cr10  O34   S    
C48   C87   S    
C83   O43   A    
Cr4   O24   S    
C78   O10   A    
C93   H5    S    
Cr7   O27   S    
Cr5   O25   S    
C35   C44   S    
Cr1   O1    S    
C42   C50   S    
Cr3   O23   S    
C10   C70   S    
C14   C94   S    
Cr9   O37   S    
C32   C96   S    
C26   C30   S    
Cr1   O21   S    
C1    O21   A    
Cr4   O4    S    
C8    C28   S    
C5    C25   S    
C59   C63   S    
C53   C76   S    
Cr7   O51   S    
C72   O40   A    
C21   H17   S    
C9    C21   S    
C77   O5    A    
C7    C95   S    
C48   O32   A    
C42   C78   S    
C23   H19   S    
C20   C32   S    
Cr3   O3    S    
C72   O4    A    
C21   C25   S    
C19   H13   S    
C56   C73   S    
Cr11  O39   S    
C1    O25   A    
C34   C38   S    
Cr3   O43   S    
C75   O47   A    
C24   C28   S    
C57   C65   T    
C86   C89   T    
C26   H22   S    
C44   C52   S    
C6    C10   S    
C5    C93   S    
C85   C90   T    
C50   H30   S    
Cr1   O41   S    
Cr12  O20   S    
Cr7   O7    S    
C35   I3    S    
C7    H3    S    
C40   C51   S    
Cr9   O9    S    
C82   O42   A    
Cr5   O49   S    
C13   C17   S    
C60   C64   S    
C47   C88   S    
C20   C24   S    
C18   C22   S    
C45   C86   S    
C14   H10   S    
Cr8   O8    S    
Cr2   O46   S    
Cr6   O6    S    
C41   C77   S    
C37   C50   S    
C84   O16   A    
Cr7   O19   S    
C6    C26   S    
C71   O3    A    
C5    H1    S    
Cr6   O30   S    
C43   C51   S    
C31   C95   S    
Cr12  O36   S    
C11   C23   S    
Cr6   O50   S    
C8    H4    S    
C15   H11   S    
C79   O7    A    
C37   H25   S    
C38   H26   S    
C37   C41   S    
Cr4   O44   S    
C17   C21   S    
C78   O6    A    
C47   O35   A    
C33   I1    S    
C54   C75   S    
C52   H32   S    
C46   O30   A    
C80   O8    A    
C60   C68   T    
C30   C94   S    
C49   C50   S    
C22   C26   S    
C24   H20   S    
C65   C81   S    
C96   H8    S    
C36   C43   S    
C25   H21   S    
C74   O46   A    
C89   C90   S    
C43   C79   S    
Cr10  O38   S    
Cr11  O15   S    
C45   O29   A    
C66   C82   S    
C18   H16   S    
C2    O22   A    
C48   O36   A    
C51   H31   S    
