data_mof_unit_12600.cif
_audit_creation_date              2013-03-05T15:45:35-0500
_audit_creation_method            fapswitch 2.2
_symmetry_space_group_name_H-M    P1
_symmetry_Int_Tables_number       1
_space_group_crystal_system       triclinic
_cell_length_a                    27.630886
_cell_length_b                    10.648018
_cell_length_c                    10.0
_cell_angle_alpha                 88.358145
_cell_angle_beta                  90.429555
_cell_angle_gamma                 90.136878
_cell_volume                      2940.84421525

loop_
_atom_site_label
_atom_site_type_symbol
_atom_site_description
_atom_site_fract_x
_atom_site_fract_y
_atom_site_fract_z
_atom_type_partial_charge
O1    O     O_R   0.499990 0.319060 0.613040 -0.595337
O2    O     O_R   0.500010 0.319100 0.386900 -0.631408
C1    C     C_R   0.496068 0.262241 0.502064 0.919959
O3    O     O_R   0.428750 0.500000 0.613050 -0.617793
O4    O     O_R   0.428760 0.500040 0.386920 -0.616388
C2    C     C_R   0.405903 0.501082 0.499196 0.869890
Zn1   Zn    Zn3+2 0.499990 0.499970 0.650990 0.947964
Zn2   Zn    Zn3+2 0.500010 0.500030 0.349010 0.952187
O5    O     O_R   0.499990 0.680900 0.613100 -0.620499
O6    O     O_R   0.500010 0.680940 0.386960 -0.576646
O7    O     O_R   0.571240 0.499960 0.613080 -0.617138
O8    O     O_R   0.571250 0.500000 0.386950 -0.617711
C3    C     C_R   0.499679 0.737790 0.497748 0.943886
C4    C     C_R   0.594088 0.499828 0.500406 0.869594
C5    C     C_R   0.176620 0.408158 0.477061 0.563953
O9    O     O_2   0.201532 0.299321 0.487579 -0.539549
N1    N     N_R   0.200589 0.519937 0.479793 -0.347665
C6    C     C_R   0.177049 0.632524 0.471872 0.595241
C7    C     C_R   0.278829 0.521845 0.362842 0.024603
C8    C     C_R   0.329148 0.515940 0.370779 -0.314817
C9    C     C_R   0.326115 0.504584 0.613304 -0.203197
C10   C     C_R   0.275900 0.510502 0.606999 -0.125360
C11   C     C_R   0.252166 0.518766 0.482938 0.307887
C12   C     C_R   0.101212 0.521023 0.446858 -0.058426
C13   C     C_R   0.126453 0.406318 0.462625 -0.007824
C14   C     C_R   0.101199 0.292319 0.465070 -0.121911
C15   C     C_R   0.126610 0.636590 0.447062 -0.030368
C16   C     C_R   0.353007 0.506679 0.495108 -0.032243
H1    H     H_    0.343792 0.497903 0.710268 0.163621
H2    H     H_    0.255213 0.507795 0.698600 0.150481
H3    H     H_    0.119769 0.203624 0.481273 0.184198
C17   C     C_R   0.647009 0.499127 0.500412 -0.044399
C18   C     C_R   0.974580 0.403111 0.407764 0.038415
C19   C     C_R   0.974321 0.626789 0.462464 0.088536
C20   C     C_R   0.949246 0.512471 0.443179 0.043525
C21   C     C_R   0.947625 0.297577 0.363388 -0.047482
C22   C     C_R   0.897590 0.293884 0.382246 -0.223198
C23   C     C_R   0.873141 0.396613 0.433576 -0.012724
C24   C     C_R   0.898760 0.507113 0.461685 -0.053150
C25   C     C_R   0.873950 0.612076 0.509304 -0.021899
C26   C     C_R   0.823769 0.605159 0.525334 0.512651
N2    N     N_R   0.799469 0.497711 0.494667 -0.359750
C27   C     C_R   0.822964 0.393913 0.451078 0.518283
C28   C     C_R   0.721973 0.498076 0.377272 -0.103031
C29   C     C_R   0.671794 0.498994 0.378356 -0.210550
C30   C     C_R   0.673217 0.498356 0.621405 -0.216887
C31   C     C_R   0.723590 0.497440 0.619947 -0.091837
C32   C     C_R   0.747902 0.497139 0.497793 0.312832
O10   O     O_2   0.797671 0.288910 0.423989 -0.547585
C33   C     C_R   0.025416 0.403059 0.426246 0.084774
C34   C     C_R   0.050398 0.519360 0.434305 0.046112
C35   C     C_R   0.024499 0.633380 0.434854 0.036586
C36   C     C_R   0.051388 0.290801 0.448784 -0.129033
H4    H     H_    0.652513 0.499763 0.283637 0.163913
H5    H     H_    0.740864 0.498597 0.282745 0.142744
H6    H     H_    0.877418 0.212091 0.351187 0.189576
H7    H     H_    0.033367 0.200964 0.459842 0.131073
O11   O     O_2   0.202641 0.738811 0.489669 -0.523012
C37   C     C_R   0.100970 0.750350 0.419719 -0.101334
H8    H     H_    0.349773 0.518424 0.278951 0.157173
C38   C     C_R   0.949212 0.727934 0.517615 -0.142074
C39   C     C_R   0.899683 0.721077 0.539565 -0.124322
O12   O     O_2   0.799256 0.705566 0.568472 -0.549299
C40   C     C_R   0.049812 0.748331 0.410957 -0.109937
H9    H     H_    0.967827 0.811877 0.548308 0.134953
H10   H     H_    0.654892 0.498484 0.716758 0.163438
H11   H     H_    0.881679 0.801570 0.580349 0.191976
H12   H     H_    0.743737 0.496883 0.713260 0.145357
C41   C     C_2   0.473186 0.934701 0.397754 0.233325
C42   C     C_2   0.499503 0.870827 0.490324 -0.366651
H13   H     H_    0.522832 0.917750 0.560990 0.149908
C43   C     C_2   0.477623 0.070155 0.394065 -0.312041
C44   C     C_2   0.480244 0.133259 0.508237 0.036925
H14   H     H_    0.484702 0.115120 0.297237 0.163100
C45   C     C_2   0.526650 0.575452 0.923154 -0.128044
N3    N     N_2   0.500520 0.501330 0.852150 -0.191177
H15   H     H_    0.549144 0.644741 0.871660 0.161003
H16   H     H_    0.481390 0.430676 0.899621 0.160492
C46   C     C_2   0.528795 0.569993 0.073583 -0.123408
N4    N     N_2   0.500540 0.501360 0.147810 -0.190402
H17   H     H_    0.555235 0.629145 0.122186 0.160012
H18   H     H_    0.473553 0.450872 0.103070 0.160356
C47   C     C_2   0.256160 0.529962 0.227493 0.453001
H19   H     H_    0.279000 0.533030 0.139572 0.048669
O13   O     O_2   0.212358 0.533084 0.211235 -0.540700
C48   C     C_2   0.126741 0.870034 0.387822 0.560429
H20   H     H_    0.117561 0.954712 0.439755 0.007046
O14   O     O_2   0.156889 0.875619 0.299159 -0.478911
C49   C     C_2   0.024149 0.861546 0.354884 0.402027
H21   H     H_    0.036425 0.955351 0.377737 0.032831
O15   O     O_2   0.989753 0.850611 0.278634 -0.534045
N5    N     N_2   0.444113 0.874044 0.300263 -0.276966
H22   H     H_    0.443317 0.921333 0.208639 0.220092
C50   C     C_3   0.396001 0.841329 0.346147 -0.698422
H23   H     H_    0.377159 0.785968 0.268952 0.235245
H24   H     H_    0.374781 0.927996 0.363582 0.240331
H25   H     H_    0.397801 0.783247 0.440327 0.227935
N6    N     N_2   0.460589 0.082842 0.631138 -0.297537
H26   H     H_    0.434669 0.013240 0.625480 0.248246
C51   C     C_3   0.491617 0.076603 0.748785 -0.748411
H27   H     H_    0.493584 0.978198 0.788442 0.223650
H28   H     H_    0.476200 0.136130 0.827117 0.247138
H29   H     H_    0.529061 0.108769 0.726186 0.240841
C52   C     C_2   0.968211 0.197498 0.280687 0.380670
H30   H     H_    0.950811 0.106052 0.278560 0.104542
O16   O     O_2   0.002981 0.218050 0.208570 -0.520702

loop_
_geom_bond_atom_site_label_1
_geom_bond_atom_site_label_2
_geom_bond_distance
_ccdc_geom_bond_type
C43   H14   1.086689 S    
C17   C29   1.404077 A    
C20   C24   1.409389 A    
C7    C8    1.393495 A    
C12   C15   1.415207 A    
C52   O16   1.221204 D    
Zn1   O7    2.007659 S    
C37   C40   1.415754 A    
N1    C11   1.425312 S    
C39   H11   1.083308 S    
C21   C22   1.397017 A    
N3    H16   1.025735 S    
C30   H10   1.083008 S    
C23   C24   1.405873 A    
O7    C4    1.295708 A    
C48   O14   1.221215 D    
C5    C13   1.392747 A    
C3    C42   1.416411 S    
C5    O9    1.350433 S    
C18   C21   1.426205 A    
C25   C39   1.398990 A    
C5    N1    1.361546 A    
C19   C20   1.416461 A    
C26   N2    1.366451 A    
O5    C3    1.287426 A    
N5    H22   1.032873 S    
C22   H6    1.084558 S    
C6    O11   1.348480 S    
C2    C16   1.463121 S    
C47   H19   1.085783 S    
C42   H13   1.084613 S    
C49   O15   1.221412 D    
C41   N5    1.426452 S    
C38   C39   1.389057 A    
C12   C34   1.408794 A    
C14   H3    1.083406 S    
C9    C10   1.389939 A    
C41   C42   1.343306 D    
C40   C49   1.493294 S    
O3    Zn1   2.001858 S    
C7    C47   1.487466 S    
C51   H28   1.109761 S    
C52   H30   1.085599 S    
C33   C34   1.420343 A    
C44   N6    1.436797 S    
C33   C36   1.407422 A    
C34   C35   1.410941 A    
C12   C13   1.412241 A    
O3    C2    1.297471 A    
C35   C40   1.423426 A    
C24   C25   1.408852 A    
C46   H17   1.084747 S    
C36   H7    1.080622 S    
C48   H20   1.084862 S    
C27   O10   1.350066 S    
C8    C16   1.403964 A    
C50   H25   1.112661 S    
C18   C33   1.415356 A    
C9    H1    1.083027 S    
C19   C38   1.410232 A    
O1    C1    1.282854 A    
C41   C43   1.446667 S    
C7    C11   1.413166 A    
C45   N3    1.292308 D    
C22   C23   1.399012 A    
C31   C32   1.398564 A    
Zn2   O8    2.001861 S    
N5    C50   1.448081 S    
N1    C6    1.365293 A    
N2    C32   1.425419 S    
C50   H24   1.113163 S    
C45   H15   1.084725 S    
N4    H18   1.025700 S    
C25   C26   1.398509 A    
C47   O13   1.220345 D    
C9    C16   1.400444 A    
O8    C4    1.294065 A    
C29   H4    1.083088 S    
N6    C51   1.450590 S    
C8    H8    1.084026 S    
N2    C27   1.366853 A    
C26   O12   1.349873 S    
C14   C36   1.384814 A    
C31   H12   1.082857 S    
C28   C29   1.386666 A    
Zn1   O5    1.952771 S    
C30   C31   1.392083 A    
C10   H2    1.083007 S    
O1    Zn1   1.973999 S    
C17   C30   1.405256 A    
O2    Zn2   1.952772 S    
C6    C15   1.414274 A    
C4    C17   1.462271 S    
C43   C44   1.342671 D    
O6    C3    1.277706 A    
O4    Zn2   2.007656 S    
Zn1   N3    2.012010 S    
C19   C35   1.416881 A    
C21   C52   1.484428 S    
O2    C1    1.290849 A    
C13   C14   1.398379 A    
C37   C48   1.486159 S    
C23   C27   1.398866 A    
C15   C37   1.423434 A    
C28   H5    1.083109 S    
O4    C2    1.292658 A    
C51   H27   1.110982 S    
C18   C20   1.415148 A    
C51   H29   1.111823 S    
C50   H23   1.110415 S    
C1    C44   1.440105 S    
C46   N4    1.292065 D    
C38   H9    1.081129 S    
Zn2   O6    1.973998 S    
N6    H26   1.031826 S    
Zn2   N4    2.011808 S    
C10   C11   1.399548 A    
C49   H21   1.084090 S    
C45   C46   1.504474 S    
C28   C32   1.397255 A    
