data_mof_unit_57320.cif
_audit_creation_date              2012-12-10T18:57:48-0500
_audit_creation_method            fapswitch 2.2
_symmetry_space_group_name_H-M    P1
_symmetry_Int_Tables_number       1
_space_group_crystal_system       triclinic
_cell_length_a                    10.627771
_cell_length_b                    9.87425
_cell_length_c                    8.909416
_cell_angle_alpha                 90.073484
_cell_angle_beta                  90.12816
_cell_angle_gamma                 90.024027
_cell_volume                      934.962219097

loop_
_atom_site_label
_atom_site_type_symbol
_atom_type_description
_atom_site_fract_x
_atom_site_fract_y
_atom_site_fract_z
_atom_type_partial_charge
C1    C     C_R   0.260557 0.499981 0.499960 0.956775
C2    C     C_R   0.739529 0.500029 0.500045 0.866330
C3    C     C_R   0.499984 0.499949 0.218705 0.929932
C4    C     C_R   0.500079 0.500051 0.781295 0.930622
C5    C     C_1   0.500074 0.499926 0.065395 -0.198802
C6    C     C_1   0.500111 0.500074 0.934605 -0.198304
C7    C     C_R   0.065791 0.453118 0.627661 0.061927
C8    C     C_R   0.935210 0.546892 0.371829 0.037454
C9    C     C_R   0.935660 0.453389 0.628301 0.033237
C10   C     C_R   0.065347 0.547062 0.372412 0.057209
C11   C     C_R   0.871953 0.500100 0.500055 -0.124865
C12   C     C_R   0.128304 0.499971 0.499979 -0.102066
C13   C     C_R   0.581040 0.071973 0.589743 -0.062545
C14   C     C_R   0.418942 0.928018 0.410270 -0.065626
C15   C     C_R   0.418952 0.071684 0.410264 -0.064711
C16   C     C_R   0.581051 0.928311 0.589728 -0.067120
N1    N     N_R   0.500000 0.857200 0.500000 -0.082629
N2    N     N_R   0.500000 0.142800 0.500000 -0.080849
O1    O     O_R   0.316770 0.614620 0.499990 -0.615357
O2    O     O_R   0.683230 0.385380 0.500010 -0.625490
O3    O     O_R   0.683230 0.614620 0.500010 -0.628405
O4    O     O_R   0.316770 0.385380 0.499990 -0.616562
O5    O     O_R   0.500010 0.614640 0.285340 -0.616724
O6    O     O_R   0.499990 0.385360 0.714660 -0.615251
O7    O     O_R   0.499990 0.614640 0.714660 -0.616756
O8    O     O_R   0.500010 0.385360 0.285340 -0.617171
Zn1   Zn    Zn3+2 0.500000 0.653120 0.500000 0.947651
Zn2   Zn    Zn3+2 0.500000 0.346880 0.500000 0.949528
N3    N     N_3   0.135543 0.408034 0.756517 -0.453529
H1    H     H_    0.109764 0.307988 0.779441 0.207076
H2    H     H_    0.110118 0.467989 0.848392 0.194106
N4    N     N_3   0.869101 0.591302 0.239935 -0.469398
H3    H     H_    0.814238 0.675462 0.267579 0.209076
H4    H     H_    0.809728 0.513340 0.203631 0.179110
N5    N     N_3   0.870019 0.409207 0.760292 -0.470128
H5    H     H_    0.810864 0.487243 0.796448 0.177253
H6    H     H_    0.814972 0.325023 0.732818 0.198616
N6    N     N_3   0.134661 0.592447 0.243690 -0.461715
H7    H     H_    0.108641 0.532920 0.151557 0.195578
H8    H     H_    0.109116 0.692664 0.221303 0.202609
H9    H     H_    0.645907 0.126286 0.661648 0.122495
H10   H     H_    0.354027 0.873681 0.338417 0.134623
H11   H     H_    0.354058 0.125779 0.338389 0.131766
H12   H     H_    0.645945 0.874214 0.661601 0.131032

loop_
_geom_bond_atom_site_label_1
_geom_bond_atom_site_label_2
_ccdc_geom_bond_type
C15   N2    A    
N3    H1    S    
C7    N3    S    
O5    Zn1   S    
O7    Zn1   S    
O1    Zn1   S    
C16   H12   S    
N1    Zn1   S    
C3    O5    A    
N5    H5    S    
C14   H10   S    
C10   N6    S    
N4    H3    S    
C2    O3    A    
C13   H9    S    
C4    O7    A    
O3    Zn1   S    
C15   H11   S    
C1    O4    A    
N3    H2    S    
O4    Zn2   S    
N6    H8    S    
C9    C11   A    
C14   N1    A    
C5    C6    T    
C1    C12   S    
C10   C12   A    
C13   N2    A    
C8    C11   A    
C2    C11   S    
C8    C10   A    
N5    H6    S    
C7    C12   A    
C4    O6    A    
C1    O1    A    
C2    O2    A    
C8    N4    S    
C7    C9    A    
N2    Zn2   S    
C4    C6    S    
C13   C16   A    
C9    N5    S    
C14   C15   A    
O2    Zn2   S    
O8    Zn2   S    
C3    O8    A    
O6    Zn2   S    
N4    H4    S    
C16   N1    A    
C3    C5    S    
N6    H7    S    
