data_mof_unit_56555.cif
_audit_creation_date              2013-03-05T15:44:22-0500
_audit_creation_method            fapswitch 2.2
_symmetry_space_group_name_H-M    P1
_symmetry_Int_Tables_number       1
_space_group_crystal_system       triclinic
_cell_length_a                    18.831277
_cell_length_b                    18.915789
_cell_length_c                    20.342743
_cell_angle_alpha                 107.12016
_cell_angle_beta                  106.317364
_cell_angle_gamma                 111.247234
_cell_volume                      5811.1703159

loop_
_atom_site_label
_atom_site_type_symbol
_atom_site_description
_atom_site_fract_x
_atom_site_fract_y
_atom_site_fract_z
_atom_type_partial_charge
C1    C     C_R   0.037969 0.088484 0.345962 -0.111947
H1    H     H_    0.059724 0.154620 0.360844 0.167014
N1    N     N_R   0.052580 0.056040 0.395500 -0.041445
C2    C     C_R   0.754744 0.930332 0.454847 -0.115892
H2    H     H_    0.707101 0.865827 0.415875 0.146239
N2    N     N_R   0.834730 0.954500 0.499860 -0.038093
C3    C     C_R   0.847966 0.777278 0.290770 -0.261874
H3    H     H_    0.876572 0.758207 0.254639 0.143132
N3    N     N_R   0.890210 0.849400 0.355780 -0.074124
C4    C     C_R   0.006441 0.237560 0.574310 -0.285348
H4    H     H_    0.987912 0.253700 0.619907 0.148039
N4    N     N_R   0.997110 0.161140 0.539580 -0.077341
C5    C     C_R   0.770811 0.770552 0.355232 0.677164
N5    N     N_R   0.841950 0.845400 0.395490 -0.101175
C6    C     C_R   0.081699 0.244916 0.508534 0.735558
N6    N     N_R   0.045360 0.165140 0.499870 -0.117682
C7    C     C_R   0.824730 0.071290 0.519703 -0.109420
H5    H     H_    0.842760 0.137529 0.541254 0.104325
N7    N     N_R   0.877490 0.041510 0.539580 -0.043061
C8    C     C_R   0.968254 0.947458 0.281572 -0.114631
H6    H     H_    0.927393 0.883500 0.237005 0.109255
N8    N     N_R   0.009820 0.969030 0.355780 -0.046875
C9    C     C_R   0.983626 0.021530 0.273855 0.010733
C10   C     C_R   0.746852 0.002771 0.464718 0.045177
C11   C     C_R   0.772309 0.725450 0.288761 -0.127518
C12   C     C_R   0.060813 0.293508 0.557574 -0.049142
C13   C     C_R   0.239393 0.190553 0.653950 -0.048455
H7    H     H_    0.291066 0.200363 0.638167 0.098791
N9    N     N_R   0.158050 0.154600 0.604510 -0.045611
C14   C     C_R   0.969980 0.796567 0.543309 -0.209237
H8    H     H_    0.942112 0.788480 0.581859 0.145849
N10   N     N_R   0.954640 0.834860 0.500130 -0.069240
C15   C     C_R   0.168855 0.934861 0.429470 -0.018962
H9    H     H_    0.143457 0.872733 0.384329 0.149233
N11   N     N_R   0.122510 0.958490 0.460420 -0.058809
C16   C     C_R   0.981116 0.051835 0.709218 -0.147716
H10   H     H_    0.995758 0.114953 0.745096 0.104965
N12   N     N_R   0.990180 0.030970 0.644220 -0.046908
C17   C     C_R   0.912637 0.912037 0.645350 -0.127418
H11   H     H_    0.862986 0.847572 0.622130 0.128894
N13   N     N_R   0.947420 0.943960 0.604500 -0.042042
C18   C     C_R   0.238639 0.074470 0.494780 -0.137953
H12   H     H_    0.278413 0.140385 0.511037 0.121484
N14   N     N_R   0.165270 0.045500 0.500140 -0.053780
C19   C     C_R   0.160762 0.184042 0.718639 -0.113597
H13   H     H_    0.139229 0.186546 0.762702 0.100148
N15   N     N_R   0.109790 0.150600 0.644220 -0.045526
C20   C     C_R   0.047699 0.800304 0.478552 0.713669
N16   N     N_R   0.002890 0.838860 0.460420 -0.110816
Ni1   Ni    Ni4+2 0.104370 0.104380 0.500010 0.275838
Ni2   Ni    Ni4+2 0.895630 0.895620 0.499990 0.269181
Ni3   Ni    Ni4+2 0.006300 0.904810 0.408930 0.219318
Ni4   Ni    Ni4+2 0.993700 0.095190 0.591070 0.205928
C21   C     C_R   0.243257 0.208577 0.726796 0.025435
C22   C     C_R   0.029807 0.774776 0.532349 -0.114868
C23   C     C_R   0.242591 0.006253 0.449859 0.027148
C24   C     C_R   0.932305 0.978252 0.711449 0.127053
C25   C     C_R   0.134171 0.723981 0.567689 -0.191109
C26   C     C_R   0.062303 0.729802 0.569030 0.117045
C27   C     C_R   0.016375 0.686890 0.601425 -0.157876
C28   C     C_R   0.032758 0.628413 0.620942 -0.118882
C29   C     C_R   0.097878 0.614136 0.609789 0.008045
C30   C     C_R   0.152033 0.665613 0.587725 0.151223
C31   C     C_R   0.979819 0.578317 0.644338 0.766965
C32   C     C_R   0.985206 0.508285 0.647838 -0.346712
C33   C     C_R   0.043732 0.488550 0.628699 0.039149
C34   C     C_R   0.103743 0.543746 0.614027 0.024095
C35   C     C_R   0.165347 0.525413 0.598316 -0.050527
C36   C     C_R   0.227022 0.585065 0.587999 -0.104369
C37   C     C_R   0.219197 0.653507 0.581036 -0.199241
C38   C     C_R   0.036705 0.410231 0.616231 -0.217519
C39   C     C_R   0.089367 0.385357 0.590363 -0.005148
C40   C     C_R   0.160526 0.446533 0.590122 0.307347
H14   H     H_    0.173337 0.760957 0.547386 0.185015
H15   H     H_    0.962230 0.692175 0.604924 0.180581
H16   H     H_    0.940136 0.466650 0.660875 0.174728
H17   H     H_    0.983776 0.366091 0.619794 0.140956
H18   H     H_    0.278971 0.577559 0.581016 0.184478
H19   H     H_    0.263520 0.694735 0.567157 0.144462
C41   C     C_R   0.299710 0.933636 0.373524 -0.238357
C42   C     C_R   0.306132 0.009258 0.420428 0.112216
C43   C     C_R   0.377588 0.086814 0.444877 -0.230254
C44   C     C_R   0.446951 0.088224 0.432163 0.126846
C45   C     C_R   0.443818 0.011147 0.393166 0.031409
C46   C     C_R   0.368522 0.933921 0.360581 0.133581
C47   C     C_R   0.522110 0.164762 0.464197 -0.181051
C48   C     C_R   0.596049 0.164223 0.464549 -0.185258
C49   C     C_R   0.595254 0.087113 0.433183 0.130749
C50   C     C_R   0.518183 0.010562 0.393815 0.031469
C51   C     C_R   0.516928 0.932732 0.362301 0.136923
C52   C     C_R   0.439974 0.856909 0.322964 -0.189756
C53   C     C_R   0.365928 0.857508 0.322066 -0.185208
C54   C     C_R   0.670877 0.084585 0.447929 -0.237078
C55   C     C_R   0.670070 0.006439 0.427025 0.115863
C56   C     C_R   0.593210 0.931347 0.378045 -0.244397
H20   H     H_    0.244283 0.873371 0.351978 0.130175
H21   H     H_    0.382677 0.145920 0.479009 0.128501
H22   H     H_    0.524969 0.224530 0.493189 0.147338
H23   H     H_    0.654778 0.223583 0.493966 0.142943
H24   H     H_    0.729729 0.143469 0.482077 0.120419
H25   H     H_    0.591643 0.870879 0.358040 0.124528
H26   H     H_    0.438000 0.796805 0.297453 0.139526
H27   H     H_    0.307982 0.797839 0.295706 0.142292
C57   C     C_R   0.318571 0.240792 0.797999 0.137749
C58   C     C_R   0.315276 0.267222 0.868633 -0.167549
C59   C     C_R   0.386683 0.300675 0.936222 -0.145596
C60   C     C_R   0.463333 0.308290 0.934833 0.210120
C61   C     C_R   0.466183 0.279735 0.864286 -0.158261
C62   C     C_R   0.394388 0.245819 0.796389 -0.152598
C63   C     C_R   0.693991 0.500312 0.149870 -0.154102
C64   C     C_R   0.747516 0.586002 0.199570 -0.170259
C65   C     C_R   0.634280 0.593462 0.230321 -0.099902
C66   C     C_R   0.581223 0.507659 0.181423 -0.199152
C67   C     C_R   0.609707 0.461325 0.138867 0.217354
C68   C     C_2   0.543618 0.359577 0.005255 -0.201320
C69   C     C_2   0.546132 0.377793 0.075117 -0.212084
C70   C     C_R   0.717445 0.633909 0.238786 0.175739
H28   H     H_    0.258582 0.265311 0.872513 0.118050
H29   H     H_    0.811937 0.614485 0.206375 0.129896
H30   H     H_    0.608937 0.628639 0.259091 0.164263
H31   H     H_    0.490818 0.341850 0.081464 0.137267
H32   H     H_    0.524853 0.286239 0.861856 0.133430
H33   H     H_    0.717634 0.465257 0.118376 0.131154
H34   H     H_    0.399128 0.224989 0.743048 0.120145
H35   H     H_    0.599368 0.395325 0.999242 0.141502
H36   H     H_    0.382273 0.325121 0.989236 0.115475
H37   H     H_    0.516057 0.478782 0.172993 0.126079
C71   C     C_R   0.942827 0.028091 0.204520 0.131967
C72   C     C_R   0.862538 0.962904 0.147786 -0.167027
C73   C     C_R   0.825788 0.967249 0.080323 -0.119564
C74   C     C_R   0.869856 0.036255 0.068004 0.175024
C75   C     C_R   0.947427 0.103909 0.127086 -0.152237
C76   C     C_R   0.983658 0.099936 0.194794 -0.158513
C77   C     C_R   0.822647 0.025333 0.835235 0.307044
C78   C     C_R   0.863479 0.031201 0.787487 -0.287556
C79   C     C_R   0.866847 0.901679 0.776754 -0.314825
C80   C     C_R   0.828398 0.896030 0.825594 0.762983
C81   C     C_R   0.809979 0.959739 0.858322 -0.203882
C82   C     C_2   0.844329 0.035810 0.992134 -0.180792
C83   C     C_2   0.794912 0.964167 0.926466 -0.005996
C84   C     C_R   0.887949 0.971043 0.760105 -0.006352
H38   H     H_    0.828310 0.908232 0.155246 0.121512
H39   H     H_    0.874812 0.081936 0.770594 0.180193
H40   H     H_    0.883632 0.853688 0.754633 0.178160
H41   H     H_    0.761233 0.904497 0.927215 0.162710
H42   H     H_    0.982456 0.158070 0.119304 0.127187
H43   H     H_    0.045259 0.151483 0.238055 0.135646
H44   H     H_    0.882153 0.093443 0.989935 0.153356
H45   H     H_    0.764216 0.915470 0.037681 0.120405
F1    F     F_    0.097898 0.785488 0.446458 -0.746058
F2    F     F_    0.918657 0.593030 0.657935 -0.687216
N17   N     N_R   0.228157 0.430287 0.585418 0.261281
O1    O     O_R   0.251841 0.435174 0.531907 -0.341822
O2    O     O_R   0.261895 0.404004 0.631376 -0.367059
N18   N     N_R   0.794550 0.085582 0.859515 0.245766
O3    O     O_R   0.828592 0.158850 0.859256 -0.395816
O4    O     O_R   0.729493 0.064629 0.874943 -0.371701
F3    F     F_    0.722873 0.735628 0.387521 -0.724650
F4    F     F_    0.815639 0.831783 0.845905 -0.682928
F5    F     F_    0.141629 0.273446 0.484601 -0.675829

loop_
_geom_bond_atom_site_label_1
_geom_bond_atom_site_label_2
_geom_bond_distance
_ccdc_geom_bond_type
C20   C22   1.394555 A    
C48   C49   1.402045 A    
C54   C55   1.405739 A    
C22   C26   1.466093 S    
N18   O4    1.301476 A    
C12   C39   1.480426 S    
C14   C22   1.382929 A    
C71   C72   1.403136 A    
C42   C43   1.404917 A    
C13   C21   1.393366 A    
C3    H3    1.080636 S    
C17   N13   1.341213 A    
C19   H13   1.078550 S    
N2    N7    1.378771 A    
C41   C46   1.391406 A    
C32   H16   1.084410 S    
C29   C34   1.400457 A    
N9    N15   1.372177 A    
C21   C57   1.476636 S    
C16   H10   1.081412 S    
N6    Ni1   1.865908 S    
C72   C73   1.393934 A    
C20   F1    1.352592 S    
N5    Ni2   1.830549 S    
C57   C62   1.406503 A    
C2    C10   1.393674 A    
C13   N9    1.340520 A    
C59   C60   1.407005 A    
C6    N6    1.343021 A    
C17   C24   1.380709 A    
C61   C62   1.395548 A    
C64   H29   1.081256 S    
C1    H1    1.077207 S    
C63   C64   1.394213 A    
C57   C58   1.402881 A    
C53   H27   1.083712 S    
C18   C23   1.385381 A    
C46   C53   1.402144 A    
N4    N6    1.372025 A    
C35   C36   1.411633 A    
C60   C61   1.400747 A    
C30   C37   1.399619 A    
C76   H43   1.082695 S    
N2    Ni2   1.865871 S    
C41   H20   1.080484 S    
C63   C67   1.402828 A    
N4    Ni4   1.845688 S    
C52   C53   1.393557 A    
N15   Ni4   1.841363 S    
N7    Ni4   1.841859 S    
C15   C23   1.382495 A    
C78   H39   1.082403 S    
C33   C34   1.405025 A    
C26   C27   1.402700 A    
C5    N5    1.340153 A    
C5    C11   1.384474 A    
C36   H18   1.078982 S    
C36   C37   1.397274 A    
N3    Ni3   1.841363 S    
C18   N14   1.338715 A    
C65   C66   1.391998 A    
N1    Ni1   1.830637 S    
C7    H5    1.077959 S    
C48   H23   1.083734 S    
N9    Ni1   1.830549 S    
C19   N15   1.339000 A    
C82   H44   1.087034 S    
N18   O3    1.301536 A    
C7    C10   1.388814 A    
C69   H31   1.085304 S    
C80   F4    1.358356 S    
C31   F2    1.358871 S    
C34   C35   1.415227 A    
C51   C56   1.393008 A    
C45   C46   1.408652 A    
N12   N13   1.378771 A    
C2    N2    1.340030 A    
C16   C24   1.384781 A    
C17   H11   1.081965 S    
C65   H30   1.082072 S    
C47   C48   1.394106 A    
C39   C40   1.420514 A    
C6    C12   1.391901 A    
C72   H38   1.082690 S    
C35   C40   1.417473 A    
C27   C28   1.383262 A    
C1    N1    1.341117 A    
C28   C31   1.402049 A    
N3    N5    1.372175 A    
C33   C38   1.376384 A    
C29   C30   1.408695 A    
C10   C55   1.471206 S    
C63   H33   1.082840 S    
C44   C45   1.410283 A    
C8    C9    1.390209 A    
C78   C84   1.403074 A    
N16   Ni3   1.845688 S    
C73   H45   1.080601 S    
C15   H9    1.078684 S    
C55   C56   1.404128 A    
C49   C50   1.409079 A    
N11   N14   1.378773 A    
C54   H24   1.081014 S    
C60   C68   1.476770 S    
C4    N4    1.328348 A    
C20   N16   1.345187 A    
N17   O2    1.301411 A    
C19   C21   1.394103 A    
C1    C9    1.387908 A    
C40   N17   1.435418 S    
C43   H21   1.081301 S    
C58   H28   1.080932 S    
C18   H12   1.079889 S    
C8    N8    1.341607 A    
C52   H26   1.083706 S    
C74   C75   1.403233 A    
C5    F3    1.356184 S    
C38   H17   1.081152 S    
C25   H14   1.082177 S    
N8    Ni3   1.845072 S    
C66   C67   1.400093 A    
C80   C81   1.405771 A    
N10   Ni2   1.865908 S    
N14   Ni1   1.865870 S    
C25   C30   1.398326 A    
C3    N3    1.342753 A    
C77   N18   1.440564 S    
C49   C54   1.392128 A    
C37   H19   1.083895 S    
C61   H32   1.083501 S    
C41   C42   1.406205 A    
C11   C70   1.475143 S    
C83   H41   1.083133 S    
C77   C81   1.417198 A    
C67   C69   1.470322 S    
C82   C83   1.344851 D    
C62   H34   1.081134 S    
C77   C78   1.402958 A    
C66   H37   1.083722 S    
C58   C59   1.389681 A    
C59   H36   1.080879 S    
C27   H15   1.079426 S    
C3    C11   1.387061 A    
C24   C84   1.468834 S    
C65   C70   1.403613 A    
C64   C70   1.406573 A    
C75   H42   1.083577 S    
C31   C32   1.385316 A    
C81   C83   1.476166 S    
C73   C74   1.406997 A    
C25   C26   1.404094 A    
C6    F5    1.350530 S    
C79   H40   1.083448 S    
C71   C76   1.401324 A    
C14   N10   1.327910 A    
C15   N11   1.335541 A    
C4    C12   1.380912 A    
C51   C52   1.401315 A    
C14   H8    1.075879 S    
N12   Ni4   1.845074 S    
C68   H35   1.086605 S    
C16   N12   1.342241 A    
C7    N7    1.334900 A    
C79   C84   1.397679 A    
C23   C42   1.471971 S    
C75   C76   1.392222 A    
C32   C33   1.399756 A    
C28   C29   1.410127 A    
C47   H22   1.083676 S    
N10   N16   1.372023 A    
C74   C82   1.478436 S    
C4    H4    1.080602 S    
C56   H25   1.081424 S    
C2    H2    1.076859 S    
C44   C47   1.401792 A    
C38   C39   1.402640 A    
C8    H6    1.079451 S    
C43   C44   1.393711 A    
C45   C50   1.400818 A    
N11   Ni3   1.841862 S    
C79   C80   1.390483 A    
N1    N8    1.378775 A    
N17   O1    1.301781 A    
C50   C51   1.410524 A    
N13   Ni2   1.830637 S    
C68   C69   1.342680 D    
C9    C71   1.469123 S    
C13   H7    1.078951 S    
