data_mof_unit_14658.cif
_audit_creation_date              2012-10-26T21:02:38-0400
_audit_creation_method            fapswitch 2.2
_symmetry_space_group_name_H-M    P1
_symmetry_Int_Tables_number       1
_space_group_crystal_system       triclinic
_cell_length_a                    12.339493
_cell_length_b                    13.121218
_cell_length_c                    14.974947
_cell_angle_alpha                 78.273041
_cell_angle_beta                  99.700153
_cell_angle_gamma                 116.486044
_cell_volume                      2116.4087777

loop_
_atom_site_label
_atom_site_type_symbol
_atom_type_description
_atom_site_fract_x
_atom_site_fract_y
_atom_site_fract_z
_atom_type_partial_charge
C1    C     C_R   0.855084 0.286478 0.508267 0.525289
C2    C     C_R   0.990737 0.411860 0.826971 -0.156255
C3    C     C_R   0.001646 0.510379 0.765562 -0.000270
C4    C     C_R   0.001266 0.504491 0.669943 0.539755
C5    C     C_R   0.017409 0.611963 0.795605 0.005385
C6    C     C_R   0.279856 0.023876 0.381499 -0.137511
C7    C     C_R   0.228342 0.835391 0.470061 -0.005393
C8    C     C_R   0.812467 0.084212 0.569878 -0.140727
C9    C     C_R   0.732149 0.969542 0.589844 -0.142898
C10   C     C_R   0.609853 0.932514 0.558558 -0.120761
C11   C     C_R   0.565645 0.009510 0.502763 0.031901
C12   C     C_R   0.017864 0.604874 0.079654 0.018402
C13   C     C_R   0.650737 0.123494 0.474040 0.024070
C14   C     C_R   0.440135 0.976896 0.473554 0.028804
C15   C     C_R   0.403234 0.054868 0.410797 0.050753
C16   C     C_R   0.144939 0.713491 0.487163 0.538365
C17   C     C_R   0.490022 0.161502 0.375665 -0.142221
C18   C     C_R   0.611993 0.194360 0.405204 -0.122672
C19   C     C_R   0.349776 0.868953 0.504716 -0.137122
C20   C     C_R   0.192762 0.914148 0.410419 -0.142513
C21   C     C_R   0.772664 0.162930 0.514286 -0.006629
C22   C     C_R   0.365633 0.368482 0.669634 -0.159901
C23   C     C_R   0.983806 0.309144 0.077308 -0.124375
C24   C     C_R   0.759442 0.644425 0.375201 0.049781
C25   C     C_R   0.665679 0.679288 0.352476 -0.163317
C26   C     C_R   0.564309 0.626331 0.402644 -0.145283
C27   C     C_R   0.554868 0.536383 0.475110 -0.010896
C28   C     C_R   0.001693 0.500245 0.329599 0.541840
C29   C     C_R   0.655912 0.508805 0.499709 0.178669
C30   C     C_R   0.450424 0.476954 0.526521 0.002390
C31   C     C_R   0.460163 0.412839 0.612569 0.024702
C32   C     C_R   0.560845 0.388150 0.637700 -0.173110
C33   C     C_R   0.652767 0.428981 0.579209 -0.095746
C34   C     C_R   0.981133 0.307873 0.983757 0.024401
C35   C     C_R   0.332762 0.468770 0.492412 0.155182
C36   C     C_R   0.261949 0.387517 0.640191 0.030060
C37   C     C_R   0.016383 0.601917 0.172908 -0.134965
C38   C     C_R   0.006340 0.502931 0.233623 -0.003291
C39   C     C_R   0.996503 0.405845 0.202375 -0.144475
C40   C     C_R   0.996007 0.406877 0.109012 -0.000952
C41   C     C_R   0.006609 0.506720 0.046941 0.052917
C42   C     C_3   0.294356 0.451488 0.392531 -0.230557
C43   C     C_3   0.199466 0.328242 0.384123 -0.405299
C44   C     C_3   0.966263 0.197773 0.954604 -0.277649
C45   C     C_R   0.992113 0.408389 0.920768 0.018250
C46   C     C_3   0.835675 0.129139 0.916766 -0.438080
C47   C     C_3   0.041075 0.722353 0.727740 -0.275663
C48   C     C_3   0.176583 0.802855 0.730059 -0.444428
C49   C     C_R   0.005336 0.508326 0.952574 0.026087
C50   C     C_R   0.017972 0.610210 0.890635 0.031836
C51   C     C_R   0.031140 0.707528 0.925912 -0.134899
C52   C     C_R   0.030230 0.704365 0.018992 -0.142621
Cu1   Cu    Cu3+1 0.098270 0.475420 0.521130 0.906043
Cu2   Cu    Cu3+1 0.901730 0.524580 0.478870 0.901491
H1    H     H_    0.023788 0.676580 0.198627 0.101299
H2    H     H_    0.565913 0.332442 0.700977 0.110779
H3    H     H_    0.372694 0.321213 0.737002 0.092783
H4    H     H_    0.985542 0.328763 0.250513 0.098360
H5    H     H_    0.838279 0.686006 0.336392 0.121954
H6    H     H_    0.494082 0.656933 0.385212 0.111836
H7    H     H_    0.671871 0.747700 0.296361 0.101048
H8    H     H_    0.720031 0.396823 0.599602 0.184990
H9    H     H_    0.975096 0.232850 0.125860 0.098176
H10   H     H_    0.980782 0.337728 0.799507 0.112479
H11   H     H_    0.042191 0.787582 0.882913 0.110510
H12   H     H_    0.463619 0.219698 0.324542 0.106419
H13   H     H_    0.039643 0.780351 0.043624 0.102598
H14   H     H_    0.098920 0.889340 0.383008 0.118733
H15   H     H_    0.116914 0.305279 0.418095 0.201408
H16   H     H_    0.238816 0.266592 0.416353 0.131775
H17   H     H_    0.173469 0.318059 0.310736 0.116138
H18   H     H_    0.268795 0.519222 0.352626 0.166701
H19   H     H_    0.370245 0.459724 0.356959 0.115203
H20   H     H_    0.772611 0.104240 0.970386 0.153671
H21   H     H_    0.807875 0.179829 0.856449 0.150870
H22   H     H_    0.828019 0.049670 0.895611 0.133591
H23   H     H_    0.251319 0.083207 0.333726 0.098734
H24   H     H_    0.031177 0.216549 0.903882 0.130865
H25   H     H_    0.988869 0.141946 0.013888 0.131041
H26   H     H_    0.227367 0.759964 0.710756 0.158616
H27   H     H_    0.191132 0.882119 0.680248 0.140221
H28   H     H_    0.213211 0.827665 0.799224 0.152103
H29   H     H_    0.009767 0.706065 0.656346 0.184195
H30   H     H_    0.988075 0.766520 0.740813 0.124947
H31   H     H_    0.371334 0.807717 0.554867 0.117866
H32   H     H_    0.905393 0.111884 0.600253 0.125675
H33   H     H_    0.553188 0.842533 0.577855 0.106464
H34   H     H_    0.764131 0.909455 0.632456 0.115196
H35   H     H_    0.675384 0.275021 0.371331 0.153150
H36   H     H_    0.191936 0.357535 0.686349 0.128523
N1    N     N_R   0.246280 0.438190 0.553160 -0.223244
N2    N     N_R   0.754320 0.561190 0.447410 -0.235961
O1    O     O_R   0.972510 0.318130 0.526570 -0.512431
O2    O     O_R   0.806530 0.359650 0.490890 -0.521192
O3    O     O_R   0.082980 0.479210 0.647590 -0.507261
O4    O     O_R   0.917000 0.520730 0.611900 -0.527320
O5    O     O_R   0.193470 0.640350 0.509110 -0.494797
O6    O     O_R   0.027490 0.681870 0.473430 -0.512213
O7    O     O_R   0.083000 0.479270 0.388100 -0.514510
O8    O     O_R   0.917020 0.520790 0.352410 -0.505878

loop_
_geom_bond_atom_site_label_1
_geom_bond_atom_site_label_2
_ccdc_geom_bond_type
C1    C21   S    
Cu1   O3    S    
C22   H3    S    
C46   H22   S    
Cu1   Cu2   S    
Cu1   O7    S    
C5    C47   S    
C26   C27   A    
C37   C38   A    
C30   C35   A    
C33   H8    S    
C9    H34   S    
C30   C31   A    
C11   C14   A    
C16   O5    A    
C27   C29   A    
C23   C40   A    
C29   C33   A    
C48   H27   S    
C51   H11   S    
C12   C37   A    
C35   C42   S    
C6    C15   A    
C4    O4    A    
C31   C32   A    
C44   C46   S    
C1    O2    A    
Cu1   N1    S    
C28   C38   S    
C9    C10   A    
Cu2   O4    S    
C28   O8    A    
C23   H9    S    
C43   H15   S    
C27   C30   A    
Cu2   O8    S    
C24   N2    A    
C41   C49   A    
C46   H21   S    
C12   C52   A    
C2    H10   S    
C50   C51   A    
C2    C45   A    
C10   H33   S    
C22   C31   A    
Cu1   O1    S    
C51   C52   A    
C34   C44   S    
C24   C25   A    
C39   C40   A    
C8    C9    A    
C6    H23   S    
C19   H31   S    
C25   C26   A    
C39   H4    S    
Cu2   N2    S    
C12   C41   A    
C4    O3    A    
C47   C48   S    
C45   C49   A    
C23   C34   A    
C42   H18   S    
C17   C18   A    
C17   H12   S    
C13   C21   A    
C34   C45   A    
C25   H7    S    
C47   H30   S    
C52   H13   S    
C13   C18   A    
C28   O7    A    
C40   C41   A    
C7    C20   A    
C43   H16   S    
C7    C19   A    
C5    C50   A    
C42   C43   S    
C3    C4    S    
C46   H20   S    
C6    C20   A    
C36   N1    A    
C36   H36   S    
C15   C17   A    
C7    C16   S    
C42   H19   S    
C43   H17   S    
C18   H35   S    
C14   C19   A    
C20   H14   S    
C44   H25   S    
C3    C5    A    
C8    C21   A    
C22   C36   A    
Cu1   O5    S    
C32   C33   A    
C48   H26   S    
C44   H24   S    
C2    C3    A    
C11   C13   A    
C16   O6    A    
C38   C39   A    
C24   H5    S    
C48   H28   S    
C8    H32   S    
Cu2   O2    S    
C10   C11   A    
C47   H29   S    
C37   H1    S    
C1    O1    A    
C49   C50   A    
C14   C15   A    
Cu2   O6    S    
C26   H6    S    
C32   H2    S    
C29   N2    A    
C35   N1    A    
