data_mof_unit_6094.cif
_audit_creation_date              2012-12-10T19:02:41-0500
_audit_creation_method            fapswitch 2.2
_symmetry_space_group_name_H-M    P1
_symmetry_Int_Tables_number       1
_space_group_crystal_system       triclinic
_cell_length_a                    9.677433
_cell_length_b                    10.870793
_cell_length_c                    13.849327
_cell_angle_alpha                 92.208653
_cell_angle_beta                  83.340736
_cell_angle_gamma                 89.624964
_cell_volume                      1445.9744107

loop_
_atom_site_label
_atom_site_type_symbol
_atom_type_description
_atom_site_fract_x
_atom_site_fract_y
_atom_site_fract_z
_atom_type_partial_charge
C1    C     C_R   0.500698 0.737478 0.498710 0.822559
C2    C     C_1   0.458677 0.506441 0.786166 -0.147135
C3    C     C_R   0.379646 0.939362 0.508951 0.042551
C4    C     C_R   0.503841 0.871877 0.500556 -0.185545
C5    C     C_R   0.629858 0.937928 0.502812 0.349146
C6    C     C_R   0.623960 0.064631 0.528994 0.075538
C7    C     C_R   0.500232 0.131215 0.520315 -0.207203
C8    C     C_R   0.378509 0.066361 0.512915 0.013963
C9    C     C_3   0.242787 0.074305 0.577585 -0.065500
C10   C     C_3   0.246130 0.932288 0.575683 -0.065861
C11   C     C_R   0.940802 0.470256 0.417049 0.142473
C12   C     C_R   0.475780 0.501221 0.682705 0.779513
C13   C     C_R   0.913521 0.552994 0.575698 0.188676
C14   C     C_R   0.057552 0.533031 0.581212 0.397532
C15   C     C_R   0.087555 0.469228 0.417117 0.127257
C16   C     C_3   0.096679 0.346076 0.363410 0.167018
C17   C     C_3   0.940607 0.355489 0.356043 0.158104
C18   C     C_R   0.499476 0.263898 0.508505 0.815189
C19   C     C_R   0.524214 0.500853 0.317067 0.863254
C20   C     C_1   0.540894 0.505018 0.213292 -0.083295
C21   C     C_2   0.558396 0.512347 0.021134 0.116315
C22   C     C_2   0.439043 0.517513 0.978004 0.082342
C23   C     C_1   0.447258 0.511735 0.873353 -0.007359
C24   C     C_1   0.551226 0.508861 0.126024 0.040504
Cu1   Cu    Cu3+1 0.359330 0.500020 0.500000 1.006230
Cu2   Cu    Cu3+1 0.640670 0.499980 0.500000 0.981899
H1    H     H_    0.123532 0.270937 0.410433 0.081956
H2    H     H_    0.876468 0.283422 0.391757 0.112529
H3    H     H_    0.164067 0.112170 0.534470 0.153220
H4    H     H_    0.162237 0.894326 0.535221 0.146315
N1    N     N_R   0.852140 0.499070 0.499400 -0.247345
N2    N     N_R   0.148050 0.499110 0.499400 -0.247723
O1    O     O_R   0.381190 0.680360 0.500000 -0.577620
O2    O     O_R   0.618770 0.680320 0.499990 -0.541571
O3    O     O_R   0.364410 0.500000 0.637850 -0.504089
O4    O     O_R   0.602000 0.499960 0.637840 -0.635473
O5    O     O_R   0.381230 0.319680 0.500010 -0.574118
O6    O     O_R   0.618810 0.319640 0.500000 -0.573546
O7    O     O_R   0.398000 0.500040 0.362160 -0.539242
O8    O     O_R   0.635590 0.500000 0.362150 -0.525557
C25   C     C_3   0.293993 0.524756 0.033535 -0.326973
C26   C     C_3   0.217348 0.642104 0.012042 -0.792890
H5    H     H_    0.277547 0.724451 0.031090 0.251808
H6    H     H_    0.201298 0.642980 0.933908 0.270585
H7    H     H_    0.113843 0.646561 0.056117 0.261688
H8    H     H_    0.233705 0.443562 0.011944 0.237818
H9    H     H_    0.295422 0.523406 0.113273 0.252300
Cl1   Cl    Cl    0.102104 0.525418 0.700786 -0.693610
Cl2   Cl    Cl    0.207166 0.345329 0.250698 -0.564260
Cl3   Cl    Cl    0.893321 0.386589 0.238511 -0.562237
C27   C     C_3   0.700094 0.513849 0.959571 -0.444847
C28   C     C_3   0.824665 0.492992 0.015510 -0.687175
H10   H     H_    0.828179 0.565141 0.074161 0.269973
H11   H     H_    0.818310 0.400475 0.046776 0.291994
H12   H     H_    0.922350 0.497193 0.965051 0.248528
H13   H     H_    0.703969 0.440624 0.900964 0.211927
H14   H     H_    0.712483 0.604082 0.924583 0.210406
Cl4   Cl    Cl    0.795825 0.867495 0.472777 -0.646768
C29   C     C_3   0.729273 0.116124 0.592804 -0.327118
C30   C     C_3   0.875240 0.128214 0.539740 -0.744578
H15   H     H_    0.878305 0.108027 0.460524 0.278575
H16   H     H_    0.915379 0.222215 0.552144 0.199390
H17   H     H_    0.944227 0.060338 0.568492 0.250901
H18   H     H_    0.694561 0.205611 0.629213 0.196153
H19   H     H_    0.733913 0.053423 0.654023 0.181000
C31   C     C_3   0.245203 0.147355 0.675906 -0.348475
C32   C     C_3   0.098895 0.169493 0.728188 -0.793589
H20   H     H_    0.041719 0.235849 0.688205 0.266611
H21   H     H_    0.039580 0.082681 0.734458 0.239034
H22   H     H_    0.105695 0.209749 0.802384 0.261815
H23   H     H_    0.309666 0.102621 0.725334 0.219175
H24   H     H_    0.291067 0.239167 0.662854 0.229503
C33   C     C_3   0.251809 0.866255 0.673158 -0.322945
C34   C     C_3   0.390341 0.866839 0.717751 -0.805569
H25   H     H_    0.452439 0.782905 0.693408 0.225134
H26   H     H_    0.454801 0.948001 0.698551 0.235066
H27   H     H_    0.369089 0.865599 0.798243 0.239996
H28   H     H_    0.168736 0.904836 0.727914 0.205902
H29   H     H_    0.223963 0.768556 0.660832 0.245677
C35   C     C_3   0.832910 0.636125 0.654853 -0.257087
C36   C     C_3   0.906922 0.756486 0.677674 -0.848197
H30   H     H_    0.975659 0.744538 0.735295 0.270404
H31   H     H_    0.968469 0.789908 0.611587 0.279266
H32   H     H_    0.829166 0.828853 0.705574 0.237202
H33   H     H_    0.735173 0.668165 0.632179 0.260256
H34   H     H_    0.809418 0.585120 0.722743 0.202332

loop_
_geom_bond_atom_site_label_1
_geom_bond_atom_site_label_2
_ccdc_geom_bond_type
C8    C9    S    
C25   C26   S    
C19   C20   S    
C2    C12   S    
C36   H30   S    
C1    O1    A    
C7    C8    A    
C29   H18   S    
C34   H26   S    
C5    Cl4   S    
C30   H17   S    
C18   O5    A    
C5    C6    A    
C35   C36   S    
C10   C33   S    
C22   C25   S    
C15   C16   S    
C30   H16   S    
C27   H13   S    
C33   C34   S    
C9    C31   S    
C35   H34   S    
Cu1   O5    S    
C11   C15   A    
Cu2   O2    S    
C31   H24   S    
C20   C24   T    
C16   C17   S    
C34   H27   S    
C33   H28   S    
C27   H14   S    
C12   O4    A    
C9    C10   S    
C28   H12   S    
C9    H3    S    
C16   H1    S    
C31   C32   S    
C13   C35   S    
C11   N1    A    
C29   C30   S    
C13   C14   A    
C26   H6    S    
C36   H31   S    
C28   H11   S    
C1    O2    A    
C33   H29   S    
C34   H25   S    
C32   H20   S    
C15   N2    A    
C16   Cl2   S    
C3    C8    A    
Cu2   O6    S    
C14   Cl1   S    
Cu1   Cu2   S    
C27   C28   S    
C30   H15   S    
C32   H21   S    
C26   H7    S    
C35   H33   S    
C10   H4    S    
C31   H23   S    
C25   H8    S    
C7    C18   S    
C25   H9    S    
C12   O3    A    
C19   O7    A    
Cu1   O3    S    
Cu2   O4    S    
C26   H5    S    
C3    C4    A    
C21   C27   S    
C36   H32   S    
C28   H10   S    
C11   C17   S    
C17   H2    S    
C6    C29   S    
C13   N1    A    
C14   N2    A    
C4    C5    A    
C17   Cl3   S    
C6    C7    A    
C1    C4    S    
C32   H22   S    
C18   O6    A    
C3    C10   S    
Cu1   O7    S    
Cu2   O8    S    
Cu1   N2    S    
C19   O8    A    
Cu2   N1    S    
C21   C24   S    
C2    C23   T    
C22   C23   S    
C21   C22   D    
C29   H19   S    
Cu1   O1    S    
