data_mof_unit_46610.cif
_audit_creation_date              2012-12-10T19:05:16-0500
_audit_creation_method            fapswitch 2.2
_symmetry_space_group_name_H-M    P1
_symmetry_Int_Tables_number       1
_space_group_crystal_system       triclinic
_cell_length_a                    9.435929
_cell_length_b                    11.09149
_cell_length_c                    17.433233
_cell_angle_alpha                 89.311492
_cell_angle_beta                  87.05177
_cell_angle_gamma                 90.034468
_cell_volume                      1821.98838385

loop_
_atom_site_label
_atom_site_type_symbol
_atom_type_description
_atom_site_fract_x
_atom_site_fract_y
_atom_site_fract_z
_atom_type_partial_charge
C1    C     C_R   0.499076 0.738105 0.497809 0.800318
C2    C     C_R   0.349083 0.531205 0.772478 -0.219645
C3    C     C_R   0.404624 0.490400 0.150791 -0.126866
C4    C     C_R   0.394779 0.489044 0.230067 -0.209216
C5    C     C_R   0.648421 0.482243 0.226861 -0.188615
C6    C     C_R   0.655631 0.467376 0.148303 -0.165470
C7    C     C_R   0.530656 0.474631 0.108457 0.183520
C8    C     C_2   0.437285 0.516801 0.979257 -0.206465
C9    C     C_2   0.544069 0.483672 0.024264 -0.218837
C10   C     C_R   0.520673 0.486256 0.269052 -0.030938
C11   C     C_R   0.368984 0.939881 0.499584 0.094655
C12   C     C_R   0.484416 0.507658 0.649729 0.801072
C13   C     C_R   0.497634 0.870856 0.493855 -0.108452
C14   C     C_R   0.622942 0.937635 0.481505 -0.193830
C15   C     C_R   0.623086 0.062036 0.484580 -0.197432
C16   C     C_R   0.492329 0.128769 0.489823 -0.120646
C17   C     C_R   0.362700 0.061021 0.487618 0.132828
C18   C     C_3   0.202151 0.069119 0.470264 -0.373526
C19   C     C_3   0.222841 0.931464 0.473437 -0.462873
C20   C     C_R   0.935562 0.425982 0.454325 0.205222
C21   C     C_R   0.918555 0.574760 0.545361 -0.077388
C22   C     C_R   0.067936 0.573866 0.546180 -0.076308
C23   C     C_R   0.498937 0.261481 0.497800 0.798890
C24   C     C_R   0.079038 0.430229 0.450598 0.236626
C25   C     C_3   0.099410 0.334707 0.394010 -0.434336
C26   C     C_3   0.931650 0.320180 0.407813 -0.357856
C27   C     C_R   0.515993 0.496474 0.350690 0.806310
C28   C     C_R   0.479837 0.523175 0.732283 -0.102252
C29   C     C_R   0.604819 0.519754 0.775579 0.130244
C30   C     C_R   0.581631 0.512229 0.855129 -0.119583
C31   C     C_R   0.455267 0.530907 0.895067 0.128859
C32   C     C_R   0.335296 0.546203 0.851272 -0.172152
Cu1   Cu    Cu3+1 0.359330 0.500020 0.500000 0.950748
Cu2   Cu    Cu3+1 0.640670 0.499980 0.500000 0.944441
H1    H     H_    0.757437 0.462156 0.117237 0.124037
H2    H     H_    0.719123 0.892540 0.464207 0.179053
H3    H     H_    0.721172 0.108114 0.475554 0.183130
H4    H     H_    0.166322 0.111390 0.522694 0.190043
H5    H     H_    0.151543 0.887598 0.517129 0.191835
H6    H     H_    0.225084 0.887181 0.416266 0.207561
H7    H     H_    0.857502 0.634282 0.581909 0.132170
H8    H     H_    0.118794 0.633254 0.584996 0.135446
H9    H     H_    0.133142 0.365889 0.335089 0.182854
H10   H     H_    0.294356 0.501763 0.260870 0.151568
H11   H     H_    0.167386 0.265511 0.413047 0.225390
H12   H     H_    0.864640 0.282053 0.363419 0.226605
H13   H     H_    0.902263 0.259947 0.456706 0.192540
H14   H     H_    0.745736 0.493442 0.255345 0.157750
H15   H     H_    0.649497 0.467510 0.999849 0.133651
H16   H     H_    0.231883 0.554249 0.880252 0.133413
H17   H     H_    0.311102 0.516199 0.122942 0.119274
H18   H     H_    0.253469 0.517646 0.742684 0.160915
H19   H     H_    0.332861 0.534073 0.004360 0.139840
H20   H     H_    0.659807 0.466677 0.884924 0.140641
N1    N     N_R   0.852130 0.499070 0.499500 -0.190808
N2    N     N_R   0.148040 0.499110 0.499500 -0.190405
O1    O     O_R   0.381190 0.680360 0.500000 -0.583953
O2    O     O_R   0.618770 0.680320 0.499990 -0.587263
O3    O     O_R   0.367430 0.500040 0.613600 -0.583314
O4    O     O_R   0.605020 0.500000 0.613590 -0.605476
O5    O     O_R   0.381230 0.319680 0.500010 -0.583616
O6    O     O_R   0.618810 0.319640 0.500000 -0.588688
O7    O     O_R   0.394980 0.500000 0.386410 -0.593217
O8    O     O_R   0.632570 0.499960 0.386400 -0.584089
C33   C     C_3   0.751477 0.506297 0.738601 -0.362654
C34   C     C_3   0.868777 0.492685 0.794821 -0.920117
H21   H     H_    0.859691 0.559692 0.841400 0.258354
H22   H     H_    0.867892 0.400895 0.821228 0.250377
H23   H     H_    0.971574 0.504553 0.762629 0.248564
H24   H     H_    0.757633 0.423822 0.703813 0.231531
H25   H     H_    0.777254 0.585666 0.701766 0.209164
C35   C     C_2   0.042763 0.066428 0.446203 0.126086
H26   H     H_    0.109240 0.076786 0.391758 0.344495
O9    O     O_2   0.997776 0.100313 0.379822 -0.653735

loop_
_geom_bond_atom_site_label_1
_geom_bond_atom_site_label_2
_ccdc_geom_bond_type
C10   C27   S    
C34   H22   S    
C25   H9    S    
C30   H20   S    
C11   C19   S    
C12   C28   S    
C5    C6    A    
C19   H5    S    
C28   C29   A    
C3    C7    A    
C14   H2    S    
C30   C31   A    
C34   H23   S    
C33   H24   S    
Cu2   O6    S    
C6    H1    S    
C2    C32   A    
C18   C19   S    
C15   H3    S    
C12   O3    A    
C23   O6    A    
C20   C24   A    
C8    C9    D    
Cu1   N2    S    
C34   H21   S    
Cu2   N1    S    
Cu1   O3    S    
C21   C22   A    
Cu2   O4    S    
C20   N1    A    
Cu1   Cu2   S    
C18   C35   S    
C5    H14   S    
C9    H15   S    
C24   C25   S    
C35   O9    D    
C27   O8    A    
C21   N1    A    
C3    H17   S    
C16   C17   A    
C22   N2    A    
C4    H10   S    
C25   C26   S    
C33   H25   S    
C29   C30   A    
C1    O1    A    
C31   C32   A    
Cu1   O7    S    
Cu2   O8    S    
C17   C18   S    
C32   H16   S    
C2    H18   S    
C26   H13   S    
C29   C33   S    
C16   C23   S    
C21   H7    S    
C1    C13   S    
C4    C10   A    
C3    C4    A    
C25   H11   S    
C7    C9    S    
C11   C17   A    
Cu1   O1    S    
C8    C31   S    
C35   H26   S    
C8    H19   S    
C6    C7    A    
C24   N2    A    
C18   H4    S    
C5    C10   A    
C1    O2    A    
C11   C13   A    
C22   H8    S    
C20   C26   S    
C19   H6    S    
C26   H12   S    
C12   O4    A    
C23   O5    A    
Cu1   O5    S    
C33   C34   S    
Cu2   O2    S    
C14   C15   A    
C27   O7    A    
C2    C28   A    
C13   C14   A    
C15   C16   A    
