data_mof_unit_34817.cif
_audit_creation_date              2012-12-10T19:54:22-0500
_audit_creation_method            fapswitch 2.2
_symmetry_space_group_name_H-M    P1
_symmetry_Int_Tables_number       1
_space_group_crystal_system       triclinic
_cell_length_a                    15.696373
_cell_length_b                    14.876922
_cell_length_c                    14.174296
_cell_angle_alpha                 90.691252
_cell_angle_beta                  89.935776
_cell_angle_gamma                 90.371122
_cell_volume                      3309.58043062

loop_
_atom_site_label
_atom_site_type_symbol
_atom_type_description
_atom_site_fract_x
_atom_site_fract_y
_atom_site_fract_z
_atom_type_partial_charge
C1    C     C_R   0.504139 0.327426 0.499557 0.947625
C2    C     C_R   0.499760 0.671899 0.500490 1.002798
C3    C     C_R   0.548657 0.187126 0.579060 0.318588
C4    C     C_R   0.440454 0.819143 0.468453 0.323958
C5    C     C_R   0.519342 0.231559 0.497986 -0.298030
C6    C     C_R   0.507667 0.767043 0.500914 -0.252477
C7    C     C_R   0.509407 0.184540 0.412606 -0.382331
C8    C     C_R   0.585918 0.804572 0.526547 -0.390783
C9    C     C_R   0.522525 0.092928 0.408439 0.574911
C10   C     C_R   0.599214 0.896735 0.518155 0.572225
C11   C     C_R   0.539063 0.046985 0.492230 -0.098140
C12   C     C_R   0.529791 0.950291 0.492760 -0.114070
C13   C     C_R   0.425536 0.484709 0.103288 0.275041
C14   C     C_R   0.534769 0.573596 0.895669 0.265456
C15   C     C_R   0.427525 0.478507 0.202915 0.478380
C16   C     C_R   0.538834 0.569017 0.795725 0.479932
C17   C     C_R   0.573453 0.519163 0.205078 -0.276316
C18   C     C_R   0.465531 0.429500 0.794808 -0.250058
C19   C     C_R   0.576694 0.516777 0.105520 0.390294
C20   C     C_R   0.469202 0.425729 0.894205 0.390357
C21   C     C_R   0.501487 0.500642 0.052940 -0.064198
C22   C     C_R   0.501859 0.499971 0.946338 -0.064635
C23   C     C_R   0.337893 0.500237 0.500052 0.900927
C24   C     C_R   0.662053 0.500136 0.499932 0.869288
C25   C     C_3   0.971656 0.435488 0.554060 0.262686
C26   C     C_3   0.027960 0.570194 0.444628 0.270021
C27   C     C_3   0.027455 0.423250 0.465536 0.266447
C28   C     C_3   0.972148 0.582407 0.533223 0.262180
C29   C     C_1   0.249155 0.501652 0.500323 -0.156830
C30   C     C_1   0.750700 0.500884 0.499476 -0.198761
C31   C     C_3   0.026200 0.515456 0.589039 0.268625
C32   C     C_3   0.973382 0.490153 0.409733 0.265586
C33   C     C_3   0.083221 0.503305 0.500487 -0.160479
C34   C     C_3   0.916496 0.502429 0.498280 -0.154407
C35   C     C_1   0.173942 0.502792 0.500640 0.154617
C36   C     C_1   0.825864 0.501655 0.498643 0.141699
C37   C     C_R   0.553658 0.093652 0.577581 0.350173
C38   C     C_R   0.449741 0.912235 0.469669 0.350876
H1    H     H_    0.630715 0.535032 0.244319 0.201356
H2    H     H_    0.436647 0.374725 0.755200 0.202849
H3    H     H_    0.490810 0.218326 0.348724 0.196292
H4    H     H_    0.636673 0.761638 0.550851 0.182204
N1    N     N_R   0.500000 0.499980 0.252470 -0.164701
N2    N     N_R   0.500000 0.500020 0.747530 -0.166764
O1    O     O_R   0.500010 0.369070 0.579480 -0.579859
O2    O     O_R   0.499990 0.630930 0.420520 -0.627130
O3    O     O_R   0.500010 0.369060 0.420520 -0.629618
O4    O     O_R   0.499990 0.630940 0.579480 -0.558709
O5    O     O_R   0.376780 0.500000 0.579460 -0.615037
O6    O     O_R   0.623220 0.500000 0.420540 -0.623953
O7    O     O_R   0.376780 0.499990 0.420510 -0.554852
O8    O     O_R   0.623220 0.500010 0.579490 -0.607774
Zn1   Zn    Zn3+2 0.500000 0.500010 0.606140 0.993556
Zn2   Zn    Zn3+2 0.500000 0.499990 0.393860 0.966703
O9    O     O_3   0.064660 0.343167 0.430978 -0.616414
C39   C     C_3   0.000542 0.279131 0.409276 0.114980
H5    H     H_    0.949676 0.307295 0.363991 0.170399
H6    H     H_    0.970645 0.253080 0.474439 0.179653
C40   C     C_3   0.040575 0.200257 0.356807 -0.872405
H7    H     H_    0.090185 0.168994 0.401358 0.264861
H8    H     H_    0.990978 0.149065 0.339693 0.210654
H9    H     H_    0.070205 0.223610 0.290183 0.256109
O10   O     O_3   0.935371 0.662687 0.567888 -0.625738
C41   C     C_3   0.999954 0.726255 0.589573 0.111361
H10   H     H_    0.029086 0.753051 0.524312 0.183258
H11   H     H_    0.051331 0.697382 0.633656 0.177901
C42   C     C_3   0.960950 0.804586 0.643875 -0.868033
H12   H     H_    0.931340 0.780368 0.710157 0.256918
H13   H     H_    0.011143 0.854897 0.661733 0.214500
H14   H     H_    0.911573 0.837273 0.600261 0.258623
O11   O     O_3   0.652757 0.534430 0.060013 -0.546667
C43   C     C_3   0.699891 0.454164 0.053295 0.108961
H15   H     H_    0.660370 0.396993 0.026026 0.112939
H16   H     H_    0.726245 0.436685 0.123564 0.146970
C44   C     C_3   0.773492 0.467763 0.984886 -0.831378
H17   H     H_    0.814944 0.523974 0.009761 0.261992
H18   H     H_    0.811991 0.405518 0.979928 0.204369
H19   H     H_    0.748505 0.483601 0.913721 0.245591
O12   O     O_3   0.437065 0.351628 0.940698 -0.552898
C45   C     C_3   0.492644 0.278391 0.926867 0.092089
H20   H     H_    0.559595 0.297149 0.944764 0.116933
H21   H     H_    0.489758 0.253463 0.852583 0.177630
C46   C     C_3   0.465643 0.202217 0.991158 -0.821981
H22   H     H_    0.399723 0.180132 0.973809 0.259630
H23   H     H_    0.509281 0.144366 0.981591 0.205033
H24   H     H_    0.468028 0.225114 0.066012 0.251363
O13   O     O_3   0.933646 0.367063 0.608366 -0.624618
C47   C     C_3   0.996959 0.318838 0.656765 0.114941
H25   H     H_    0.024286 0.359904 0.715221 0.183316
H26   H     H_    0.049779 0.297267 0.609431 0.173945
C48   C     C_3   0.956719 0.235252 0.699098 -0.874076
H27   H     H_    0.929369 0.191824 0.642340 0.255903
H28   H     H_    0.005685 0.196711 0.737702 0.215764
H29   H     H_    0.905277 0.254701 0.749055 0.259690
O14   O     O_3   0.064771 0.639016 0.389842 -0.618980
C49   C     C_3   0.000273 0.686520 0.342393 0.121743
H30   H     H_    0.947953 0.707697 0.390587 0.170717
H31   H     H_    0.972425 0.645045 0.284571 0.183967
C50   C     C_3   0.038767 0.770472 0.298979 -0.895486
H32   H     H_    0.088780 0.751480 0.247089 0.262252
H33   H     H_    0.988464 0.808744 0.262211 0.216955
H34   H     H_    0.067369 0.814006 0.354887 0.255659
O15   O     O_3   0.937983 0.477926 0.318849 -0.616970
C51   C     C_3   0.003479 0.463517 0.251885 0.127309
H35   H     H_    0.030957 0.395495 0.259266 0.179726
H36   H     H_    0.055934 0.513833 0.258594 0.177856
C52   C     C_3   0.966337 0.470211 0.153153 -0.883855
H37   H     H_    0.939264 0.538131 0.142623 0.257360
H38   H     H_    0.016994 0.458432 0.099742 0.215544
H39   H     H_    0.915232 0.419011 0.143095 0.263165
O16   O     O_3   0.060960 0.527509 0.680259 -0.610488
C53   C     C_3   0.994913 0.542211 0.746528 0.120402
H40   H     H_    0.942496 0.491898 0.739521 0.169070
H41   H     H_    0.967503 0.610189 0.738588 0.178127
C54   C     C_3   0.031123 0.536007 0.845698 -0.878119
H42   H     H_    0.081415 0.587985 0.856276 0.264545
H43   H     H_    0.979763 0.547110 0.898460 0.215305
H44   H     H_    0.058960 0.468493 0.856644 0.260092
O17   O     O_3   0.578328 0.048720 0.657961 -0.549141
C55   C     C_3   0.506287 0.033781 0.715481 0.136026
H45   H     H_    0.462928 0.983598 0.681629 0.103124
H46   H     H_    0.470838 0.097153 0.730081 0.146174
C56   C     C_3   0.535237 0.996076 0.809314 -0.807679
H47   H     H_    0.579126 0.044427 0.845018 0.253682
H48   H     H_    0.479168 0.984345 0.855511 0.193285
H49   H     H_    0.568702 0.931307 0.797621 0.268437
O18   O     O_3   0.382721 0.965380 0.440953 -0.569085
C57   C     C_3   0.331722 0.987259 0.519839 0.123022
H50   H     H_    0.366052 0.035241 0.567231 0.103239
H51   H     H_    0.312889 0.926282 0.560064 0.153178
C58   C     C_3   0.250949 0.032661 0.486059 -0.807442
H52   H     H_    0.214655 0.986289 0.438775 0.255928
H53   H     H_    0.210352 0.050923 0.547500 0.197564
H54   H     H_    0.267411 0.094726 0.447000 0.259559
O19   O     O_3   0.568790 0.233771 0.661209 -0.602656
C59   C     C_3   0.656288 0.256568 0.658515 0.196846
H55   H     H_    0.671677 0.297578 0.595344 0.123634
H56   H     H_    0.696254 0.194939 0.657716 0.166253
C60   C     C_3   0.679104 0.311929 0.745934 -0.853156
H57   H     H_    0.747691 0.330642 0.743986 0.222781
H58   H     H_    0.640785 0.374339 0.748522 0.256249
H59   H     H_    0.666512 0.272293 0.810389 0.236046
O20   O     O_3   0.363439 0.779071 0.444644 -0.610217
C61   C     C_3   0.355963 0.775538 0.345351 0.125044
H60   H     H_    0.414223 0.747466 0.311177 0.140658
H61   H     H_    0.343858 0.843699 0.317118 0.192685
C62   C     C_3   0.281017 0.715093 0.318846 -0.782807
H62   H     H_    0.222155 0.739981 0.353556 0.286114
H63   H     H_    0.271824 0.714905 0.241175 0.181046
H64   H     H_    0.293127 0.645285 0.341871 0.279881
O21   O     O_3   0.509571 0.047194 0.324154 -0.567125
C63   C     C_3   0.588683 0.039365 0.277852 -0.352078
H65   H     H_    0.634810 0.000475 0.320505 0.162766
H66   H     H_    0.615649 0.106645 0.260703 0.159696
H67   H     H_    0.578808 0.002222 0.210361 0.195550
O22   O     O_3   0.676900 0.936940 0.540397 -0.557581
C64   C     C_3   0.743522 0.896632 0.488319 -0.336024
H68   H     H_    0.726205 0.885170 0.412883 0.142694
H69   H     H_    0.763543 0.832784 0.521191 0.182182
H70   H     H_    0.799373 0.942697 0.489766 0.188612
O23   O     O_3   0.350052 0.469446 0.055173 -0.546492
C65   C     C_3   0.299833 0.547692 0.060522 0.128574
H71   H     H_    0.332933 0.605053 0.026309 0.105330
H72   H     H_    0.284603 0.566217 0.134964 0.164395
C66   C     C_3   0.216306 0.530520 0.008945 -0.812345
H73   H     H_    0.181436 0.473749 0.041895 0.256797
H74   H     H_    0.176006 0.591526 0.012947 0.197843
H75   H     H_    0.228954 0.513783 0.933654 0.267441
O24   O     O_3   0.566894 0.647899 0.943647 -0.549174
C67   C     C_3   0.506902 0.717996 0.939727 0.130806
H76   H     H_    0.444903 0.696734 0.970682 0.105017
H77   H     H_    0.496698 0.740022 0.865826 0.168659
C68   C     C_3   0.540105 0.798109 0.996624 -0.823707
H78   H     H_    0.601474 0.822006 0.966585 0.261267
H79   H     H_    0.493284 0.853689 0.994440 0.199313
H80   H     H_    0.550049 0.778650 0.071211 0.258223
O25   O     O_3   0.354372 0.454401 0.250455 -0.585725
C69   C     C_3   0.344675 0.360191 0.244898 -0.219727
H81   H     H_    0.291718 0.340076 0.292232 0.183200
H82   H     H_    0.327640 0.337850 0.172177 0.193636
H83   H     H_    0.402904 0.324883 0.268753 0.143809
O26   O     O_3   0.578770 0.636335 0.745692 -0.579423
C70   C     C_3   0.667824 0.627180 0.754924 -0.228685
H84   H     H_    0.699312 0.669867 0.701346 0.179427
H85   H     H_    0.689251 0.556780 0.742163 0.143072
H86   H     H_    0.689705 0.651090 0.825422 0.197807

loop_
_geom_bond_atom_site_label_1
_geom_bond_atom_site_label_2
_ccdc_geom_bond_type
C25   C31   S    
O9    C39   S    
C8    C10   A    
C24   O8    A    
C64   H68   S    
C15   O25   S    
C43   H16   S    
O24   C67   S    
C19   O11   S    
O14   C49   S    
O13   C47   S    
C58   H54   S    
C57   H50   S    
C4    O20   S    
C53   H41   S    
C38   O18   S    
O19   C59   S    
C68   H78   S    
C27   C33   S    
C26   C32   S    
C66   H73   S    
C1    C5    S    
C23   C29   S    
O22   C64   S    
C62   H63   S    
C14   O24   S    
C43   C44   S    
C45   H20   S    
C60   H59   S    
C16   O26   S    
C23   O5    A    
C67   H76   S    
C54   H42   S    
C49   C50   S    
C25   O13   S    
C39   H5    S    
C53   C54   S    
C18   C20   A    
C17   H1    S    
C11   C37   A    
C18   H2    S    
O26   C70   S    
C51   H35   S    
C26   C33   S    
C62   H62   S    
C17   C19   A    
N2    Zn1   S    
O16   C53   S    
C54   H43   S    
C49   H31   S    
O21   C63   S    
C31   C33   S    
C16   N2    A    
C3    O19   S    
C55   C56   S    
C25   C34   S    
O1    Zn1   S    
C40   H7    S    
C64   H69   S    
C21   C22   S    
C52   H38   S    
C2    C6    S    
C61   C62   S    
C51   H36   S    
C53   H40   S    
C55   H46   S    
O23   C65   S    
C65   H72   S    
C68   H79   S    
C24   O6    A    
O4    Zn1   S    
C60   H57   S    
C40   H8    S    
C42   H12   S    
C41   C42   S    
C69   H81   S    
C56   H47   S    
C62   H64   S    
C61   H61   S    
C70   H86   S    
C10   O22   S    
C48   H27   S    
C5    C7    A    
C1    O3    A    
C56   H49   S    
C6    C8    A    
C3    C5    A    
C2    O2    A    
O12   C45   S    
C42   H13   S    
C41   H11   S    
C44   H17   S    
C17   N1    A    
C70   H84   S    
C18   N2    A    
C48   H28   S    
C65   C66   S    
C9    C11   A    
N1    Zn2   S    
C23   O7    A    
C46   H22   S    
C37   O17   S    
C63   H67   S    
O17   C55   S    
C54   H44   S    
C49   H30   S    
O2    Zn2   S    
C46   H24   S    
C32   O15   S    
C13   C21   A    
O6    Zn2   S    
C47   H25   S    
C44   H18   S    
C10   C12   A    
O3    Zn2   S    
C59   H56   S    
C46   H23   S    
C47   H26   S    
C66   H75   S    
C13   C15   A    
C14   C22   A    
C52   H39   S    
C14   C16   A    
C4    C6    A    
C20   C22   A    
C52   H37   S    
C8    H4    S    
O18   C57   S    
C57   C58   S    
O8    Zn1   S    
C45   C46   S    
C65   H71   S    
C68   H80   S    
C26   O14   S    
C7    C9    A    
C9    O21   S    
C40   H9    S    
C20   O12   S    
C50   H33   S    
C27   C32   S    
C28   C31   S    
C63   H66   S    
C43   H15   S    
C58   H53   S    
C57   H51   S    
C69   H82   S    
C11   C12   S    
C13   O23   S    
C64   H70   S    
C25   C27   S    
C29   C35   T    
C27   O9    S    
C26   C28   S    
C39   C40   S    
C30   C36   T    
C61   H60   S    
O7    Zn2   S    
C2    O4    A    
C41   H10   S    
C42   H14   S    
C70   H85   S    
C15   N1    A    
O11   C43   S    
C50   H32   S    
C59   C60   S    
C48   H29   S    
C60   H58   S    
C1    O1    A    
C47   C48   S    
C67   H77   S    
O5    Zn1   S    
C33   C35   S    
C45   H21   S    
C39   H6    S    
C34   C36   S    
C7    H3    S    
C12   C38   A    
C58   H52   S    
C44   H19   S    
C24   C30   S    
C69   H83   S    
C56   H48   S    
C28   C34   S    
O10   C41   S    
C28   O10   S    
C50   H34   S    
C63   H65   S    
C3    C37   A    
C66   H74   S    
O25   C69   S    
O15   C51   S    
C31   O16   S    
C55   H45   S    
C59   H55   S    
C4    C38   A    
C51   C52   S    
O20   C61   S    
C32   C34   S    
C19   C21   A    
C67   C68   S    
