data_mof_unit_43595.cif
_audit_creation_date              2012-12-10T17:31:25-0500
_audit_creation_method            fapswitch 2.2
_symmetry_space_group_name_H-M    P1
_symmetry_Int_Tables_number       1
_space_group_crystal_system       triclinic
_cell_length_a                    19.021527
_cell_length_b                    18.485856
_cell_length_c                    12.370516
_cell_angle_alpha                 89.999833
_cell_angle_beta                  128.783126
_cell_angle_gamma                 90.000319
_cell_volume                      3390.79393434

loop_
_atom_site_label
_atom_site_type_symbol
_atom_type_description
_atom_site_fract_x
_atom_site_fract_y
_atom_site_fract_z
_atom_type_partial_charge
C1    C     C_R   0.613341 0.899135 0.654197 0.778764
C2    C     C_R   0.613341 0.100866 0.654196 0.778761
C3    C     C_R   0.113341 0.399134 0.654196 0.778764
C4    C     C_R   0.113341 0.600866 0.654196 0.778761
C5    C     C_R   0.249979 0.768925 0.047498 0.025780
C6    C     C_R   0.249983 0.231081 0.047508 0.025781
C7    C     C_R   0.749980 0.268923 0.047501 0.025780
C8    C     C_R   0.749983 0.731080 0.047507 0.025780
C9    C     C_R   0.672504 0.259556 0.038649 0.071082
C10   C     C_R   0.672507 0.740445 0.038655 0.071085
C11   C     C_R   0.172501 0.759560 0.038642 0.071081
C12   C     C_R   0.172509 0.240449 0.038661 0.071084
C13   C     C_R   0.596228 0.225105 0.923089 0.339066
C14   C     C_R   0.596231 0.774897 0.923097 0.339064
C15   C     C_R   0.096224 0.725110 0.923080 0.339068
C16   C     C_R   0.096233 0.274901 0.923103 0.339061
C17   C     C_R   0.596060 0.203011 0.816430 -0.236738
C18   C     C_R   0.596062 0.796991 0.816436 -0.236741
C19   C     C_R   0.096059 0.703014 0.816424 -0.236736
C20   C     C_R   0.096062 0.296993 0.816440 -0.236741
C21   C     C_R   0.319268 0.813767 0.152050 -0.240178
C22   C     C_R   0.319271 0.186235 0.152055 -0.240183
C23   C     C_R   0.819269 0.313767 0.152051 -0.240179
C24   C     C_R   0.819272 0.686236 0.152056 -0.240182
C25   C     C_R   0.243555 0.827448 0.252186 -0.022658
C26   C     C_R   0.243562 0.172556 0.252199 -0.022664
C27   C     C_R   0.743558 0.327446 0.252191 -0.022660
C28   C     C_R   0.743559 0.672553 0.252194 -0.022664
C29   C     C_R   0.683194 0.154416 0.747664 -0.075291
C30   C     C_R   0.683196 0.845586 0.747668 -0.075295
C31   C     C_R   0.183195 0.654416 0.747665 -0.075292
C32   C     C_R   0.183194 0.345585 0.747666 -0.075293
C33   C     C_R   0.684905 0.000002 0.286290 0.279087
C34   C     C_R   0.184905 0.500000 0.286290 0.279088
C35   C     C_R   0.344393 0.999997 0.630070 0.136501
C36   C     C_R   0.844393 0.499999 0.630070 0.136501
C37   C     C_R   0.311113 0.999995 0.703471 -0.227975
C38   C     C_R   0.811113 0.499998 0.703471 -0.227973
C39   C     C_R   0.385172 0.100094 0.344307 0.791229
C40   C     C_R   0.385171 0.899907 0.344306 0.791226
C41   C     C_R   0.885172 0.600094 0.344307 0.791229
C42   C     C_R   0.885171 0.399906 0.344306 0.791227
C43   C     C_R   0.369735 0.999996 0.847833 -0.165410
C44   C     C_R   0.869735 0.499998 0.847833 -0.165408
C45   C     C_R   0.463648 0.999999 0.922433 0.086692
C46   C     C_R   0.963648 0.500000 0.922433 0.086691
C47   C     C_R   0.494891 0.000000 0.842531 0.338776
C48   C     C_R   0.994891 0.500000 0.842531 0.338775
C49   C     C_R   0.527422 0.000000 0.072691 -0.045864
C50   C     C_R   0.027421 0.500000 0.072691 -0.045865
C51   C     C_R   0.621151 0.000001 0.139758 0.094363
C52   C     C_R   0.121151 0.500000 0.139758 0.094362
C53   C     C_R   0.649770 0.000002 0.059680 -0.195960
C54   C     C_R   0.149770 0.500000 0.059680 -0.195961
C55   C     C_R   0.588578 0.000001 0.915839 -0.163378
C56   C     C_R   0.088578 0.500000 0.915839 -0.163379
C57   C     C_R   0.502567 1.000000 0.160289 0.013527
C58   C     C_R   0.002567 0.500000 0.160289 0.013527
C59   C     C_R   0.655419 0.000001 0.364847 0.024200
C60   C     C_R   0.155419 0.500000 0.364847 0.024200
C61   C     C_R   0.672060 0.286140 0.143863 -0.172492
C62   C     C_R   0.672062 0.713860 0.143868 -0.172491
C63   C     C_R   0.172056 0.786144 0.143855 -0.172494
C64   C     C_R   0.172066 0.213865 0.143875 -0.172490
C65   C     C_R   0.316002 0.845181 0.251923 -0.099587
C66   C     C_R   0.316005 0.154821 0.251929 -0.099582
C67   C     C_R   0.816003 0.345180 0.251925 -0.099585
C68   C     C_R   0.816005 0.654821 0.251928 -0.099582
C69   C     C_R   0.763917 0.152084 0.766748 -0.211318
C70   C     C_R   0.763919 0.847921 0.766755 -0.211323
C71   C     C_R   0.263918 0.652082 0.766752 -0.211317
C72   C     C_R   0.263916 0.347917 0.766748 -0.211322
C73   C     C_R   0.339907 0.687558 0.877797 -0.134320
C74   C     C_R   0.339906 0.312442 0.877795 -0.134321
C75   C     C_R   0.839906 0.187562 0.877792 -0.134327
C76   C     C_R   0.839910 0.812448 0.877804 -0.134308
C77   C     C_R   0.336436 0.727365 0.969761 -0.133031
C78   C     C_R   0.336436 0.272638 0.969763 -0.133035
C79   C     C_R   0.836435 0.227367 0.969758 -0.133029
C80   C     C_R   0.836439 0.772642 0.969769 -0.133035
C81   C     C_R   0.755151 0.233113 0.951000 0.068320
C82   C     C_R   0.755154 0.766891 0.951007 0.068323
C83   C     C_R   0.255151 0.733114 0.950999 0.068320
C84   C     C_R   0.255153 0.266890 0.951005 0.068323
C85   C     C_R   0.677166 0.197741 0.835957 0.012555
C86   C     C_R   0.677168 0.802262 0.835962 0.012557
C87   C     C_R   0.177166 0.697742 0.835955 0.012553
C88   C     C_R   0.177167 0.302262 0.835962 0.012559
Cu1   Cu    Cu3+1 0.526340 0.000000 0.421010 0.947110
Cu2   Cu    Cu3+1 0.026340 0.500000 0.421010 0.947109
Cu3   Cu    Cu3+1 0.473640 0.000000 0.578990 0.947349
Cu4   Cu    Cu3+1 0.973640 0.500000 0.578990 0.947349
H1    H     H_    0.720741 0.000002 0.107665 0.202994
H2    H     H_    0.220740 0.500000 0.107665 0.202994
H3    H     H_    0.432901 0.999999 0.117753 0.133297
H4    H     H_    0.932901 0.500000 0.117753 0.133298
H5    H     H_    0.298005 0.999995 0.518079 0.146015
H6    H     H_    0.798004 0.499998 0.518079 0.146015
H7    H     H_    0.339655 0.999995 0.898178 0.129171
H8    H     H_    0.839655 0.499998 0.898178 0.129170
H9    H     H_    0.239139 0.999992 0.648190 0.146992
H10   H     H_    0.739139 0.499996 0.648190 0.146991
H11   H     H_    0.618476 0.000001 0.866403 0.200322
H12   H     H_    0.118476 0.500000 0.866403 0.200322
H13   H     H_    0.615542 0.275312 0.142521 0.192053
H14   H     H_    0.615544 0.724686 0.142526 0.192056
H15   H     H_    0.115537 0.775317 0.142510 0.192051
H16   H     H_    0.115549 0.224692 0.142536 0.192056
H17   H     H_    0.374815 0.827583 0.153326 0.163474
H18   H     H_    0.374814 0.172418 0.153324 0.163475
H19   H     H_    0.874814 0.327584 0.153325 0.163475
H20   H     H_    0.874817 0.672420 0.153328 0.163474
H21   H     H_    0.770349 0.118413 0.701665 0.163937
H22   H     H_    0.770351 0.881594 0.701673 0.163938
H23   H     H_    0.270351 0.618409 0.701671 0.163937
H24   H     H_    0.270347 0.381587 0.701663 0.163940
H25   H     H_    0.399467 0.749766 0.058183 0.151997
H26   H     H_    0.399468 0.250238 0.058187 0.151995
H27   H     H_    0.899466 0.249768 0.058180 0.152000
H28   H     H_    0.899471 0.750244 0.058195 0.151990
H29   H     H_    0.403118 0.680944 0.896414 0.196242
H30   H     H_    0.403116 0.319057 0.896409 0.196245
H31   H     H_    0.903115 0.180949 0.896406 0.196243
H32   H     H_    0.903120 0.819066 0.896423 0.196242
H33   H     H_    0.532062 0.186414 0.721324 0.194675
H34   H     H_    0.532063 0.813587 0.721331 0.194674
H35   H     H_    0.032061 0.686416 0.721317 0.194673
H36   H     H_    0.032062 0.313590 0.721336 0.194675
H37   H     H_    0.703893 0.000001 0.476943 0.150875
H38   H     H_    0.203893 0.500000 0.476943 0.150875
N1    N     N_R   0.566260 1.000000 0.302220 -0.208787
N2    N     N_R   0.066260 0.500000 0.302220 -0.208787
N3    N     N_R   0.434410 0.000000 0.697680 -0.214656
N4    N     N_R   0.934410 0.500000 0.697680 -0.214656
O1    O     O_R   0.608610 0.924520 0.551740 -0.577545
O2    O     O_R   0.608610 0.075480 0.551740 -0.577546
O3    O     O_R   0.108610 0.424520 0.551740 -0.577546
O4    O     O_R   0.108610 0.575480 0.551740 -0.577546
O5    O     O_R   0.564110 0.924510 0.685150 -0.600844
O6    O     O_R   0.564110 0.075490 0.685150 -0.600843
O7    O     O_R   0.064110 0.424510 0.685150 -0.600845
O8    O     O_R   0.064110 0.575490 0.685150 -0.600842
O9    O     O_R   0.435880 0.075470 0.314850 -0.581237
O10   O     O_R   0.435880 0.924530 0.314850 -0.581236
O11   O     O_R   0.935880 0.575470 0.314850 -0.581237
O12   O     O_R   0.935880 0.424530 0.314850 -0.581236
O13   O     O_R   0.391380 0.075460 0.448260 -0.584650
O14   O     O_R   0.391380 0.924540 0.448260 -0.584654
O15   O     O_R   0.891380 0.575460 0.448260 -0.584650
O16   O     O_R   0.891380 0.424540 0.448260 -0.584653
C89   C     C_R   0.238440 0.847422 0.362729 0.124592
C90   C     C_R   0.293518 0.811417 0.490771 -0.088409
C91   C     C_R   0.274316 0.815584 0.582739 -0.089642
C92   C     C_R   0.200505 0.855689 0.548020 -0.123090
C93   C     C_R   0.146952 0.893426 0.422569 -0.166809
C94   C     C_R   0.165601 0.889240 0.329961 -0.184608
H39   H     H_    0.348255 0.777208 0.516092 0.136802
H40   H     H_    0.315075 0.786152 0.679275 0.197069
H41   H     H_    0.185337 0.858046 0.618938 0.144552
H42   H     H_    0.090060 0.924849 0.396025 0.145569
H43   H     H_    0.121150 0.916012 0.230327 0.133311
C95   C     C_R   0.238445 0.152576 0.362737 0.124594
C96   C     C_R   0.165609 0.110746 0.329961 -0.184598
C97   C     C_R   0.146953 0.106554 0.422560 -0.166803
C98   C     C_R   0.200494 0.144295 0.548009 -0.123092
C99   C     C_R   0.274303 0.184409 0.582737 -0.089637
C100  C     C_R   0.293513 0.188583 0.490778 -0.088411
H44   H     H_    0.121167 0.083972 0.230327 0.133312
H45   H     H_    0.090063 0.075123 0.396009 0.145567
H46   H     H_    0.185321 0.141932 0.618919 0.144548
H47   H     H_    0.315054 0.213843 0.679274 0.197064
H48   H     H_    0.348246 0.222800 0.516105 0.136810
C101  C     C_R   0.738442 0.347422 0.362732 0.124596
C102  C     C_R   0.793518 0.311417 0.490775 -0.088413
C103  C     C_R   0.774314 0.315586 0.582740 -0.089645
C104  C     C_R   0.700503 0.355693 0.548017 -0.123086
C105  C     C_R   0.646953 0.393430 0.422566 -0.166807
C106  C     C_R   0.665603 0.389243 0.329961 -0.184605
H49   H     H_    0.848254 0.277205 0.516099 0.136802
H50   H     H_    0.815071 0.286154 0.679278 0.197063
H51   H     H_    0.685333 0.358052 0.618933 0.144551
H52   H     H_    0.590061 0.424856 0.396019 0.145567
H53   H     H_    0.621155 0.416015 0.230326 0.133311
C107  C     C_R   0.738442 0.652574 0.362732 0.124593
C108  C     C_R   0.665606 0.610745 0.329957 -0.184602
C109  C     C_R   0.646949 0.606554 0.422555 -0.166802
C110  C     C_R   0.700490 0.644297 0.548002 -0.123096
C111  C     C_R   0.774298 0.684412 0.582729 -0.089632
C112  C     C_R   0.793509 0.688583 0.490771 -0.088408
H54   H     H_    0.621164 0.583969 0.230324 0.133311
H55   H     H_    0.590060 0.575123 0.396005 0.145566
H56   H     H_    0.685315 0.641936 0.618912 0.144547
H57   H     H_    0.815047 0.713848 0.679264 0.197065
H58   H     H_    0.848241 0.722801 0.516097 0.136813
Cl1   Cl    Cl    0.802373 0.000003 0.376815 -0.665943
Cl2   Cl    Cl    0.302374 0.500001 0.376815 -0.665943
Cl3   Cl    Cl    0.500068 0.205180 0.908269 -0.753268
Cl4   Cl    Cl    0.500074 0.794822 0.908282 -0.753274
Cl5   Cl    Cl    0.000063 0.705188 0.908255 -0.753265
Cl6   Cl    Cl    0.000077 0.294829 0.908291 -0.753271

loop_
_geom_bond_atom_site_label_1
_geom_bond_atom_site_label_2
_ccdc_geom_bond_type
C83   C87   A    
C80   H28   S    
C98   C99   A    
Cu1   O1    S    
C14   C18   A    
C96   C97   A    
C3    O7    A    
C57   H3    S    
C35   N3    A    
Cu3   O13   S    
C108  H54   S    
C32   C72   A    
C101  C102  A    
C70   H22   S    
C15   C19   A    
C14   Cl4   S    
C59   N1    A    
C18   C86   A    
C13   Cl3   S    
C37   H9    S    
C2    C29   S    
C75   H31   S    
C48   N4    A    
C97   C98   A    
C78   H26   S    
C43   H7    S    
C5    C11   A    
Cu2   O11   S    
C77   H25   S    
C6    C12   A    
C5    C83   A    
C9    C13   A    
C41   O15   A    
C77   C83   A    
C105  H52   S    
C6    C22   A    
C55   H11   S    
C91   H40   S    
C49   C57   A    
C107  C108  A    
C48   C56   A    
C25   C63   A    
C36   H6    S    
C23   C67   A    
C109  H55   S    
C26   C64   A    
C102  C103  A    
C22   C66   A    
C58   H4    S    
C27   C61   A    
C30   C70   A    
C11   C15   A    
C112  H58   S    
C12   C16   A    
C44   C46   A    
C22   H18   S    
C79   H27   S    
C50   C52   A    
C89   C90   A    
C3    O3    A    
C30   C86   A    
C61   H13   S    
C29   C85   A    
C106  H53   S    
C1    O5    A    
Cu2   N2    S    
C45   C47   A    
C99   H47   S    
C33   C59   A    
Cu1   O2    S    
C47   N3    A    
C34   C60   A    
C60   N2    A    
C97   H45   S    
C10   C62   A    
C21   C65   A    
Cu3   O14   S    
Cu2   O4    S    
C52   C54   A    
C64   H16   S    
C41   C68   S    
C29   C69   A    
C53   C55   A    
C104  H51   S    
C46   C48   A    
C6    C84   A    
C40   O14   A    
C53   H1    S    
C76   H32   S    
C84   C88   A    
C31   C87   A    
C27   C101  S    
C56   H12   S    
C72   C74   A    
C10   C14   A    
C58   N2    A    
C71   C73   A    
C35   H5    S    
C49   C51   A    
C82   C86   A    
C26   C95   S    
C2    O2    A    
Cu3   O6    S    
C111  C112  A    
C51   C53   A    
C5    C21   A    
C26   C66   A    
C37   C43   A    
C38   C44   A    
C9    C61   A    
C15   Cl5   S    
Cu2   Cu4   S    
C103  C104  A    
Cu3   N3    S    
C45   C49   A    
C16   C20   A    
C69   H21   S    
C92   C93   A    
C50   C58   A    
C25   C65   A    
C89   C94   A    
Cu4   O7    S    
C43   C45   A    
C110  H56   S    
C100  H48   S    
C109  C110  A    
Cu3   O5    S    
C80   C82   A    
C104  C105  A    
C7    C81   A    
C39   O9    A    
C94   H43   S    
C73   H29   S    
C40   C65   S    
C40   O10   A    
Cu4   O16   S    
C42   C67   S    
C39   C66   S    
C17   C85   A    
Cu1   Cu3   S    
C70   C76   A    
C60   H38   S    
C42   O12   A    
Cu4   O15   S    
Cu2   O3    S    
Cu4   O8    S    
C35   C37   A    
C47   C55   A    
C95   C96   A    
C34   Cl2   S    
C98   H46   S    
C7    C9    A    
C12   C64   A    
C46   C50   A    
C90   H39   S    
C59   H37   S    
C74   H30   S    
C93   H42   S    
C57   N1    A    
C8    C10   A    
Cu4   N4    S    
C76   C80   A    
C28   C68   A    
C36   N4    A    
C111  H57   S    
C21   H17   S    
C79   C81   A    
C54   C56   A    
C20   H36   S    
C103  H50   S    
C62   H14   S    
C33   C51   A    
Cu1   O10   S    
C23   H19   S    
C16   Cl6   S    
C72   H24   S    
C34   C52   A    
Cu1   N1    S    
C13   C17   A    
C25   C89   S    
C2    O6    A    
C36   C38   A    
C96   H44   S    
C28   C107  S    
C19   C87   A    
C92   H41   S    
Cu2   O12   S    
Cu1   O9    S    
C18   H34   S    
C4    O8    A    
C44   H8    S    
C17   H33   S    
C108  C109  A    
C99   C100  A    
C75   C79   A    
C101  C106  A    
C7    C23   A    
C20   C88   A    
C19   H35   S    
C1    C30   S    
C8    C24   A    
C69   C75   A    
C3    C32   S    
C42   O16   A    
C24   H20   S    
C54   H2    S    
C4    C31   S    
C27   C67   A    
C24   C68   A    
C4    O4    A    
C95   C100  A    
C71   H23   S    
C78   C84   A    
C8    C82   A    
C41   O11   A    
C90   C91   A    
C33   Cl1   S    
C38   H10   S    
C105  C106  A    
C74   C78   A    
C39   O13   A    
C93   C94   A    
C73   C77   A    
C107  C112  A    
C110  C111  A    
C91   C92   A    
C1    O1    A    
C11   C63   A    
C63   H15   S    
C102  H49   S    
C81   C85   A    
C28   C62   A    
C31   C71   A    
C32   C88   A    
