data_mof_unit_15364.cif
_audit_creation_date              2012-12-10T18:35:01-0500
_audit_creation_method            fapswitch 2.2
_symmetry_space_group_name_H-M    P1
_symmetry_Int_Tables_number       1
_space_group_crystal_system       triclinic
_cell_length_a                    15.149923
_cell_length_b                    13.871142
_cell_length_c                    10.875451
_cell_angle_alpha                 88.407551
_cell_angle_beta                  91.217097
_cell_angle_gamma                 89.311713
_cell_volume                      2283.8607925

loop_
_atom_site_label
_atom_site_type_symbol
_atom_type_description
_atom_site_fract_x
_atom_site_fract_y
_atom_site_fract_z
_atom_type_partial_charge
C1    C     C_R   0.329812 0.500594 0.499687 0.882265
C2    C     C_R   0.670214 0.499365 0.496139 0.776296
C3    C     C_R   0.232920 0.502121 0.498197 -0.120991
C4    C     C_R   0.767102 0.497989 0.487787 -0.236761
C5    C     C_R   0.186209 0.426033 0.444154 0.339916
C6    C     C_R   0.817283 0.417979 0.536007 0.323409
C7    C     C_R   0.093918 0.427731 0.444274 -0.274122
C8    C     C_R   0.908710 0.422435 0.541152 -0.183057
C9    C     C_R   0.048289 0.504285 0.495631 0.060141
C10   C     C_R   0.951958 0.503747 0.495938 -0.020123
C11   C     C_R   0.516852 0.105854 0.611170 0.321441
C12   C     C_R   0.485493 0.110034 0.390599 0.319206
C13   C     C_R   0.517915 0.207245 0.606353 -0.005565
C14   C     C_R   0.482258 0.211178 0.394303 0.042736
C15   C     C_R   0.501780 0.054722 0.501104 0.017806
C16   C     C_R   0.425054 0.896345 0.466275 0.186236
C17   C     C_R   0.576106 0.891204 0.538935 0.185647
C18   C     C_R   0.427435 0.794054 0.456602 0.434328
C19   C     C_R   0.571373 0.789309 0.548238 0.442991
C20   C     C_R   0.501336 0.945846 0.501373 -0.218300
C21   C     C_R   0.506407 0.502063 0.262323 0.826458
C22   C     C_R   0.497080 0.498965 0.737915 0.810533
C23   C     C_R   0.492057 0.686828 0.103327 -0.126897
C24   C     C_R   0.415697 0.654729 0.874268 -0.112628
C25   C     C_R   0.452707 0.763125 0.035093 -0.169447
C26   C     C_R   0.409432 0.745653 0.924391 -0.167985
C27   C     C_R   0.467469 0.580764 0.933859 0.038765
C28   C     C_R   0.492795 0.591964 0.057640 0.037183
C29   C     C_R   0.518570 0.508032 0.128419 -0.325633
C30   C     C_R   0.497565 0.498261 0.872524 -0.292917
C31   C     C_R   0.548328 0.425449 0.067770 0.366710
C32   C     C_R   0.541645 0.422781 0.939762 0.379293
C33   C     C_R   0.094247 0.580356 0.547165 -0.278848
C34   C     C_R   0.903579 0.581968 0.445374 -0.177093
C35   C     C_R   0.186730 0.579758 0.550130 0.351500
C36   C     C_R   0.811858 0.578971 0.437184 0.377472
Cu1   Cu    Cu3+1 0.500000 0.596430 0.500000 1.000941
Cu2   Cu    Cu3+1 0.500000 0.403570 0.500000 0.983717
H1    H     H_    0.525573 0.705267 0.187693 0.158523
H2    H     H_    0.381552 0.643938 0.787512 0.182149
H3    H     H_    0.453905 0.835542 0.069569 0.142138
H4    H     H_    0.374092 0.803416 0.874879 0.134846
H5    H     H_    0.057949 0.638950 0.587504 0.141714
H6    H     H_    0.937442 0.643890 0.406981 0.164561
H7    H     H_    0.057341 0.369851 0.402822 0.139005
H8    H     H_    0.946323 0.361499 0.579925 0.167645
H9    H     H_    0.531173 0.244681 0.690072 0.219153
H10   H     H_    0.467128 0.251305 0.309954 0.215830
N1    N     N_R   0.500000 0.258690 0.500000 -0.258627
N2    N     N_R   0.500000 0.741330 0.500000 -0.285063
O1    O     O_R   0.371460 0.581430 0.500010 -0.488111
O2    O     O_R   0.628540 0.581430 0.499990 -0.508909
O3    O     O_R   0.371470 0.418560 0.500010 -0.537543
O4    O     O_R   0.628530 0.418560 0.499990 -0.592296
O5    O     O_R   0.500000 0.581450 0.319650 -0.606201
O6    O     O_R   0.500000 0.581450 0.680350 -0.587599
O7    O     O_R   0.500010 0.418580 0.319650 -0.549235
O8    O     O_R   0.499990 0.418580 0.680350 -0.565136
O9    O     O_3   0.580669 0.344298 0.132056 -0.526524
C37   C     C_3   0.667015 0.361899 0.177526 0.109103
H11   H     H_    0.668166 0.422694 0.241959 0.105786
H12   H     H_    0.712559 0.378670 0.101540 0.120712
C38   C     C_3   0.702096 0.272056 0.246451 -0.765792
H13   H     H_    0.702295 0.209762 0.184498 0.250532
H14   H     H_    0.770597 0.284341 0.280322 0.184135
H15   H     H_    0.659990 0.255060 0.326224 0.245296
O10   O     O_3   0.575636 0.343163 0.882302 -0.543909
C39   C     C_3   0.662665 0.362375 0.844161 0.067621
H16   H     H_    0.697520 0.417258 0.899639 0.082477
H17   H     H_    0.660949 0.389440 0.747302 0.196071
C40   C     C_3   0.716722 0.269167 0.851901 -0.662440
H18   H     H_    0.688400 0.215929 0.788152 0.262015
H19   H     H_    0.785956 0.283678 0.826314 0.219263
H20   H     H_    0.716596 0.238290 0.947149 0.238446
O11   O     O_3   0.348407 0.948359 0.439114 -0.554040
C41   C     C_3   0.297930 0.951750 0.546536 0.083319
H21   H     H_    0.335753 0.985124 0.623080 0.144170
H22   H     H_    0.277155 0.878070 0.576227 0.164621
C42   C     C_3   0.215434 0.012857 0.519670 -0.772428
H23   H     H_    0.175490 0.980779 0.444750 0.240626
H24   H     H_    0.175029 0.016106 0.603490 0.197835
H25   H     H_    0.234139 0.087252 0.491156 0.264527
O12   O     O_3   0.652123 0.937268 0.575986 -0.545639
C43   C     C_3   0.705948 0.950629 0.472752 0.109815
H26   H     H_    0.669216 0.987553 0.394516 0.127670
H27   H     H_    0.732052 0.879929 0.442475 0.186953
C44   C     C_3   0.783444 0.013657 0.507783 -0.766115
H28   H     H_    0.822603 0.978595 0.584473 0.252991
H29   H     H_    0.826630 0.024432 0.427446 0.195276
H30   H     H_    0.758963 0.085104 0.537068 0.253423
O13   O     O_3   0.352565 0.745631 0.418926 -0.517005
C45   C     C_3   0.319624 0.779062 0.302730 0.140458
H31   H     H_    0.371071 0.812912 0.245120 0.119386
H32   H     H_    0.265524 0.832371 0.315231 0.187671
C46   C     C_3   0.280615 0.694600 0.234631 -0.775258
H33   H     H_    0.224292 0.664459 0.286228 0.239896
H34   H     H_    0.256754 0.719183 0.141597 0.205599
H35   H     H_    0.331256 0.637007 0.225046 0.260221
O14   O     O_3   0.641030 0.738019 0.602908 -0.510610
C47   C     C_3   0.638381 0.746901 0.731961 0.138084
H36   H     H_    0.570344 0.738740 0.767395 0.139773
H37   H     H_    0.664004 0.818172 0.759051 0.177647
C48   C     C_3   0.696728 0.668691 0.793399 -0.780876
H38   H     H_    0.766059 0.677230 0.764153 0.248751
H39   H     H_    0.694203 0.674082 0.894965 0.192687
H40   H     H_    0.673527 0.596276 0.767446 0.232686
O15   O     O_3   0.232878 0.652627 0.605896 -0.715146
H41   H     H_    0.190604 0.701037 0.636562 0.312448
O16   O     O_3   0.769050 0.655045 0.376087 -0.715358
H42   H     H_    0.717250 0.629442 0.331113 0.313082
O17   O     O_3   0.231674 0.352014 0.389774 -0.709597
H43   H     H_    0.188997 0.305045 0.356883 0.323873
O18   O     O_3   0.779283 0.335574 0.582146 -0.752769
H44   H     H_    0.747278 0.306475 0.512374 0.336877
O19   O     O_3   0.529317 0.061040 0.725349 -0.699004
H45   H     H_    0.510152 0.993268 0.722064 0.329181
O20   O     O_3   0.473150 0.069462 0.277018 -0.694309
H46   H     H_    0.493662 0.001489 0.280794 0.324353

loop_
_geom_bond_atom_site_label_1
_geom_bond_atom_site_label_2
_ccdc_geom_bond_type
C44   H28   S    
C4    C36   A    
C16   O11   S    
C46   H33   S    
C43   C44   S    
C13   H9    S    
C38   H14   S    
C46   H35   S    
C21   O5    A    
Cu2   N1    S    
C26   H4    S    
C37   C38   S    
C18   O13   S    
C7    H7    S    
C28   C29   A    
C41   H22   S    
Cu1   O1    S    
C14   N1    A    
O19   H45   S    
C17   C20   A    
C37   H12   S    
C31   O9    S    
C1    O3    A    
C47   H36   S    
C24   H2    S    
Cu2   O8    S    
Cu1   O6    S    
C11   C15   A    
O17   H43   S    
C39   H16   S    
O15   H41   S    
C24   C27   A    
C11   O19   S    
C9    C10   S    
C23   C25   A    
C38   H15   S    
O9    C37   S    
C27   C30   A    
C9    C33   A    
C47   H37   S    
C15   C20   S    
O10   C39   S    
C33   H5    S    
C34   H6    S    
C43   H26   S    
C48   H39   S    
C2    O4    A    
C25   H3    S    
O13   C45   S    
C42   H24   S    
Cu1   O2    S    
C19   O14   S    
C17   C19   A    
C22   O6    A    
C5    O17   S    
C25   C26   A    
C21   C29   S    
C47   C48   S    
C42   H23   S    
C37   H11   S    
C17   O12   S    
C2    C4    S    
O11   C41   S    
C6    O18   S    
C21   O7    A    
Cu1   Cu2   S    
C42   H25   S    
Cu2   O7    S    
O12   C43   S    
Cu2   O4    S    
C12   C15   A    
C3    C35   A    
C16   C20   A    
C45   H32   S    
C10   C34   A    
C16   C18   A    
C23   C28   A    
C41   H21   S    
C1    O1    A    
C2    O2    A    
C32   O10   S    
C13   N1    A    
C4    C6    A    
C12   C14   A    
C44   H29   S    
C36   O16   S    
C18   N2    A    
C5    C7    A    
O18   H44   S    
C7    C9    A    
C22   C30   S    
C31   C32   A    
C24   C26   A    
C3    C5    A    
C22   O8    A    
C40   H20   S    
C6    C8    A    
C46   H34   S    
O14   C47   S    
C40   H18   S    
C29   C31   A    
O16   H42   S    
C30   C32   A    
Cu1   N2    S    
C11   C13   A    
C19   N2    A    
Cu2   O3    S    
C39   C40   S    
C23   H1    S    
C45   H31   S    
C33   C35   A    
C48   H40   S    
C34   C36   A    
C45   C46   S    
C8    H8    S    
C35   O15   S    
C38   H13   S    
Cu1   O5    S    
C41   C42   S    
C8    C10   A    
C44   H30   S    
C40   H19   S    
C48   H38   S    
C39   H17   S    
C14   H10   S    
C43   H27   S    
C12   O20   S    
C1    C3    S    
O20   H46   S    
C27   C28   A    
