data_mof_unit_38114.cif
_audit_creation_date              2012-12-10T18:34:28-0500
_audit_creation_method            fapswitch 2.2
_symmetry_space_group_name_H-M    P1
_symmetry_Int_Tables_number       1
_space_group_crystal_system       triclinic
_cell_length_a                    14.998284
_cell_length_b                    15.43323
_cell_length_c                    15.737823
_cell_angle_alpha                 89.699281
_cell_angle_beta                  104.585646
_cell_angle_gamma                 82.592145
_cell_volume                      3493.33737297

loop_
_atom_site_label
_atom_site_type_symbol
_atom_type_description
_atom_site_fract_x
_atom_site_fract_y
_atom_site_fract_z
_atom_type_partial_charge
C1    C     C_R   0.441996 0.662327 0.485570 0.876944
C2    C     C_R   0.557929 0.337795 0.510157 0.876932
C3    C     C_R   0.285383 0.870642 0.391770 0.003155
C4    C     C_R   0.718721 0.127384 0.513430 0.004999
C5    C     C_R   0.314144 0.783342 0.421785 -0.246091
C6    C     C_R   0.687468 0.215644 0.521991 -0.244401
C7    C     C_R   0.472881 0.812439 0.471247 -0.255682
C8    C     C_R   0.527904 0.188894 0.472966 -0.253643
C9    C     C_R   0.448222 0.897822 0.436614 0.076089
C10   C     C_R   0.555731 0.101496 0.459836 0.083162
C11   C     C_R   0.352686 0.929095 0.400234 0.118940
C12   C     C_R   0.652311 0.069064 0.483424 0.119442
C13   C     C_R   0.516849 0.953902 0.442288 0.082522
C14   C     C_R   0.488527 0.044457 0.430237 0.085193
C15   C     C_R   0.393988 0.074706 0.390178 -0.225659
C16   C     C_R   0.612718 0.922481 0.459389 -0.233482
C17   C     C_R   0.327816 0.017410 0.372965 -0.238520
C18   C     C_R   0.679053 0.979541 0.476460 -0.242185
C19   C     C_R   0.839532 0.645506 0.620819 -0.316850
C20   C     C_R   0.161835 0.351661 0.382752 -0.319050
C21   C     C_R   0.751443 0.620365 0.602084 0.022384
C22   C     C_R   0.248886 0.378893 0.398834 0.025220
C23   C     C_R   0.501073 0.500189 0.662057 0.903793
C24   C     C_R   0.498927 0.499807 0.337949 0.899539
C25   C     C_R   0.795330 0.506782 0.513573 -0.060278
C26   C     C_R   0.205276 0.491923 0.488007 -0.061475
C27   C     C_R   0.886523 0.528528 0.530432 -0.003010
C28   C     C_R   0.115260 0.467794 0.474201 -0.002446
C29   C     C_R   0.907266 0.600173 0.584711 0.178196
C30   C     C_R   0.094805 0.395570 0.420667 0.181645
C31   C     C_R   0.956574 0.483007 0.494595 0.083755
C32   C     C_R   0.045921 0.511947 0.511810 0.080341
C33   C     C_R   0.062945 0.583962 0.565955 -0.233275
C34   C     C_R   0.940329 0.409519 0.442422 -0.233942
C35   C     C_R   0.994979 0.626631 0.601994 -0.206834
C36   C     C_R   0.008162 0.367085 0.406032 -0.216767
C37   C     C_3   0.436180 0.565353 0.012372 -0.254444
C38   C     C_3   0.563875 0.434387 0.987695 -0.253466
C39   C     C_3   0.522651 0.576172 0.979282 0.067055
C40   C     C_3   0.477405 0.423567 0.020794 0.065737
C41   C     C_1   0.503163 0.500779 0.751502 -0.159920
C42   C     C_1   0.496863 0.499127 0.248529 -0.158319
C43   C     C_3   0.415463 0.489202 0.949227 -0.251826
C44   C     C_3   0.584589 0.510537 0.050842 -0.251342
C45   C     C_3   0.502235 0.501046 0.917534 0.180358
C46   C     C_3   0.497820 0.498700 0.082529 0.180511
C47   C     C_1   0.503483 0.501031 0.826882 0.004568
C48   C     C_1   0.496560 0.498787 0.173164 0.003486
C49   C     C_R   0.407698 0.754564 0.462082 -0.074560
C50   C     C_R   0.592400 0.245805 0.503511 -0.073421
H1    H     H_    0.228453 0.544549 0.528595 0.130283
H2    H     H_    0.771780 0.455119 0.471695 0.128579
H3    H     H_    0.301880 0.344737 0.371039 0.138191
H4    H     H_    0.698106 0.655211 0.628975 0.143724
H5    H     H_    0.854377 0.700238 0.662540 0.145434
H6    H     H_    0.147327 0.296333 0.341796 0.144281
H7    H     H_    0.128332 0.609505 0.582196 0.140678
H8    H     H_    0.875872 0.382312 0.428593 0.135619
H9    H     H_    0.384323 0.619074 0.024004 0.145130
H10   H     H_    0.615736 0.380665 0.976074 0.146503
H11   H     H_    0.653508 0.519735 0.093831 0.147356
H12   H     H_    0.346542 0.480004 0.906245 0.147576
H13   H     H_    0.256793 0.043773 0.340971 0.160858
H14   H     H_    0.751274 0.952142 0.487449 0.161574
H15   H     H_    0.455145 0.213128 0.462712 0.160045
H16   H     H_    0.543582 0.790200 0.507259 0.162312
H17   H     H_    0.737639 0.260425 0.545211 0.164784
H18   H     H_    0.263409 0.737924 0.413263 0.166586
H19   H     H_    0.370000 0.142260 0.368977 0.148876
H20   H     H_    0.637838 0.853868 0.457382 0.152609
H21   H     H_    0.011081 0.681491 0.643242 0.143383
H22   H     H_    0.992637 0.311161 0.366191 0.139700
N1    N     N_R   0.731710 0.552730 0.549140 -0.101927
N2    N     N_R   0.268290 0.447270 0.450860 -0.101677
O1    O     O_R   0.383110 0.605620 0.475230 -0.622460
O2    O     O_R   0.616890 0.394380 0.524770 -0.621928
O3    O     O_R   0.531900 0.639510 0.506760 -0.624343
O4    O     O_R   0.468100 0.360490 0.493240 -0.623928
O5    O     O_R   0.425620 0.483070 0.607460 -0.615919
O6    O     O_R   0.574380 0.516930 0.392540 -0.617591
O7    O     O_R   0.574400 0.516960 0.638990 -0.601770
O8    O     O_R   0.425600 0.483040 0.361010 -0.604889
Zn1   Zn    Zn3+2 0.400660 0.477370 0.478940 0.948345
Zn2   Zn    Zn3+2 0.599340 0.522630 0.521060 0.949022
C51   C     C_2   0.548402 0.662780 0.957971 0.373098
H23   H     H_    0.561125 0.710396 0.008558 0.055717
O9    O     O_2   0.555210 0.680290 0.884376 -0.564348
C52   C     C_2   0.451688 0.336962 0.042181 0.375087
H24   H     H_    0.438879 0.289343 0.991609 0.056188
O10   O     O_2   0.445016 0.319455 0.115826 -0.563241
C53   C     C_R   0.185352 0.897123 0.349956 0.109252
C54   C     C_R   0.143046 0.859426 0.271509 -0.152232
C55   C     C_R   0.048239 0.882607 0.232443 -0.131137
C56   C     C_R   0.994988 0.943129 0.271608 -0.104957
C57   C     C_R   0.036411 0.980355 0.350021 -0.136890
C58   C     C_R   0.131221 0.957269 0.389496 -0.170797
H25   H     H_    0.183587 0.812343 0.240584 0.130878
H26   H     H_    0.016041 0.853589 0.171849 0.131800
H27   H     H_    0.921586 0.961046 0.241315 0.128409
H28   H     H_    0.994817 0.026946 0.380096 0.141844
H29   H     H_    0.162380 0.986053 0.450650 0.130079
C59   C     C_R   0.820643 0.099250 0.539535 0.114327
C60   C     C_R   0.879386 0.140315 0.500108 -0.160555
C61   C     C_R   0.975830 0.117799 0.527892 -0.154079
C62   C     C_R   0.014413 0.053803 0.594723 -0.100626
C63   C     C_R   0.956672 0.013265 0.634927 -0.129088
C64   C     C_R   0.860225 0.036470 0.608205 -0.168942
H30   H     H_    0.850489 0.190010 0.448161 0.126082
H31   H     H_    0.020645 0.149741 0.497317 0.129788
H32   H     H_    0.089063 0.036028 0.615712 0.124880
H33   H     H_    0.986698 0.964369 0.687341 0.128139
H34   H     H_    0.816472 0.005934 0.641292 0.133232

loop_
_geom_bond_atom_site_label_1
_geom_bond_atom_site_label_2
_ccdc_geom_bond_type
C38   C40   S    
C62   H32   S    
C55   C56   A    
C27   C29   A    
C24   C42   S    
C64   H34   S    
C57   C58   A    
N2    Zn1   S    
C20   H6    S    
C18   H14   S    
O2    Zn2   S    
C20   C30   A    
C51   H23   S    
C40   C46   S    
C19   C21   A    
C61   H31   S    
C63   C64   A    
C21   N1    A    
C1    O3    A    
C3    C53   S    
C9    C13   A    
C38   C45   S    
C24   O8    A    
C2    C50   S    
C26   N2    A    
C53   C58   A    
O4    Zn1   S    
C24   O6    A    
C40   C43   S    
C4    C59   S    
C60   H30   S    
C4    C12   A    
N1    Zn2   S    
C25   N1    A    
O6    Zn2   S    
C39   C45   S    
C45   C47   S    
C35   H21   S    
C8    H15   S    
C58   H29   S    
C5    C49   A    
C56   C57   A    
C5    H18   S    
C61   C62   A    
C44   C46   S    
C54   H25   S    
C22   H3    S    
C63   H33   S    
C51   O9    D    
C15   H19   S    
C46   C48   S    
C27   C31   A    
C1    O1    A    
C28   C32   A    
C16   H20   S    
C7    C49   A    
C4    C6    A    
C10   C14   A    
C53   C54   A    
C57   H28   S    
O3    Zn2   S    
C37   C43   S    
C38   C44   S    
C2    O4    A    
C9    C11   A    
C31   C32   A    
C41   C47   T    
C31   C34   A    
C59   C64   A    
C42   C48   T    
C6    C50   A    
C43   C45   S    
C37   H9    S    
C10   C12   A    
C38   H10   S    
C8    C10   A    
C6    H17   S    
C52   O10   D    
C22   N2    A    
C19   C29   A    
C8    C50   A    
O7    Zn2   S    
C2    O2    A    
C19   H5    S    
C15   C17   A    
C11   C17   A    
C33   H7    S    
C23   O7    A    
C20   C22   A    
C3    C5    A    
C39   C44   S    
C44   H11   S    
C25   C27   A    
C62   C63   A    
C29   C35   A    
C26   C28   A    
C23   C41   S    
C30   C36   A    
C32   C33   A    
C40   C52   S    
C28   C30   A    
C25   H2    S    
C37   C39   S    
C26   H1    S    
C17   H13   S    
C7    H16   S    
O5    Zn1   S    
O1    Zn1   S    
C21   H4    S    
C56   H27   S    
C54   C55   A    
C33   C35   A    
C34   C36   A    
C59   C60   A    
C3    C11   A    
C7    C9    A    
C52   H24   S    
C16   C18   A    
O8    Zn1   S    
C13   C16   A    
C12   C18   A    
C60   C61   A    
C34   H8    S    
C39   C51   S    
C14   C15   A    
C23   O5    A    
C37   C46   S    
C13   C14   A    
C1    C49   S    
C55   H26   S    
C36   H22   S    
C43   H12   S    
