data_mof_unit_31436.cif
_audit_creation_date              2012-12-10T17:08:46-0500
_audit_creation_method            fapswitch 2.2
_symmetry_space_group_name_H-M    P1
_symmetry_Int_Tables_number       1
_space_group_crystal_system       triclinic
_cell_length_a                    27.782868
_cell_length_b                    10.868611
_cell_length_c                    9.772478
_cell_angle_alpha                 109.699226
_cell_angle_beta                  98.216152
_cell_angle_gamma                 90.570665
_cell_volume                      2744.33575046

loop_
_atom_site_label
_atom_site_type_symbol
_atom_type_description
_atom_site_fract_x
_atom_site_fract_y
_atom_site_fract_z
_atom_type_partial_charge
C1    C     C_R   0.499621 0.253809 0.442981 0.882259
C2    C     C_R   0.505697 0.746247 0.556843 0.887934
C3    C     C_R   0.102289 0.491022 0.516696 -0.126702
C4    C     C_R   0.897623 0.513448 0.481849 -0.126861
C5    C     C_R   0.123026 0.377792 0.433473 -0.165584
C6    C     C_R   0.876896 0.626782 0.564887 -0.170933
C7    C     C_R   0.093204 0.262601 0.360917 0.621474
C8    C     C_R   0.906723 0.742043 0.637043 0.625533
C9    C     C_R   0.133020 0.600375 0.607983 0.005568
C10   C     C_R   0.866891 0.403975 0.390972 0.006448
C11   C     C_R   0.354658 0.497875 0.505231 -0.041620
C12   C     C_R   0.645332 0.504156 0.494915 -0.020094
C13   C     C_R   0.969045 0.392854 0.405865 0.121976
C14   C     C_R   0.030850 0.611644 0.592370 0.113795
C15   C     C_R   0.979449 0.622675 0.573557 -0.103731
C16   C     C_R   0.020454 0.381822 0.424569 -0.099661
C17   C     C_R   0.948946 0.509480 0.488337 0.073377
C18   C     C_R   0.050960 0.495000 0.509972 0.073241
C19   C     C_R   0.936831 0.294709 0.298748 -0.149101
C20   C     C_R   0.063027 0.709833 0.699564 -0.135525
C21   C     C_R   0.886783 0.297501 0.295468 -0.107318
C22   C     C_R   0.113090 0.706881 0.703327 -0.106026
C23   C     C_R   0.407475 0.499636 0.501442 0.793226
C24   C     C_R   0.592530 0.501018 0.498659 0.892328
C25   C     C_R   0.042980 0.261182 0.366604 -0.185495
C26   C     C_R   0.956900 0.743386 0.631229 -0.175228
C27   C     C_2   0.505167 0.114310 0.418010 -0.353310
C28   C     C_2   0.512943 0.885995 0.581702 -0.363154
C29   C     C_2   0.534633 0.071548 0.513320 -0.061934
C30   C     C_2   0.533872 0.930942 0.489404 -0.052226
C31   C     C_2   0.504540 0.509369 0.080200 -0.050240
C32   C     C_2   0.495962 0.488832 0.919086 -0.053022
C33   C     C_R   0.173792 0.380940 0.433329 0.599602
C34   C     C_R   0.826136 0.623638 0.565239 0.602654
C35   C     C_R   0.183320 0.598856 0.605481 0.552840
C36   C     C_R   0.816624 0.405336 0.393996 0.554043
C37   C     C_R   0.287025 0.501507 0.638684 -0.088378
C38   C     C_R   0.728733 0.520023 0.617697 -0.086194
C39   C     C_R   0.336999 0.504252 0.635167 -0.211450
C40   C     C_R   0.678780 0.517058 0.621955 -0.191744
C41   C     C_R   0.321384 0.488863 0.379055 -0.202671
C42   C     C_R   0.662796 0.495611 0.364075 -0.159127
C43   C     C_R   0.271404 0.486678 0.383039 -0.093066
C44   C     C_R   0.712737 0.499504 0.360361 -0.085513
C45   C     C_R   0.254015 0.492961 0.512797 0.331004
C46   C     C_R   0.745936 0.511197 0.486927 0.323633
Cu1   Cu    Cu3+1 0.508480 0.521810 0.644910 0.981916
Cu2   Cu    Cu3+1 0.491520 0.478190 0.355090 0.987430
H1    H     H_    0.333921 0.483954 0.277491 0.163779
H2    H     H_    0.637927 0.486536 0.264669 0.169096
H3    H     H_    0.499106 0.954418 0.675071 0.169808
H4    H     H_    0.483251 0.044050 0.321725 0.173102
H5    H     H_    0.467765 0.416895 0.847384 0.155875
H6    H     H_    0.533182 0.579882 0.151216 0.181915
H7    H     H_    0.547864 0.622113 0.932930 0.200506
H8    H     H_    0.451713 0.379052 0.067464 0.197118
H9    H     H_    0.246122 0.480529 0.285405 0.151840
H10   H     H_    0.725698 0.493438 0.259045 0.152405
H11   H     H_    0.666416 0.524488 0.724462 0.159054
H12   H     H_    0.361735 0.510666 0.733943 0.158586
H13   H     H_    0.754138 0.528744 0.715941 0.153993
H14   H     H_    0.273885 0.505762 0.739209 0.148957
H15   H     H_    0.863715 0.216420 0.216232 0.203402
H16   H     H_    0.136138 0.787902 0.782749 0.202414
H17   H     H_    0.949556 0.215314 0.214069 0.161580
H18   H     H_    0.050232 0.789322 0.784015 0.164895
N1    N     N_R   0.202551 0.491104 0.516786 -0.480933
N2    N     N_R   0.797385 0.513242 0.482450 -0.480762
N3    N     N_2   0.478780 0.445430 0.137360 -0.285698
N4    N     N_2   0.521220 0.554570 0.862640 -0.279687
O1    O     O_R   0.504520 0.332330 0.577400 -0.567918
O2    O     O_R   0.495480 0.667670 0.422600 -0.565358
O3    O     O_R   0.490210 0.295500 0.332650 -0.559698
O4    O     O_R   0.509790 0.704500 0.667350 -0.558663
O5    O     O_R   0.437420 0.518430 0.622370 -0.586212
O6    O     O_R   0.562580 0.481570 0.377630 -0.566825
O7    O     O_R   0.423110 0.481600 0.377610 -0.579680
O8    O     O_R   0.576890 0.518400 0.622390 -0.569041
O9    O     O_2   0.194447 0.274898 0.351470 -0.442288
O10   O     O_2   0.805486 0.729916 0.646630 -0.434031
O11   O     O_2   0.787271 0.298849 0.310945 -0.512370
O12   O     O_2   0.212720 0.705001 0.689304 -0.521777
F1    F     F_    0.113492 0.148018 0.296715 -0.575113
F2    F     F_    0.886449 0.856719 0.700863 -0.572220
C47   C     C_2   0.017588 0.131469 0.336502 0.921673
O13   O     O_2   0.024330 0.037331 0.230747 -0.500919
O14   O     O_R   0.986268 0.117006 0.430852 -0.733209
H19   H     H_    0.970501 0.025095 0.397926 0.362841
C48   C     C_2   0.982025 0.873408 0.661491 0.904611
O15   O     O_2   0.009063 0.887286 0.578656 -0.573583
O16   O     O_R   0.974161 0.980362 0.782867 -0.668625
H20   H     H_    0.993140 0.063306 0.790878 0.349282
C49   C     C_2   0.561118 0.849103 0.374011 0.879797
O17   O     O_2   0.584200 0.759522 0.393178 -0.616238
O18   O     O_R   0.562633 0.879946 0.246810 -0.754401
H21   H     H_    0.582941 0.819063 0.177647 0.324470
C50   C     C_2   0.571442 0.157343 0.634969 0.914570
O19   O     O_2   0.580025 0.136196 0.751037 -0.583348
O20   O     O_R   0.598268 0.257099 0.613952 -0.750374
H22   H     H_    0.622812 0.306373 0.703847 0.329027

loop_
_geom_bond_atom_site_label_1
_geom_bond_atom_site_label_2
_ccdc_geom_bond_type
C7    F1    S    
O14   H19   S    
C49   O17   D    
C27   C29   D    
C8    C26   A    
C14   C18   A    
O18   H21   S    
Cu2   N3    S    
C37   H14   S    
C47   O13   D    
C26   C48   S    
C1    O1    A    
C20   H18   S    
C19   C21   A    
C30   C49   S    
C28   H3    S    
C9    C22   A    
C3    C18   A    
Cu2   O6    S    
C12   C42   A    
C34   O10   S    
Cu1   Cu2   S    
C44   H10   S    
C5    C33   A    
C45   N1    S    
C19   H17   S    
C48   O16   S    
C2    O4    A    
C38   H13   S    
C49   O18   S    
C40   H11   S    
C41   C43   A    
C42   C44   A    
Cu2   O2    S    
C2    O2    A    
C41   H1    S    
C50   O20   S    
C35   O12   S    
C44   C46   A    
C50   O19   D    
C47   O14   S    
C10   C21   A    
C21   H15   S    
C13   C19   A    
C14   C20   A    
C4    C6    A    
C34   N2    A    
O16   H20   S    
C5    C7    A    
C24   O6    A    
C15   C26   A    
C32   N4    D    
C6    C34   A    
Cu2   O7    S    
C12   C40   A    
Cu1   N4    S    
C46   N2    S    
C29   C30   S    
C3    C9    A    
C31   C32   S    
C35   N1    A    
C36   O11   S    
C25   C47   S    
C23   O7    A    
C11   C39   A    
C43   C45   A    
Cu1   O1    S    
C42   H2    S    
C4    C17   A    
C24   O8    A    
C20   C22   A    
C37   C45   A    
C32   H5    S    
C27   H4    S    
C33   N1    A    
C1    C27   S    
C16   C25   A    
C15   C17   A    
C8    F2    S    
Cu2   O3    S    
C33   O9    S    
Cu1   O4    S    
C23   O5    A    
C3    C5    A    
C6    C8    A    
C36   N2    A    
C29   C50   S    
C12   C24   S    
C7    C25   A    
O20   H22   S    
C13   C17   A    
C1    O3    A    
C28   C30   D    
Cu1   O5    S    
C37   C39   A    
C38   C40   A    
C39   H12   S    
C11   C23   S    
C10   C36   A    
C11   C41   A    
C31   H6    S    
C38   C46   A    
H7    N4    S    
C43   H9    S    
C22   H16   S    
C31   N3    D    
C16   C18   A    
H8    N3    S    
C13   C16   A    
C9    C35   A    
C14   C15   A    
C2    C28   S    
Cu1   O8    S    
C48   O15   D    
C4    C10   A    
