data_mof_unit_54340.cif
_audit_creation_date              2012-12-11T15:12:41-0500
_audit_creation_method            fapswitch 2.2
_symmetry_space_group_name_H-M    P1
_symmetry_Int_Tables_number       1
_space_group_crystal_system       triclinic
_cell_length_a                    22.326453
_cell_length_b                    6.972852
_cell_length_c                    19.603401
_cell_angle_alpha                 90.002098
_cell_angle_beta                  98.737711
_cell_angle_gamma                 90.002361
_cell_volume                      3016.41959804

loop_
_atom_site_label
_atom_site_type_symbol
_atom_type_description
_atom_site_fract_x
_atom_site_fract_y
_atom_site_fract_z
_atom_type_partial_charge
O1    O     O_R   0.448420 0.506120 0.415750 -0.537314
O2    O     O_R   0.551580 0.006120 0.584250 -0.537320
O3    O     O_R   0.436490 0.174470 0.555610 -0.538822
O4    O     O_R   0.563510 0.674470 0.444390 -0.538829
C1    C     C_R   0.422958 0.343971 0.577761 0.723205
C2    C     C_R   0.577046 0.843973 0.422243 0.723209
O5    O     O_R   0.441310 0.176330 0.414520 -0.539932
O6    O     O_R   0.558690 0.676330 0.585480 -0.539930
O7    O     O_R   0.556430 0.007110 0.442150 -0.534689
O8    O     O_R   0.443570 0.507110 0.557850 -0.534696
C3    C     C_R   0.424696 0.346007 0.390577 0.700580
C4    C     C_R   0.575302 0.846021 0.609426 0.700582
O9    O     O_3   0.537770 0.339560 0.509230 -0.368045
O10   O     O_3   0.462230 0.839560 0.490770 -0.368040
V1    V     V_3+5 0.492990 0.064280 0.498290 1.412956
V2    V     V_3+5 0.507010 0.564280 0.501710 1.412940
C5    C     C_R   0.879163 0.867485 0.700669 -0.157072
C6    C     C_R   0.120834 0.368531 0.299379 -0.157046
H1    H     H_    0.963521 0.893410 0.767911 0.103522
H2    H     H_    0.036477 0.394619 0.232148 0.103507
H3    H     H_    0.903163 0.840412 0.657796 0.123472
H4    H     H_    0.096829 0.342003 0.342286 0.123493
C7    C     C_R   0.887629 0.934298 0.822031 -0.032606
C8    C     C_R   0.112378 0.434404 0.177959 -0.032546
C9    C     C_R   0.593584 0.872180 0.733967 -0.162776
C10   C     C_R   0.406415 0.371832 0.266031 -0.162771
C11   C     C_R   0.628860 0.889996 0.797942 -0.129537
C12   C     C_R   0.371142 0.389512 0.202051 -0.129552
C13   C     C_R   0.691465 0.897809 0.803861 -0.126530
C14   C     C_R   0.308539 0.397443 0.196131 -0.126507
C15   C     C_R   0.721467 0.888115 0.745271 0.040970
C16   C     C_R   0.278533 0.387994 0.254725 0.040973
C17   C     C_R   0.685389 0.864643 0.678253 -0.004919
C18   C     C_R   0.314607 0.364671 0.321752 -0.004941
C19   C     C_R   0.786357 0.898972 0.752329 0.029473
C20   C     C_R   0.213645 0.399014 0.247664 0.029466
C21   C     C_R   0.815178 0.868120 0.693480 0.035016
C22   C     C_R   0.184820 0.368712 0.306543 0.035040
C23   C     C_R   0.780295 0.836043 0.628386 0.273511
C24   C     C_R   0.219693 0.336702 0.371644 0.273548
C25   C     C_R   0.716402 0.846823 0.619686 0.071130
C26   C     C_R   0.283593 0.347094 0.380329 0.071136
C27   C     C_R   0.824191 0.935959 0.816571 -0.186101
C28   C     C_R   0.175815 0.435677 0.183396 -0.186036
C29   C     C_R   0.914586 0.898826 0.764011 -0.168136
C30   C     C_R   0.085414 0.399653 0.236023 -0.168207
C31   C     C_R   0.619884 0.858821 0.673833 -0.053987
C32   C     C_R   0.380113 0.358737 0.326170 -0.053964
H5    H     H_    0.806296 0.964932 0.863510 0.087186
H6    H     H_    0.193705 0.464117 0.136417 0.087112
H7    H     H_    0.544721 0.868355 0.731353 0.100006
H8    H     H_    0.455277 0.367906 0.268646 0.100002
H9    H     H_    0.715057 0.908010 0.855814 0.102115
H10   H     H_    0.284956 0.407589 0.144175 0.102115
H11   H     H_    0.607338 0.897993 0.843785 0.112924
H12   H     H_    0.392665 0.397325 0.156206 0.112924
C33   C     C_3   0.810913 0.753685 0.263407 0.038954
C34   C     C_3   0.189105 0.253661 0.736614 0.038957
C35   C     C_3   0.780776 0.109538 0.242666 0.011937
C36   C     C_3   0.219239 0.609530 0.757350 0.011943
C37   C     C_3   0.736812 0.082428 0.297995 -0.000244
C38   C     C_3   0.263204 0.582414 0.702023 -0.000270
H13   H     H_    0.755313 0.201138 0.201500 0.084141
H14   H     H_    0.244701 0.701150 0.798515 0.084141
H15   H     H_    0.698515 0.184613 0.283467 0.095268
H16   H     H_    0.301501 0.684616 0.716550 0.095270
C39   C     C_1   0.622417 0.852385 0.376638 -0.204445
C40   C     C_1   0.377595 0.352380 0.623376 -0.204458
C41   C     C_3   0.791654 0.912554 0.207340 0.163288
C42   C     C_3   0.208361 0.412554 0.792679 0.163284
C43   C     C_3   0.758729 0.718601 0.308187 0.038907
C44   C     C_3   0.241290 0.218577 0.691838 0.038945
C45   C     C_3   0.707895 0.875896 0.292147 0.166881
C46   C     C_3   0.292123 0.375894 0.707875 0.166884
C47   C     C_3   0.677986 0.851348 0.214247 -0.061724
C48   C     C_3   0.322031 0.351382 0.785776 -0.061729
C49   C     C_3   0.728403 0.851803 0.165274 -0.070144
C50   C     C_3   0.271612 0.351836 0.834748 -0.070145
C51   C     C_1   0.660544 0.860989 0.338602 -0.028303
C52   C     C_1   0.339472 0.360984 0.661418 -0.028293
C53   C     C_1   0.837562 0.931192 0.159279 -0.032741
C54   C     C_1   0.162449 0.431194 0.840736 -0.032739
C55   C     C_1   0.875352 0.941340 0.120856 -0.208639
C56   C     C_1   0.124655 0.441342 0.879153 -0.208643
H17   H     H_    0.715298 0.964532 0.125470 0.123928
H18   H     H_    0.284715 0.464581 0.874550 0.123930
H19   H     H_    0.815517 0.620764 0.233770 0.126798
H20   H     H_    0.184500 0.120746 0.766252 0.126796
H21   H     H_    0.737590 0.579866 0.290087 0.119590
H22   H     H_    0.262430 0.079854 0.709942 0.119598
H23   H     H_    0.649651 0.981291 0.200357 0.112678
H24   H     H_    0.350364 0.481338 0.799664 0.112681
O11   O     O_R   0.056480 0.288780 0.942210 -0.535514
O12   O     O_R   0.943520 0.788780 0.057790 -0.535514
O13   O     O_R   0.058700 0.616820 0.085490 -0.540542
O14   O     O_R   0.941300 0.116820 0.914510 -0.540542
C57   C     C_R   0.073195 0.447780 0.110834 0.688436
C58   C     C_R   0.926808 0.947764 0.889162 0.688427
O15   O     O_R   0.063520 0.618570 0.944410 -0.538628
O16   O     O_R   0.936480 0.118570 0.055590 -0.538623
O17   O     O_R   0.948420 0.787670 0.915740 -0.536693
O18   O     O_R   0.051580 0.287670 0.084260 -0.536696
C59   C     C_R   0.078941 0.450081 0.924318 0.724866
C60   C     C_R   0.921060 0.950080 0.075685 0.724887
O19   O     O_3   0.962260 0.453430 0.990800 -0.368671
O20   O     O_3   0.037740 0.953430 0.009200 -0.368673
V3    V     V_3+5 0.007000 0.728750 0.001710 1.421402
V4    V     V_3+5 0.993000 0.228750 0.998290 1.421395
C61   C     C_3   0.874989 0.777858 0.305450 -0.777951
H25   H     H_    0.891976 0.637341 0.326909 0.197937
H26   H     H_    0.908100 0.828421 0.272617 0.211116
H27   H     H_    0.875397 0.876702 0.349536 0.220843
C62   C     C_3   0.125029 0.277805 0.694568 -0.777945
H28   H     H_    0.108044 0.137276 0.673109 0.197937
H29   H     H_    0.091917 0.328366 0.727398 0.211118
H30   H     H_    0.124623 0.376636 0.650481 0.220840
C63   C     C_3   0.838521 0.229530 0.265912 -0.778142
H31   H     H_    0.874976 0.150228 0.297930 0.223248
H32   H     H_    0.857012 0.284713 0.220195 0.203785
H33   H     H_    0.827623 0.354311 0.296286 0.209775
C64   C     C_3   0.161495 0.729500 0.734101 -0.778151
H34   H     H_    0.125041 0.650181 0.702080 0.223242
H35   H     H_    0.143001 0.784688 0.779816 0.203783
H36   H     H_    0.172394 0.854279 0.703728 0.209781
C65   C     C_3   0.763309 0.143050 0.372367 -0.745747
H37   H     H_    0.759054 0.299573 0.377218 0.200081
H38   H     H_    0.737831 0.081267 0.411422 0.213021
H39   H     H_    0.811767 0.105845 0.386159 0.217571
C66   C     C_3   0.236708 0.643007 0.627649 -0.745690
H40   H     H_    0.240965 0.799529 0.622795 0.200078
H41   H     H_    0.262187 0.581216 0.588595 0.213049
H42   H     H_    0.188250 0.605790 0.613857 0.217573
C67   C     C_3   0.731349 0.664679 0.123036 -0.768928
H43   H     H_    0.736176 0.535694 0.156412 0.205303
H44   H     H_    0.689600 0.648932 0.084764 0.211428
H45   H     H_    0.769629 0.667674 0.093039 0.208611
C68   C     C_3   0.268666 0.164724 0.876988 -0.768929
H46   H     H_    0.263839 0.035727 0.843615 0.205301
H47   H     H_    0.310415 0.149000 0.915261 0.211427
H48   H     H_    0.230386 0.167721 0.906986 0.208608
C69   C     C_3   0.631786 0.684308 0.201502 -0.757782
H49   H     H_    0.610381 0.682225 0.146584 0.210266
H50   H     H_    0.652840 0.542795 0.215053 0.204169
H51   H     H_    0.594259 0.704543 0.231982 0.204596
C70   C     C_3   0.368232 0.184362 0.798526 -0.757791
H52   H     H_    0.389637 0.182310 0.853444 0.210266
H53   H     H_    0.347178 0.042836 0.784981 0.204170
H54   H     H_    0.405758 0.204594 0.768043 0.204595
N1    N     N_2   0.809190 0.789180 0.570374 -0.530981
H55   H     H_    0.843132 0.880872 0.560748 0.245313
C71   C     C_3   0.822708 0.587475 0.564279 -0.563909
H56   H     H_    0.845403 0.563844 0.518446 0.194492
H57   H     H_    0.780163 0.502280 0.557990 0.218472
H58   H     H_    0.853456 0.536668 0.610663 0.196101
N2    N     N_2   0.190774 0.290265 0.429679 -0.530984
H59   H     H_    0.156928 0.382324 0.439304 0.245313
C72   C     C_3   0.177057 0.088710 0.435801 -0.564100
H60   H     H_    0.154316 0.065436 0.481621 0.194485
H61   H     H_    0.219520 0.003114 0.442126 0.218511
H62   H     H_    0.146275 0.038062 0.389416 0.196125
C73   C     C_3   0.683186 0.841653 0.546814 -0.733467
H63   H     H_    0.712839 0.847802 0.506474 0.228583
H64   H     H_    0.657445 0.705950 0.538485 0.206305
H65   H     H_    0.654289 0.970794 0.537479 0.189451
C74   C     C_3   0.316821 0.341760 0.453194 -0.733455
H66   H     H_    0.287186 0.347848 0.493552 0.228616
H67   H     H_    0.342541 0.206016 0.461481 0.206233
H68   H     H_    0.345741 0.470856 0.462551 0.189511
C75   C     C_3   0.780163 0.680340 0.385847 -0.786017
H69   H     H_    0.800275 0.805918 0.414535 0.241065
H70   H     H_    0.741861 0.629476 0.411151 0.215853
H71   H     H_    0.815138 0.566464 0.392409 0.199172
C76   C     C_3   0.219860 0.180286 0.614180 -0.786155
H72   H     H_    0.199749 0.305855 0.585493 0.241148
H73   H     H_    0.258162 0.129429 0.588877 0.215822
H74   H     H_    0.184885 0.066399 0.607617 0.199178

loop_
_geom_bond_atom_site_label_1
_geom_bond_atom_site_label_2
_ccdc_geom_bond_type
C40   C52   T    
O15   C59   A    
O17   V3    S    
C74   H66   S    
C7    C29   A    
C25   C73   S    
N2    C72   S    
C63   H31   S    
C45   C47   S    
C75   H69   S    
C41   C49   S    
O1    C3    A    
O2    C4    A    
O11   C59   A    
C2    O7    A    
C70   H52   S    
C12   H12   S    
C23   C25   A    
C76   H72   S    
O5    C3    A    
C68   H47   S    
C72   H60   S    
C46   C48   S    
C16   C20   A    
C19   C21   A    
C5    C29   A    
C66   H40   S    
C63   H32   S    
O11   V4    S    
C11   H11   S    
C42   C50   S    
O20   V3    S    
O16   C60   A    
C7    C27   A    
C11   C13   A    
C36   C38   S    
C71   H58   S    
C64   H36   S    
C47   C69   S    
C61   H26   S    
C70   H53   S    
C33   C61   S    
C12   C14   A    
C18   C26   A    
C65   H39   S    
C71   H56   S    
C43   C75   S    
C24   N2    S    
O18   V4    S    
C19   C27   A    
C9    C31   A    
C57   O18   A    
C26   C74   S    
C47   H23   S    
C62   H30   S    
C14   H10   S    
C24   C26   A    
O14   V4    S    
C49   H17   S    
O6    V2    S    
C22   C24   A    
C46   C52   S    
C75   H70   S    
C38   C66   S    
C3    C32   S    
C49   C67   S    
C1    C40   S    
C6    C30   A    
C53   C55   T    
C73   H63   S    
C76   H73   S    
C33   H19   S    
C21   C23   A    
O19   V4    S    
O12   V3    S    
O16   V4    S    
C35   C37   S    
C55   C60   S    
C38   H16   S    
C8    C57   S    
C39   C51   T    
C44   C46   S    
C63   H33   S    
C43   C45   S    
C27   H5    S    
C73   H64   S    
C37   C45   S    
C5    H3    S    
C61   H27   S    
O14   C58   A    
C13   H9    S    
C16   C18   A    
O4    V2    S    
C9    H7    S    
C10   H8    S    
O19   V3    S    
C34   C62   S    
C44   H22   S    
C43   H21   S    
C36   C42   S    
O6    C4    A    
C15   C17   A    
C45   C51   S    
O1    V2    S    
C5    C21   A    
C44   C76   S    
C33   C43   S    
O2    V1    S    
C47   C49   S    
C64   H34   S    
O13   V3    S    
C35   C41   S    
C67   H45   S    
O4    C2    A    
C2    C39   S    
C48   H24   S    
C48   C70   S    
C72   H62   S    
C54   C56   T    
O9    V1    S    
C67   H43   S    
C17   C31   A    
C75   H71   S    
O10   V2    S    
C20   C28   A    
C18   C32   A    
C35   C63   S    
C20   C22   A    
C50   C68   S    
C73   H65   S    
O3    V1    S    
C70   H54   S    
C67   H44   S    
C62   H28   S    
C76   H74   S    
C28   H6    S    
O13   C57   A    
C6    H4    S    
C35   H13   S    
C34   C42   S    
C4    C31   S    
C48   C50   S    
O3    C1    A    
C34   H20   S    
C72   H61   S    
H1    C29   S    
C69   H51   S    
C10   C32   A    
C74   H68   S    
C58   O17   A    
O15   V3    S    
C68   H46   S    
C23   N1    S    
C10   C12   A    
C36   H14   S    
C8    C30   A    
C66   H42   S    
C69   H50   S    
C6    C22   A    
C17   C25   A    
C1    O8    A    
C13   C15   A    
O8    V2    S    
N1    H55   S    
C14   C16   A    
C34   C44   S    
C65   H37   S    
C62   H29   S    
O20   V4    S    
C8    C28   A    
C68   H48   S    
O5    V1    S    
C15   C19   A    
C71   H57   S    
O7    V1    S    
C36   C64   S    
C42   C54   S    
C64   H35   S    
C41   C53   S    
O12   C60   A    
N1    C71   S    
C37   H15   S    
C7    C58   S    
C74   H67   S    
C50   H18   S    
O9    V2    S    
C61   H25   S    
N2    H59   S    
C65   H38   S    
C56   C59   S    
O10   V1    S    
C38   C46   S    
C37   C65   S    
C33   C41   S    
C69   H49   S    
H2    C30   S    
C66   H41   S    
C9    C11   A    
