data_mof_unit_30607.cif
_audit_creation_date              2012-10-26T20:42:29-0400
_audit_creation_method            fapswitch 2.2
_symmetry_space_group_name_H-M    P1
_symmetry_Int_Tables_number       1
_space_group_crystal_system       triclinic
_cell_length_a                    10.927113
_cell_length_b                    9.54912
_cell_length_c                    10.932292
_cell_angle_alpha                 89.999986
_cell_angle_beta                  90.327448
_cell_angle_gamma                 90.000034
_cell_volume                      1140.70387249

loop_
_atom_site_label
_atom_site_type_symbol
_atom_type_description
_atom_site_fract_x
_atom_site_fract_y
_atom_site_fract_z
_atom_type_partial_charge
C1    C     C_R   0.262199 0.500800 0.503910 0.546205
C2    C     C_R   0.936779 0.379136 0.498384 -0.161456
C3    C     C_R   0.871873 0.505058 0.493068 -0.007592
C4    C     C_R   0.128127 0.505058 0.506936 -0.007592
C5    C     C_R   0.936394 0.633909 0.491078 -0.034973
C6    C     C_R   0.063606 0.633909 0.508923 -0.034973
C7    C     C_R   0.468218 0.074135 0.397378 -0.002134
C8    C     C_R   0.531782 0.074136 0.602622 -0.002135
C9    C     C_R   0.468104 0.925835 0.397421 0.026846
C10   C     C_R   0.531895 0.925835 0.602578 0.026845
C11   C     C_R   0.875380 0.768961 0.461890 0.068227
C12   C     C_R   0.737801 0.500800 0.496091 0.546205
C13   C     C_R   0.842215 0.798887 0.340376 -0.074619
C14   C     C_R   0.793748 0.929804 0.310038 -0.120565
C15   C     C_R   0.779164 0.031614 0.400478 -0.101172
C16   C     C_R   0.810921 0.001824 0.521839 -0.113545
C17   C     C_R   0.857570 0.870444 0.552948 -0.071191
C18   C     C_R   0.124620 0.768962 0.538112 0.068224
C19   C     C_R   0.157793 0.798882 0.659624 -0.074614
C20   C     C_R   0.206262 0.929797 0.689963 -0.120562
C21   C     C_R   0.220840 0.031612 0.599528 -0.101176
C22   C     C_R   0.189076 0.001828 0.478169 -0.113547
C23   C     C_R   0.498478 0.500043 0.265347 0.553729
C24   C     C_R   0.142426 0.870449 0.447058 -0.071194
C25   C     C_R   0.501523 0.500044 0.734653 0.553728
C26   C     C_2   0.497267 0.385010 0.932999 -0.164131
C27   C     C_2   0.502746 0.385011 0.067001 -0.164134
C28   C     C_2   0.507681 0.502358 0.866658 -0.119475
C29   C     C_2   0.492321 0.502357 0.133342 -0.119478
C30   C     C_R   0.063222 0.379136 0.501628 -0.161456
Cu1   Cu    Cu3+1 0.500000 0.640660 0.500000 0.954341
Cu2   Cu    Cu3+1 0.500000 0.359340 0.500000 0.907792
H1    H     H_    0.486166 0.284183 0.888239 0.133802
H2    H     H_    0.559099 0.871118 0.684804 0.104885
H3    H     H_    0.855682 0.721555 0.269238 0.093862
H4    H     H_    0.768558 0.952806 0.216288 0.093648
H5    H     H_    0.742384 0.133208 0.376506 0.138085
H6    H     H_    0.798601 0.080127 0.592213 0.102210
H7    H     H_    0.882278 0.848649 0.647105 0.095675
H8    H     H_    0.144330 0.721547 0.730758 0.093863
H9    H     H_    0.231460 0.952794 0.783711 0.093649
H10   H     H_    0.257622 0.133205 0.623500 0.138085
H11   H     H_    0.201392 0.080134 0.407799 0.102215
H12   H     H_    0.513858 0.284188 0.111762 0.133806
H13   H     H_    0.117713 0.848658 0.352903 0.095678
H14   H     H_    0.523623 0.603842 0.907711 0.091658
H15   H     H_    0.476368 0.603836 0.092289 0.091660
H16   H     H_    0.110068 0.279844 0.501489 0.134420
H17   H     H_    0.889933 0.279844 0.498530 0.134420
H18   H     H_    0.441155 0.128822 0.315095 0.102979
H19   H     H_    0.558845 0.128823 0.684905 0.102977
H20   H     H_    0.440901 0.871117 0.315195 0.104886
N1    N     N_R   0.500000 0.852070 0.500000 -0.209935
N2    N     N_R   0.500000 0.147940 0.500000 -0.233289
O1    O     O_R   0.319640 0.618740 0.499990 -0.486698
O2    O     O_R   0.680360 0.618740 0.500010 -0.486697
O3    O     O_R   0.319620 0.381170 0.499990 -0.514659
O4    O     O_R   0.680380 0.381170 0.500010 -0.514660
O5    O     O_R   0.500000 0.618750 0.321940 -0.513599
O6    O     O_R   0.500000 0.618750 0.678060 -0.513601
O7    O     O_R   0.499970 0.381180 0.321940 -0.509876
O8    O     O_R   0.500030 0.381180 0.678060 -0.509877

loop_
_geom_bond_atom_site_label_1
_geom_bond_atom_site_label_2
_ccdc_geom_bond_type
Cu1   O6    S    
C5    C11   S    
C25   O6    A    
C1    O3    A    
Cu1   O2    S    
C27   C29   D    
C26   H1    S    
C26   C28   D    
C19   C20   A    
Cu2   O4    S    
C2    C30   A    
C1    C4    S    
C12   O4    A    
C2    C3    A    
C1    O1    A    
Cu2   O8    S    
C10   H2    S    
Cu1   Cu2   S    
C21   C22   A    
Cu1   N1    S    
C25   C28   S    
C23   O5    A    
C11   C13   A    
C8    H19   S    
C28   H14   S    
C26   C27   S    
C12   O2    A    
C9    H20   S    
Cu2   O3    S    
C29   H15   S    
C18   C24   A    
C24   H13   S    
C23   C29   S    
C30   H16   S    
C2    H17   S    
Cu2   O7    S    
C13   H3    S    
C25   O8    A    
C14   H4    S    
C5    C6    A    
C6    C18   S    
C22   C24   A    
C4    C30   A    
C9    N1    A    
C19   H8    S    
C8    N2    A    
C15   C16   A    
C22   H11   S    
C23   O7    A    
C16   H6    S    
C20   C21   A    
C4    C6    A    
C18   C19   A    
C17   H7    S    
Cu2   N2    S    
C7    C9    A    
C10   N1    A    
C14   C15   A    
C15   H5    S    
C3    C12   S    
C7    N2    A    
Cu1   O1    S    
C13   C14   A    
C27   H12   S    
C8    C10   A    
C11   C17   A    
C21   H10   S    
C7    H18   S    
C20   H9    S    
C16   C17   A    
C3    C5    A    
Cu1   O5    S    
