data_mof_unit_5821.cif
_audit_creation_date              2013-03-05T16:48:05-0500
_audit_creation_method            fapswitch 2.2
_symmetry_space_group_name_H-M    P1
_symmetry_Int_Tables_number       1
_space_group_crystal_system       triclinic
_cell_length_a                    19.166889
_cell_length_b                    8.933939
_cell_length_c                    8.117986
_cell_angle_alpha                 90.001623
_cell_angle_beta                  90.117511
_cell_angle_gamma                 89.999517
_cell_volume                      1390.08704204

loop_
_atom_site_label
_atom_site_type_symbol
_atom_site_description
_atom_site_fract_x
_atom_site_fract_y
_atom_site_fract_z
_atom_type_partial_charge
O1    O     O_R   0.500000 0.285350 0.636850 -0.613674
O2    O     O_R   0.500000 0.714650 0.363150 -0.611949
O3    O     O_R   0.500000 0.714650 0.636850 -0.612053
O4    O     O_R   0.500000 0.285350 0.363150 -0.612710
C1    C     C_R   0.499999 0.218037 0.499999 0.937952
C2    C     C_R   0.499995 0.781963 0.500002 0.941196
O5    O     O_R   0.398140 0.500000 0.636920 -0.618239
O6    O     O_R   0.601860 0.500000 0.363080 -0.618733
O7    O     O_R   0.601860 0.500000 0.636920 -0.618982
O8    O     O_R   0.398140 0.500000 0.363080 -0.617540
C3    C     C_R   0.365133 0.497607 0.499927 0.909569
C4    C     C_R   0.634900 0.499742 0.500204 0.910308
Zn1   Zn    Zn3+2 0.500000 0.500000 0.682780 1.014434
Zn2   Zn    Zn3+2 0.500000 0.500000 0.317220 1.015556
C5    C     C_1   0.499995 0.065201 0.499999 -0.166932
C6    C     C_1   0.499994 0.934803 0.500003 -0.167541
N1    N     N_1   0.500000 0.500000 0.073640 -0.023623
N2    N     N_1   0.500000 0.500000 0.926360 -0.023898
C7    C     C_R   0.257114 0.419714 0.638684 -0.220948
C8    C     C_R   0.746145 0.442976 0.361857 -0.213405
C9    C     C_R   0.747347 0.534469 0.642992 -0.215210
C10   C     C_R   0.250875 0.518794 0.361161 -0.207136
H1    H     H_    0.288128 0.387223 0.744508 0.203376
H2    H     H_    0.717346 0.412238 0.251951 0.202388
H3    H     H_    0.719379 0.572728 0.750947 0.202107
H4    H     H_    0.276751 0.564287 0.253685 0.203622
C11   C     C_R   0.185186 0.397087 0.641175 0.296056
C12   C     C_R   0.818613 0.431914 0.362434 0.294701
C13   C     C_R   0.819786 0.523454 0.648481 0.297597
C14   C     C_R   0.178732 0.499800 0.359647 0.301289
C15   C     C_R   0.145819 0.439787 0.501034 -0.179226
C16   C     C_R   0.855540 0.471680 0.507131 -0.183536
C17   C     C_R   0.289752 0.480728 0.500407 -0.156364
C18   C     C_R   0.710647 0.493720 0.501124 -0.154886
N3    N     N_R   0.032145 0.320891 0.480417 -0.051605
N4    N     N_R   0.969592 0.585898 0.537844 -0.083062
N5    N     N_R   0.962996 0.328923 0.481176 -0.077445
N6    N     N_R   0.038662 0.577658 0.538067 -0.098663
C19   C     C_R   0.930930 0.461629 0.509677 0.417987
C20   C     C_R   0.070679 0.445038 0.510322 0.417488
N7    N     N_R   0.153637 0.335514 0.787920 0.245305
O9    O     O_R   0.095109 0.262129 0.781164 -0.295203
O10   O     O_R   0.187499 0.337666 0.927057 -0.330067
N8    N     N_R   0.853612 0.383462 0.214755 0.240186
O11   O     O_R   0.913829 0.439364 0.174099 -0.252529
O12   O     O_R   0.821967 0.295485 0.110915 -0.331689
N9    N     N_R   0.855698 0.561321 0.799075 0.239158
O13   O     O_R   0.911836 0.489806 0.843104 -0.258315
O14   O     O_R   0.828320 0.656564 0.901644 -0.331428
N10   N     N_R   0.139719 0.545128 0.215835 0.241303
O15   O     O_R   0.083654 0.473514 0.171224 -0.260203
O16   O     O_R   0.163849 0.649425 0.119562 -0.324782

loop_
_geom_bond_atom_site_label_1
_geom_bond_atom_site_label_2
_geom_bond_distance
_ccdc_geom_bond_type
N10   O16   1.301708 A    
C9    C13   1.392525 A    
C2    C6    1.365460 S    
C7    C11   1.393557 A    
N7    O9    1.300412 A    
C11   N7    1.445819 S    
N10   O15   1.301414 A    
C7    H1    1.083311 S    
N9    O13   1.300825 A    
O3    Zn1   1.953592 S    
O5    Zn1   1.986770 S    
O6    C4    1.279574 A    
O3    C2    1.263272 A    
C8    C18   1.396336 A    
N4    N6    1.325907 A    
N1    N2    1.195616 T    
C14   N10   1.443096 S    
N5    C19   1.355518 A    
C15   C20   1.443089 S    
O5    C3    1.278513 A    
N7    O10   1.301689 A    
Zn2   N1    1.977379 S    
O2    C2    1.263266 A    
C10   H4    1.083600 S    
C9    H3    1.083580 S    
Zn1   N2    1.977379 S    
C13   N9    1.441987 S    
O1    C1    1.263262 A    
C12   C16   1.415461 A    
N6    C20   1.353382 A    
N8    O12   1.301576 A    
N3    C20   1.354198 A    
C13   C16   1.415446 A    
O4    Zn2   1.953592 S    
C14   C15   1.416268 A    
O2    Zn2   1.953571 S    
O7    C4    1.278952 A    
C1    C5    1.365425 S    
O1    Zn1   1.953572 S    
O8    C3    1.279737 A    
C4    C18   1.452827 S    
C5    C6    1.164974 T    
C8    C12   1.392493 A    
C3    C17   1.452674 S    
N8    O11   1.300790 A    
N9    O14   1.301708 A    
O8    Zn2   1.988270 S    
C16   C19   1.447876 S    
C10   C17   1.394735 A    
O7    Zn1   1.988268 S    
O6    Zn2   1.986768 S    
C9    C18   1.396552 A    
C10   C14   1.393155 A    
N3    N5    1.327346 A    
C11   C15   1.416205 A    
C12   N8    1.441490 S    
N4    C19   1.353987 A    
C8    H2    1.083572 S    
C7    C17   1.396945 A    
O4    C1    1.263275 A    
