data_mof_unit_68531.cif
_audit_creation_date              2012-12-10T16:49:22-0500
_audit_creation_method            fapswitch 2.2
_symmetry_space_group_name_H-M    P1
_symmetry_Int_Tables_number       1
_space_group_crystal_system       triclinic
_cell_length_a                    7.827454
_cell_length_b                    8.547
_cell_length_c                    12.720107
_cell_angle_alpha                 90.428167
_cell_angle_beta                  86.420709
_cell_angle_gamma                 92.951924
_cell_volume                      848.196352525

loop_
_atom_site_label
_atom_site_type_symbol
_atom_type_description
_atom_site_fract_x
_atom_site_fract_y
_atom_site_fract_z
_atom_type_partial_charge
C1    C     C_R   0.455388 0.205794 0.497366 0.979652
C2    C     C_R   0.614678 0.347404 0.146722 -0.329801
C3    C     C_R   0.496480 0.394679 0.871408 0.381263
C4    C     C_R   0.503520 0.605321 0.128592 0.381263
C5    C     C_R   0.525630 0.426124 0.977568 -0.141539
C6    C     C_R   0.474370 0.573876 0.022432 -0.141538
C7    C     C_2   0.431791 0.042397 0.495888 -0.319245
C8    C     C_2   0.568209 0.957602 0.504112 -0.319245
C9    C     C_R   0.012363 0.564039 0.366864 0.337703
C10   C     C_R   0.982696 0.714918 0.332026 -0.143815
C11   C     C_R   0.961939 0.741548 0.225300 -0.038370
C12   C     C_R   0.544612 0.794206 0.502634 0.979652
C13   C     C_R   0.975449 0.618579 0.152610 -0.064936
C14   C     C_R   0.009252 0.468751 0.186527 -0.197481
C15   C     C_R   0.026947 0.441105 0.293384 -0.087362
C16   C     C_R   0.987637 0.435959 0.633136 0.337704
C17   C     C_R   0.017306 0.285080 0.667972 -0.143816
C18   C     C_R   0.038064 0.258448 0.774697 -0.038372
C19   C     C_R   0.024553 0.381415 0.847389 -0.064932
C20   C     C_R   0.990748 0.531243 0.813473 -0.197482
C21   C     C_R   0.973052 0.558891 0.706617 -0.087362
C22   C     C_R   0.464065 0.503355 0.699234 0.980785
C23   C     C_R   0.535934 0.496645 0.300766 0.980785
C24   C     C_R   0.560024 0.486495 0.189501 -0.209779
C25   C     C_R   0.439976 0.513505 0.810498 -0.209780
C26   C     C_R   0.394244 0.681904 0.959248 0.499920
C27   C     C_R   0.605756 0.318096 0.040752 0.499920
C28   C     C_R   0.385322 0.652596 0.853278 -0.329802
Cl1   Cl    Cl    0.487881 0.792365 0.189488 -0.549709
Cl2   Cl    Cl    0.512118 0.207635 0.810512 -0.549709
Cl3   Cl    Cl    0.293787 0.853070 0.002987 -0.513280
Cl4   Cl    Cl    0.706214 0.146930 0.997013 -0.513280
H1    H     H_    0.663178 0.259959 0.196994 0.203687
H2    H     H_    0.022522 0.188296 0.612636 0.118952
H3    H     H_    0.062522 0.142152 0.801258 0.187098
H4    H     H_    0.039974 0.360596 0.929959 0.156221
H5    H     H_    0.978641 0.626025 0.869874 0.167099
H6    H     H_    0.944302 0.674724 0.681134 0.129590
H7    H     H_    0.336822 0.740040 0.803006 0.203687
H8    H     H_    0.302497 0.992430 0.488011 0.168007
H9    H     H_    0.697503 0.007570 0.511989 0.168007
H10   H     H_    0.977481 0.811703 0.387361 0.118952
H11   H     H_    0.937483 0.857844 0.198738 0.187099
H12   H     H_    0.960028 0.639396 0.070039 0.156219
H13   H     H_    0.021358 0.373968 0.130128 0.167101
H14   H     H_    0.055696 0.325273 0.318868 0.129589
N1    N     N_2   0.054030 0.541640 0.471970 -0.160298
N2    N     N_2   0.945970 0.458360 0.528030 -0.160298
O1    O     O_R   0.609680 0.261530 0.506880 -0.610563
O2    O     O_R   0.390320 0.738470 0.493120 -0.610563
O3    O     O_R   0.323330 0.288220 0.488910 -0.651596
O4    O     O_R   0.676670 0.711780 0.511090 -0.651595
O5    O     O_R   0.619510 0.488830 0.661140 -0.604110
O6    O     O_R   0.380490 0.511170 0.338860 -0.604110
O7    O     O_R   0.333160 0.515520 0.643180 -0.636836
O8    O     O_R   0.666840 0.484480 0.356820 -0.636836
Zn1   Zn    Zn3+2 0.691200 0.482180 0.511990 0.948742
Zn2   Zn    Zn3+2 0.308800 0.517820 0.488010 0.948741

loop_
_geom_bond_atom_site_label_1
_geom_bond_atom_site_label_2
_ccdc_geom_bond_type
C3    Cl2   S    
C12   O2    A    
C7    H8    S    
C16   C21   A    
C11   H11   S    
C2    C27   A    
C22   O5    A    
C11   C13   A    
C9    C10   A    
C26   C28   A    
N1    N2    D    
C28   H7    S    
C5    C27   A    
C8    C12   S    
C10   C11   A    
C16   N2    S    
C17   C18   A    
C9    C15   A    
C26   Cl3   S    
O3    Zn2   S    
C6    C26   A    
C13   C14   A    
C8    H9    S    
N1    Zn2   S    
C20   H5    S    
C1    O3    A    
C23   O8    A    
C22   O7    A    
C2    H1    S    
C12   O4    A    
C9    N1    S    
C14   H13   S    
C19   H4    S    
C2    C24   A    
C5    C6    A    
C4    C24   A    
C7    C8    D    
C17   H2    S    
C23   C24   S    
O4    Zn1   S    
O2    Zn2   S    
C3    C25   A    
N2    Zn1   S    
O1    Zn1   S    
C20   C21   A    
C18   H3    S    
C23   O6    A    
C4    C6    A    
C18   C19   A    
O6    Zn2   S    
O7    Zn2   S    
O8    Zn1   S    
O5    Zn1   S    
C14   C15   A    
C16   C17   A    
C10   H10   S    
C15   H14   S    
C3    C5    A    
C27   Cl4   S    
C1    C7    S    
C1    O1    A    
C13   H12   S    
C21   H6    S    
C19   C20   A    
C4    Cl1   S    
C25   C28   A    
C22   C25   S    
