data_mof_unit_33117.cif
_audit_creation_date              2012-12-10T18:10:51-0500
_audit_creation_method            fapswitch 2.2
_symmetry_space_group_name_H-M    P1
_symmetry_Int_Tables_number       1
_space_group_crystal_system       triclinic
_cell_length_a                    12.624438
_cell_length_b                    13.225248
_cell_length_c                    15.73215
_cell_angle_alpha                 90.868143
_cell_angle_beta                  102.716781
_cell_angle_gamma                 82.244049
_cell_volume                      2538.50141058

loop_
_atom_site_label
_atom_site_type_symbol
_atom_type_description
_atom_site_fract_x
_atom_site_fract_y
_atom_site_fract_z
_atom_type_partial_charge
C1    C     C_R   0.438654 0.690731 0.490501 0.851075
C2    C     C_3   0.373747 0.506824 0.024909 0.688537
C3    C     C_3   0.494996 0.497749 0.081831 0.115956
C4    C     C_3   0.563935 0.397190 0.059476 0.179587
C5    C     C_3   0.561542 0.396767 0.960642 -0.391353
C6    C     C_1   0.494861 0.497894 0.173599 -0.016401
C7    C     C_1   0.502364 0.499069 0.826025 -0.041394
C8    C     C_1   0.503097 0.499822 0.750789 -0.205258
C9    C     C_R   0.703831 0.057869 0.473631 -0.161622
C10   C     C_R   0.599855 0.199076 0.528895 -0.186140
C11   C     C_R   0.327441 0.819614 0.556687 -0.180982
C12   C     C_R   0.501007 0.500250 0.661461 0.892650
C13   C     C_R   0.330106 0.907402 0.605638 -0.170798
C14   C     C_R   0.403822 0.974086 0.598247 -0.194577
C15   C     C_R   0.465269 0.962469 0.532626 0.089453
C16   C     C_R   0.463396 0.871835 0.484099 0.043128
C17   C     C_R   0.535920 0.032759 0.518848 -0.075992
C18   C     C_R   0.617824 0.000464 0.471058 0.017203
C19   C     C_R   0.612703 0.911885 0.421077 0.435834
C20   C     C_R   0.530653 0.852098 0.423766 -0.313348
C21   C     C_R   0.525058 0.135615 0.545747 0.166072
C22   C     C_R   0.699995 0.155393 0.509424 0.125182
C23   C     C_R   0.561515 0.308910 0.514769 0.893046
C24   C     C_R   0.401102 0.797648 0.502027 -0.072273
C25   C     C_R   0.090915 0.341238 0.384109 -0.365041
C26   C     C_R   0.802852 0.622314 0.609057 0.350552
C27   C     C_R   0.911921 0.634281 0.642733 -0.366520
C28   C     C_R   0.994750 0.581096 0.607507 0.204727
C29   C     C_R   0.966146 0.520467 0.532190 -0.011679
C30   C     C_R   0.855362 0.502906 0.506000 0.066346
C31   C     C_R   0.042532 0.472589 0.484764 -0.029366
C32   C     C_R   0.011084 0.397149 0.421994 0.042876
C33   C     C_R   0.901213 0.378698 0.398146 0.192207
C34   C     C_R   0.498879 0.499665 0.338553 0.892688
C35   C     C_R   0.826466 0.430237 0.442757 -0.186457
C36   C     C_R   0.148683 0.499363 0.494647 -0.060827
C37   C     C_R   0.196503 0.366725 0.401252 0.360618
C38   C     C_3   0.378752 0.509073 0.926205 -0.549987
C39   C     C_3   0.552668 0.589623 0.962251 -0.387867
C40   C     C_3   0.556513 0.586526 0.061016 0.132587
C41   C     C_1   0.496131 0.498693 0.249170 -0.195103
C42   C     C_3   0.499254 0.498454 0.917011 0.136245
H1    H     H_    0.337225 0.447575 0.889478 0.174346
H2    H     H_    0.651220 0.395479 0.095004 0.087929
H3    H     H_    0.772603 0.026711 0.446466 0.208672
H4    H     H_    0.278829 0.762928 0.570614 0.148768
H5    H     H_    0.415794 0.030203 0.648019 0.166899
H6    H     H_    0.281739 0.919407 0.654733 0.144217
H7    H     H_    0.333862 0.581608 0.893924 0.171150
H8    H     H_    0.524168 0.785957 0.382384 0.147113
H9    H     H_    0.073239 0.277699 0.341672 0.158429
H10   H     H_    0.174642 0.564860 0.530449 0.174979
H11   H     H_    0.932834 0.680740 0.699717 0.153453
H12   H     H_    0.745672 0.411426 0.428902 0.235921
H13   H     H_    0.637466 0.586734 0.951820 0.150478
H14   H     H_    0.505543 0.662649 0.932596 0.217329
H15   H     H_    0.644714 0.570509 0.095274 0.102564
H16   H     H_    0.521355 0.331645 0.929005 0.215761
H17   H     H_    0.647057 0.385858 0.950889 0.146856
N1    N     N_R   0.222200 0.444690 0.455710 -0.123216
N2    N     N_R   0.776960 0.554780 0.543830 -0.137331
O1    O     O_R   0.366740 0.627160 0.478850 -0.624759
O2    O     O_R   0.544830 0.662520 0.507140 -0.575706
O3    O     O_R   0.410920 0.482310 0.608710 -0.620477
O4    O     O_R   0.589010 0.517670 0.637000 -0.608513
O5    O     O_R   0.455170 0.337480 0.492860 -0.565496
O6    O     O_R   0.633260 0.372840 0.521150 -0.651224
O7    O     O_R   0.410990 0.482330 0.363000 -0.580839
O8    O     O_R   0.589080 0.517690 0.391290 -0.645826
Zn1   Zn    Zn3+2 0.381090 0.476390 0.481110 0.959621
Zn2   Zn    Zn3+2 0.618910 0.523610 0.518890 0.938672
N3    N     N_2   0.308447 0.600677 0.045283 -0.271474
H18   H     H_    0.329862 0.666879 0.024339 0.258212
C43   C     C_3   0.190338 0.603138 0.025372 -0.731382
H19   H     H_    0.151055 0.679685 0.040229 0.221215
H20   H     H_    0.166240 0.546262 0.066186 0.280711
H21   H     H_    0.159834 0.587689 0.955235 0.223524
O9    O     O_3   0.324282 0.422623 0.044727 -0.742219
H22   H     H_    0.339756 0.364247 0.007061 0.364380
N4    N     N_2   0.791832 0.211487 0.522442 -0.292744
H23   H     H_    0.797646 0.258410 0.575746 0.249563
C44   C     C_3   0.897941 0.159907 0.514427 -0.780875
H24   H     H_    0.960182 0.213017 0.531741 0.241505
H25   H     H_    0.895719 0.136284 0.446130 0.265578
H26   H     H_    0.923268 0.092753 0.559415 0.234160
O10   O     O_3   0.687184 0.886163 0.369057 -0.778547
H27   H     H_    0.672545 0.821326 0.339098 0.337208
N5    N     N_2   0.430347 0.180687 0.575409 -0.296104
H28   H     H_    0.353880 0.162529 0.546412 0.225182
C45   C     C_3   0.444828 0.230914 0.659056 -0.760819
H29   H     H_    0.421371 0.183956 0.707898 0.215894
H30   H     H_    0.390231 0.304593 0.652243 0.264037
H31   H     H_    0.530953 0.245059 0.683821 0.224610
N6    N     N_2   0.276956 0.312415 0.361299 -0.268298
H32   H     H_    0.289849 0.235326 0.375839 0.206267
C46   C     C_3   0.259867 0.331794 0.268624 -0.694650
H33   H     H_    0.187442 0.297783 0.232585 0.208517
H34   H     H_    0.333197 0.296971 0.245303 0.253119
H35   H     H_    0.247142 0.415148 0.254396 0.262730
N7    N     N_2   0.867176 0.311790 0.327212 -0.297655
H36   H     H_    0.902458 0.319066 0.274818 0.225098
C47   C     C_3   0.753182 0.296870 0.299303 -0.816272
H37   H     H_    0.744523 0.241099 0.245559 0.246204
H38   H     H_    0.702386 0.370042 0.274864 0.227471
H39   H     H_    0.723577 0.265120 0.353195 0.271767
N8    N     N_2   0.720304 0.671324 0.649696 -0.246326
H40   H     H_    0.727838 0.644072 0.712124 0.214873
C48   C     C_3   0.706479 0.781653 0.646074 -0.761264
H41   H     H_    0.629327 0.812127 0.665898 0.245212
H42   H     H_    0.701620 0.808858 0.578876 0.257960
H43   H     H_    0.775927 0.811306 0.691014 0.212924
N9    N     N_2   0.104933 0.581345 0.654454 -0.323455
H44   H     H_    0.119157 0.647225 0.688576 0.221319
C49   C     C_3   0.151462 0.490313 0.706580 -0.794145
H45   H     H_    0.239763 0.493535 0.734114 0.244726
H46   H     H_    0.144342 0.420861 0.666245 0.252490
H47   H     H_    0.109133 0.485119 0.760962 0.237146
O11   O     O_3   0.513296 0.682162 0.088112 -0.765328
H48   H     H_    0.546289 0.687852 0.151106 0.342790
O12   O     O_3   0.525718 0.308834 0.083056 -0.741221
H49   H     H_    0.554367 0.297737 0.146660 0.343032

loop_
_geom_bond_atom_site_label_1
_geom_bond_atom_site_label_2
_ccdc_geom_bond_type
C40   O11   S    
C5    C42   S    
C9    H3    S    
C19   C20   A    
C3    C6    S    
C1    O1    A    
C26   N8    S    
N9    C49   S    
C49   H45   S    
C7    C8    T    
C38   H7    S    
C10   C22   A    
C26   C27   A    
C43   H20   S    
C30   C35   A    
C23   O5    A    
C28   C29   A    
C26   N2    A    
C38   C42   S    
C12   O3    A    
C9    C22   A    
N8    H40   S    
C15   C16   A    
C46   H35   S    
C11   C24   A    
C48   H41   S    
O1    Zn1   S    
C47   H39   S    
C18   C19   A    
C7    C42   S    
C23   O6    A    
O8    Zn2   S    
O11   H48   S    
C20   H8    S    
C25   C37   A    
C39   H13   S    
C31   C32   A    
C6    C41   T    
C46   H34   S    
O3    Zn1   S    
C36   H10   S    
C16   C20   A    
C19   O10   S    
C25   C32   A    
C21   N5    S    
C16   C24   A    
C13   C14   A    
C35   H12   S    
N6    H32   S    
C34   C41   S    
C2    N3    S    
C1    O2    A    
N9    H44   S    
C39   C42   S    
C10   C21   A    
C43   H19   S    
C5    H17   S    
C37   N1    A    
N4    C44   S    
C34   O7    A    
C39   C40   S    
O10   H27   S    
N3    H18   S    
C4    H2    S    
O4    Zn2   S    
C43   H21   S    
C28   N9    S    
N6    C46   S    
C25   H9    S    
C29   C30   A    
C2    O9    S    
C2    C38   S    
C45   H30   S    
C39   H14   S    
C14   C15   A    
N1    Zn1   S    
C8    C12   S    
C46   H33   S    
N7    C47   S    
C17   C18   A    
C47   H38   S    
C34   O8    A    
C5    H16   S    
N3    C43   S    
O2    Zn2   S    
C3    C40   S    
C44   H25   S    
C3    C4    S    
O12   H49   S    
C45   H31   S    
C15   C17   A    
C40   H15   S    
O9    H22   S    
N5    C45   S    
N4    H23   S    
C36   N1    A    
C13   H6    S    
C49   H46   S    
C27   H11   S    
C14   H5    S    
C10   C23   S    
C44   H26   S    
C12   O4    A    
C48   H43   S    
C33   N7    S    
C32   C33   A    
C2    C3    S    
C22   N4    S    
C38   H1    S    
C29   C31   A    
C11   C13   A    
N2    Zn2   S    
C45   H29   S    
O5    Zn1   S    
N8    C48   S    
N7    H36   S    
C33   C35   A    
C48   H42   S    
C37   N6    S    
O6    Zn2   S    
C47   H37   S    
C17   C21   A    
C49   H47   S    
C9    C18   A    
C4    C5    S    
N5    H28   S    
C1    C24   S    
O7    Zn1   S    
C44   H24   S    
C30   N2    A    
C27   C28   A    
C31   C36   A    
C4    O12   S    
C11   H4    S    
