data_mof_unit_65115.cif
_audit_creation_date              2012-12-10T19:30:33-0500
_audit_creation_method            fapswitch 2.2
_symmetry_space_group_name_H-M    P1
_symmetry_Int_Tables_number       1
_space_group_crystal_system       triclinic
_cell_length_a                    25.617839
_cell_length_b                    43.108865
_cell_length_c                    25.095747
_cell_angle_alpha                 90.000808
_cell_angle_beta                  120.632438
_cell_angle_gamma                 89.999715
_cell_volume                      23847.1625472

loop_
_atom_site_label
_atom_site_type_symbol
_atom_type_description
_atom_site_fract_x
_atom_site_fract_y
_atom_site_fract_z
_atom_type_partial_charge
C1    C     C_R   0.641574 0.250076 0.999926 0.853811
C2    C     C_R   0.358400 0.749988 0.000010 0.823133
C3    C     C_R   0.358426 0.250076 0.000074 0.853729
C4    C     C_R   0.641600 0.749988 0.999990 0.823109
C5    C     C_R   0.141601 0.750012 0.999990 0.824991
C6    C     C_R   0.858429 0.249924 0.000075 0.852306
C7    C     C_R   0.858399 0.750012 0.000010 0.824974
C8    C     C_R   0.141571 0.249924 0.999925 0.852206
C9    C     C_R   0.500000 0.032801 0.999999 -0.348149
C10   C     C_R   0.500001 0.967240 1.000000 -0.348430
C11   C     C_R   0.000000 0.532767 0.999999 -0.348760
C12   C     C_R   0.000001 0.467206 0.999999 -0.347945
C13   C     C_3   0.274775 0.222380 0.015086 0.499787
C14   C     C_3   0.753768 0.770338 0.040683 0.540636
C15   C     C_3   0.725217 0.222382 0.984897 0.499770
C16   C     C_3   0.246231 0.770337 0.959317 0.540632
C17   C     C_3   0.746226 0.729662 0.959314 0.542113
C18   C     C_3   0.225217 0.277624 0.984911 0.500167
C19   C     C_3   0.253774 0.729662 0.040685 0.542106
C20   C     C_3   0.774792 0.277622 0.015106 0.500156
C21   C     C_3   0.740150 0.721373 0.015486 -0.304192
C22   C     C_3   0.238811 0.257602 0.942674 -0.308749
C23   C     C_3   0.259850 0.721373 0.984513 -0.304194
C24   C     C_3   0.761191 0.257594 0.057330 -0.308675
C25   C     C_3   0.261181 0.242402 0.057322 -0.310291
C26   C     C_3   0.759845 0.778626 0.984512 -0.306525
C27   C     C_3   0.738816 0.242410 0.942673 -0.310235
C28   C     C_3   0.240155 0.778626 0.015489 -0.306526
C29   C     C_3   0.698721 0.750005 0.000021 -0.042291
C30   C     C_3   0.301273 0.250379 0.000006 -0.050012
C31   C     C_3   0.301279 0.750005 0.999979 -0.042305
C32   C     C_3   0.698727 0.250379 0.999994 -0.050071
C33   C     C_3   0.198721 0.249624 0.999990 -0.049478
C34   C     C_3   0.801275 0.749995 0.999977 -0.041926
C35   C     C_3   0.801279 0.249624 0.000009 -0.049531
C36   C     C_3   0.198725 0.749994 0.000023 -0.041939
C37   C     C_3   0.703896 0.757810 0.942884 -0.305824
C38   C     C_3   0.287923 0.271119 0.041906 -0.248072
C39   C     C_3   0.296104 0.757811 0.057116 -0.305797
C40   C     C_3   0.712083 0.271125 0.958108 -0.248041
C41   C     C_3   0.212069 0.228884 0.958091 -0.247925
C42   C     C_3   0.796099 0.742189 0.057114 -0.303425
C43   C     C_3   0.787925 0.228878 0.041896 -0.247875
C44   C     C_3   0.203901 0.742189 0.942886 -0.303400
C45   C     C_R   0.821607 0.256803 0.731373 -0.224849
C46   C     C_R   0.178441 0.743369 0.268617 -0.219908
C47   C     C_R   0.178473 0.256568 0.268618 -0.224802
C48   C     C_R   0.821533 0.743429 0.731385 -0.219881
C49   C     C_R   0.321564 0.756647 0.731381 -0.219075
C50   C     C_R   0.678401 0.243237 0.268625 -0.225492
C51   C     C_R   0.678465 0.756572 0.268618 -0.219049
C52   C     C_R   0.321528 0.243432 0.731384 -0.225450
C53   C     C_R   0.788633 0.256407 0.666885 -0.170050
C54   C     C_R   0.211408 0.743767 0.333104 -0.171067
C55   C     C_R   0.211440 0.256169 0.333107 -0.169961
C56   C     C_R   0.788565 0.743828 0.666897 -0.171038
C57   C     C_R   0.288595 0.756250 0.666893 -0.170804
C58   C     C_R   0.711370 0.243631 0.333112 -0.170174
C59   C     C_R   0.711431 0.756174 0.333106 -0.170769
C60   C     C_R   0.288559 0.243832 0.666896 -0.170098
C61   C     C_R   0.817805 0.250528 0.633460 0.014047
C62   C     C_R   0.182178 0.749467 0.366533 0.013248
C63   C     C_R   0.182187 0.250528 0.366535 0.013935
C64   C     C_R   0.817818 0.749467 0.633468 0.013222
C65   C     C_R   0.317820 0.750535 0.633465 0.013126
C66   C     C_R   0.682183 0.249470 0.366537 0.014150
C67   C     C_R   0.682178 0.750535 0.366533 0.013102
C68   C     C_R   0.317810 0.249473 0.633467 0.014022
C69   C     C_R   0.880594 0.245303 0.665538 -0.165544
C70   C     C_R   0.119334 0.754510 0.334449 -0.164802
C71   C     C_R   0.119326 0.245541 0.334452 -0.165314
C72   C     C_R   0.880682 0.754450 0.665551 -0.164776
C73   C     C_R   0.380658 0.745476 0.665547 -0.165417
C74   C     C_R   0.619380 0.254652 0.334454 -0.164921
C75   C     C_R   0.619314 0.745553 0.334450 -0.165365
C76   C     C_R   0.380671 0.254460 0.665548 -0.164741
C77   C     C_R   0.914502 0.246355 0.730121 0.452507
C78   C     C_R   0.085439 0.753461 0.269863 0.452106
C79   C     C_R   0.085435 0.246586 0.269865 0.452599
C80   C     C_R   0.914574 0.753405 0.730138 0.452117
C81   C     C_R   0.414555 0.746523 0.730133 0.452429
C82   C     C_R   0.585477 0.253599 0.269871 0.452251
C83   C     C_R   0.585423 0.746597 0.269862 0.452460
C84   C     C_R   0.414562 0.253415 0.730135 0.452292
C85   C     C_R   0.416719 0.249609 0.831853 0.774075
C86   C     C_R   0.583278 0.750392 0.168147 0.774421
C87   C     C_R   0.583275 0.249607 0.168149 0.774348
C88   C     C_R   0.416724 0.750393 0.831852 0.774518
C89   C     C_R   0.916722 0.749608 0.831854 0.772323
C90   C     C_R   0.083280 0.250391 0.168147 0.776202
C91   C     C_R   0.083276 0.749607 0.168147 0.772398
C92   C     C_R   0.916725 0.250393 0.831850 0.776533
C93   C     C_R   0.884392 0.251389 0.763759 -0.120858
C94   C     C_R   0.115606 0.748609 0.236232 -0.123101
C95   C     C_R   0.115618 0.251386 0.236234 -0.120553
C96   C     C_R   0.884388 0.748610 0.763769 -0.123011
C97   C     C_R   0.384394 0.751391 0.763766 -0.122869
C98   C     C_R   0.615604 0.248610 0.236237 -0.121061
C99   C     C_R   0.615610 0.751391 0.236232 -0.122759
C100  C     C_R   0.384381 0.248615 0.763768 -0.120808
C101  C     C_R   0.806257 0.264883 0.531514 -0.176045
C102  C     C_R   0.193884 0.734982 0.468494 -0.176613
C103  C     C_R   0.193955 0.265090 0.468488 -0.176010
C104  C     C_R   0.806040 0.734910 0.531508 -0.176607
C105  C     C_R   0.306115 0.765020 0.531506 -0.176014
C106  C     C_R   0.693731 0.235114 0.468488 -0.176567
C107  C     C_R   0.693955 0.765092 0.468494 -0.176006
C108  C     C_R   0.306042 0.234911 0.531514 -0.176536
C109  C     C_R   0.773534 0.264586 0.466966 -0.165982
C110  C     C_R   0.226611 0.735282 0.533041 -0.166079
C111  C     C_R   0.226677 0.264793 0.533037 -0.165982
C112  C     C_R   0.773313 0.735210 0.466959 -0.166094
C113  C     C_R   0.273387 0.764721 0.466958 -0.165356
C114  C     C_R   0.726452 0.235414 0.533036 -0.166685
C115  C     C_R   0.726683 0.764792 0.533043 -0.165368
C116  C     C_R   0.273320 0.235208 0.466965 -0.166688
C117  C     C_R   0.716969 0.249718 0.434893 0.128269
C118  C     C_R   0.283030 0.750284 0.565109 0.128664
C119  C     C_R   0.283023 0.249721 0.565110 0.128196
C120  C     C_R   0.716968 0.750283 0.434891 0.128665
C121  C     C_R   0.216968 0.749719 0.434889 0.128620
C122  C     C_R   0.783017 0.250280 0.565106 0.128279
C123  C     C_R   0.783028 0.749719 0.565111 0.128608
C124  C     C_R   0.216974 0.250280 0.434891 0.128239
C125  C     C_R   0.452992 0.615839 0.000357 -0.177056
C126  C     C_R   0.461729 0.383969 0.945593 -0.180018
C127  C     C_R   0.547008 0.615839 0.999642 -0.177051
C128  C     C_R   0.538271 0.383970 0.054409 -0.179963
C129  C     C_R   0.953255 0.115829 0.000872 -0.177879
C130  C     C_R   0.961245 0.883962 0.945761 -0.179364
C131  C     C_R   0.046744 0.115829 0.999126 -0.177863
C132  C     C_R   0.038755 0.883963 0.054241 -0.179347
C133  C     C_R   0.450947 0.583511 0.997704 0.434914
C134  C     C_R   0.459292 0.416298 0.945387 0.437709
C135  C     C_R   0.549054 0.583511 0.002295 0.434913
C136  C     C_R   0.540709 0.416298 0.054616 0.437705
C137  C     C_R   0.951198 0.083501 0.998237 0.434777
C138  C     C_R   0.958832 0.916292 0.945584 0.437897
C139  C     C_R   0.048802 0.083501 0.001761 0.434775
C140  C     C_R   0.041168 0.916292 0.054418 0.437895
C141  C     C_R   0.500001 0.566786 1.000000 -0.158097
C142  C     C_R   0.500001 0.433025 0.000001 -0.158721
C143  C     C_R   0.000000 0.066777 0.999999 -0.158026
C144  C     C_R   0.000000 0.933019 0.000001 -0.158915
C145  C     C_R   0.500000 0.632034 0.999999 -0.181806
C146  C     C_R   0.500000 0.367833 0.000001 -0.172402
C147  C     C_R   1.000000 0.132027 0.999999 -0.180547
C148  C     C_R   1.000000 0.867828 0.000001 -0.173365
C149  C     C_R   0.506520 0.516069 0.955413 -0.160867
C150  C     C_R   0.492344 0.483741 0.043866 -0.160550
C151  C     C_R   0.493484 0.516070 0.044589 -0.160874
C152  C     C_R   0.507660 0.483740 0.956137 -0.160555
C153  C     C_R   0.005934 0.016061 0.955050 -0.160970
C154  C     C_R   0.992934 0.983733 0.044243 -0.160606
C155  C     C_R   0.994068 0.016062 0.044951 -0.161001
C156  C     C_R   0.007068 0.983732 0.955759 -0.160607
C157  C     C_R   0.500001 0.467349 0.000002 0.067103
C158  C     C_R   0.500001 0.532462 0.000001 0.067021
C159  C     C_R   0.000001 0.967341 0.000001 0.067075
C160  C     C_R   0.000001 0.032453 0.000000 0.067061
C161  C     C_R   0.500000 0.334010 0.000000 0.825578
C162  C     C_R   0.500000 0.665943 1.000000 0.833201
C163  C     C_R   1.000000 0.834009 0.000000 0.829245
C164  C     C_R   0.000000 0.165941 1.000000 0.829449
C165  C     C_R   0.500000 0.166041 1.000000 0.792505
C166  C     C_R   0.500000 0.833969 0.000000 0.772138
C167  C     C_R   1.000000 0.666033 1.000000 0.772477
C168  C     C_R   0.000000 0.333960 0.000000 0.791818
C169  C     C_R   0.454795 0.884106 0.004025 -0.190641
C170  C     C_R   0.522238 0.115936 0.055763 -0.185043
C171  C     C_R   0.545206 0.884106 0.995976 -0.190646
C172  C     C_R   0.477762 0.115935 0.944237 -0.185013
C173  C     C_R   0.956098 0.384071 0.006285 -0.188304
C174  C     C_R   0.024287 0.615902 0.055987 -0.189331
C175  C     C_R   0.043903 0.384071 0.993715 -0.188312
C176  C     C_R   0.975712 0.615901 0.944011 -0.189322
C177  C     C_R   0.455477 0.916449 0.005253 -0.142602
C178  C     C_R   0.521141 0.083592 0.055628 -0.138878
C179  C     C_R   0.544524 0.916449 0.994748 -0.142603
C180  C     C_R   0.478859 0.083591 0.944371 -0.138871
C181  C     C_R   0.956819 0.416415 0.007510 -0.141701
C182  C     C_R   0.023209 0.583558 0.055901 -0.140989
C183  C     C_R   0.043183 0.416414 0.992489 -0.141710
C184  C     C_R   0.976791 0.583558 0.944098 -0.140989
C185  C     C_R   0.500001 0.932871 0.000000 0.123266
C186  C     C_R   0.500000 0.067169 1.000000 0.122224
C187  C     C_R   0.000001 0.432837 1.000000 0.122174
C188  C     C_R   1.000000 0.567136 0.999999 0.123549
C189  C     C_R   0.500000 0.867845 0.000000 0.015355
C190  C     C_R   0.500000 0.132183 1.000000 0.019680
C191  C     C_R   0.000000 0.367821 0.000000 0.007319
C192  C     C_R   1.000000 0.632160 1.000000 0.020749
C193  C     C_R   0.552834 0.983853 0.042610 0.412069
C194  C     C_R   0.445928 0.016188 0.960616 0.412436
C195  C     C_R   0.447167 0.983853 0.957389 0.412070
C196  C     C_R   0.554073 0.016189 0.039383 0.412438
C197  C     C_R   0.053492 0.483820 0.041049 0.412272
C198  C     C_R   0.945450 0.516154 0.962313 0.412070
C199  C     C_R   0.946509 0.483819 0.958949 0.412270
C200  C     C_R   0.054550 0.516155 0.037685 0.412069
H1    H     H_    0.849357 0.276922 0.555184 0.139944
H2    H     H_    0.150905 0.722837 0.444831 0.139068
H3    H     H_    0.151033 0.277287 0.444817 0.139978
H4    H     H_    0.848961 0.722711 0.555173 0.139086
H5    H     H_    0.349096 0.777164 0.555170 0.139611
H6    H     H_    0.650635 0.223073 0.444821 0.139438
H7    H     H_    0.651035 0.777291 0.444829 0.139624
H8    H     H_    0.348964 0.222714 0.555184 0.139485
H9    H     H_    0.792013 0.276381 0.442105 0.139442
H10   H     H_    0.208253 0.723386 0.557912 0.139090
H11   H     H_    0.208375 0.276745 0.557902 0.139471
H12   H     H_    0.791611 0.723258 0.442088 0.139090
H13   H     H_    0.291744 0.776619 0.442088 0.139709
H14   H     H_    0.707973 0.223622 0.557901 0.138870
H15   H     H_    0.708385 0.776744 0.557914 0.139723
H16   H     H_    0.291623 0.223256 0.442099 0.138862
H17   H     H_    0.416032 0.628435 0.999677 0.180942
H18   H     H_    0.431462 0.371318 0.903637 0.175205
H19   H     H_    0.583968 0.628435 0.000321 0.180941
H20   H     H_    0.568537 0.371319 0.096365 0.175235
H21   H     H_    0.916489 0.128423 0.000593 0.180583
H22   H     H_    0.930617 0.871309 0.903946 0.175332
H23   H     H_    0.083511 0.128423 0.999405 0.180583
H24   H     H_    0.069382 0.871310 0.096056 0.175342
H25   H     H_    0.740316 0.260900 0.643098 0.151254
H26   H     H_    0.259770 0.739414 0.356888 0.152698
H27   H     H_    0.259820 0.260475 0.356893 0.151225
H28   H     H_    0.740185 0.739524 0.643112 0.152697
H29   H     H_    0.240237 0.760616 0.643109 0.152803
H30   H     H_    0.759698 0.239169 0.356897 0.151193
H31   H     H_    0.759811 0.760478 0.356892 0.152789
H32   H     H_    0.240181 0.239525 0.643111 0.151197
H33   H     H_    0.903756 0.240768 0.640309 0.160395
H34   H     H_    0.096124 0.758904 0.359679 0.160687
H35   H     H_    0.096101 0.241192 0.359683 0.160370
H36   H     H_    0.903908 0.758796 0.640319 0.160693
H37   H     H_    0.403862 0.741069 0.640315 0.160589
H38   H     H_    0.596202 0.259156 0.359678 0.160436
H39   H     H_    0.596089 0.741207 0.359681 0.160585
H40   H     H_    0.403894 0.258810 0.640316 0.160435
O1    O     O_3   0.500000 0.250030 0.000000 -0.499111
O2    O     O_3   0.500000 0.749970 0.000000 -0.501880
O3    O     O_3   0.000000 0.750030 0.000000 -0.502535
O4    O     O_3   0.000000 0.249970 0.000000 -0.498320
O5    O     O_R   0.635440 0.231860 0.036300 -0.616074
O6    O     O_R   0.364560 0.768140 0.963700 -0.591743
O7    O     O_R   0.364560 0.231860 0.963700 -0.616052
O8    O     O_R   0.635440 0.768140 0.036300 -0.591744
O9    O     O_R   0.135440 0.731860 0.036300 -0.589689
O10   O     O_R   0.864560 0.268140 0.963700 -0.618303
O11   O     O_R   0.864560 0.731860 0.963700 -0.589691
O12   O     O_R   0.135440 0.268140 0.036300 -0.618278
O13   O     O_R   0.461440 0.268210 0.861400 -0.622743
O14   O     O_R   0.538560 0.731790 0.138600 -0.623640
O15   O     O_R   0.538560 0.268210 0.138600 -0.622621
O16   O     O_R   0.461440 0.731790 0.861400 -0.623585
O17   O     O_R   0.961440 0.768210 0.861400 -0.624329
O18   O     O_R   0.038560 0.231790 0.138600 -0.621990
O19   O     O_R   0.038560 0.768210 0.138600 -0.624299
O20   O     O_R   0.961440 0.231790 0.861400 -0.621803
O21   O     O_R   0.512550 0.319330 0.963650 -0.632514
O22   O     O_R   0.487450 0.680670 0.036350 -0.632755
O23   O     O_R   0.487450 0.319330 0.036350 -0.632462
O24   O     O_R   0.512550 0.680670 0.963650 -0.632732
O25   O     O_R   0.012550 0.819330 0.963650 -0.630183
O26   O     O_R   0.987450 0.180670 0.036350 -0.635086
O27   O     O_R   0.987450 0.819330 0.036350 -0.630171
O28   O     O_R   0.012550 0.180670 0.963650 -0.635011
O29   O     O_R   0.548940 0.180730 0.036330 -0.628211
O30   O     O_R   0.451060 0.819270 0.963670 -0.631493
O31   O     O_R   0.451060 0.180730 0.963670 -0.628192
O32   O     O_R   0.548940 0.819270 0.036330 -0.631484
O33   O     O_R   0.048940 0.680730 0.036330 -0.631027
O34   O     O_R   0.951060 0.319270 0.963670 -0.628789
O35   O     O_R   0.951060 0.680730 0.963670 -0.631023
O36   O     O_R   0.048940 0.319270 0.036330 -0.628757
O37   O     O_R   0.399960 0.231880 0.861420 -0.640557
O38   O     O_R   0.600040 0.768120 0.138580 -0.630145
O39   O     O_R   0.600040 0.231880 0.138580 -0.640684
O40   O     O_R   0.399960 0.768120 0.861420 -0.630199
O41   O     O_R   0.899960 0.731880 0.861420 -0.632379
O42   O     O_R   0.100040 0.268120 0.138580 -0.638479
O43   O     O_R   0.100040 0.731880 0.138580 -0.632417
O44   O     O_R   0.899960 0.268120 0.861420 -0.638648
O45   O     O_R   0.599090 0.268200 0.963630 -0.652795
O46   O     O_R   0.400910 0.731800 0.036370 -0.654291
O47   O     O_R   0.400910 0.268200 0.036370 -0.652825
O48   O     O_R   0.599090 0.731800 0.963630 -0.654298
O49   O     O_R   0.099090 0.768200 0.963630 -0.653284
O50   O     O_R   0.900910 0.231800 0.036370 -0.653865
O51   O     O_R   0.900910 0.768200 0.036370 -0.653292
O52   O     O_R   0.099090 0.231800 0.963630 -0.653896
Zn1   Zn    Zn3+2 0.430120 0.224080 0.948100 0.998558
Zn2   Zn    Zn3+2 0.569880 0.775920 0.051900 1.002647
Zn3   Zn    Zn3+2 0.569880 0.224080 0.051900 0.998513
Zn4   Zn    Zn3+2 0.430120 0.775920 0.948100 1.002630
Zn5   Zn    Zn3+2 0.930120 0.724080 0.948100 1.002961
Zn6   Zn    Zn3+2 0.069880 0.275920 0.051900 0.997831
Zn7   Zn    Zn3+2 0.069880 0.724080 0.051900 1.002952
Zn8   Zn    Zn3+2 0.930120 0.275920 0.948100 0.997769
Zn9   Zn    Zn3+2 0.517960 0.275990 0.948070 0.987617
Zn10  Zn    Zn3+2 0.482040 0.724010 0.051930 0.983092
Zn11  Zn    Zn3+2 0.482040 0.275990 0.051930 0.987685
Zn12  Zn    Zn3+2 0.517960 0.724010 0.948070 0.983126
Zn13  Zn    Zn3+2 0.017960 0.775990 0.948070 0.983397
Zn14  Zn    Zn3+2 0.982040 0.224010 0.051930 0.987355
Zn15  Zn    Zn3+2 0.982040 0.775990 0.051930 0.983418
Zn16  Zn    Zn3+2 0.017960 0.224010 0.948070 0.987458
H41   H     H_    0.419806 0.871758 0.007488 0.155052
H42   H     H_    0.539251 0.128296 0.099102 0.149044
H43   H     H_    0.580195 0.871758 0.992513 0.155049
H44   H     H_    0.460748 0.128294 0.900897 0.149066
H45   H     H_    0.922135 0.371713 0.011493 0.163866
H46   H     H_    0.042893 0.628253 0.099525 0.149455
H47   H     H_    0.077866 0.371713 0.988507 0.163860
H48   H     H_    0.957106 0.628252 0.900474 0.149461
O53   O     O_3   0.976554 0.243053 0.757919 -0.749395
H49   H     H_    0.996239 0.254489 0.797643 0.338596
O54   O     O_3   0.023351 0.756587 0.242067 -0.752837
H50   H     H_    0.003772 0.745271 0.202202 0.331697
O55   O     O_3   0.023337 0.243511 0.242068 -0.749625
H51   H     H_    0.003791 0.254802 0.202180 0.338556
O56   O     O_3   0.976673 0.756476 0.757936 -0.752928
H52   H     H_    0.996220 0.745193 0.797833 0.331689
O57   O     O_3   0.476639 0.743378 0.757929 -0.752809
H53   H     H_    0.496229 0.754705 0.797782 0.331883
O58   O     O_3   0.523415 0.256854 0.242072 -0.749525
H54   H     H_    0.503758 0.245453 0.202308 0.338395
O59   O     O_3   0.523324 0.743526 0.242064 -0.752930
H55   H     H_    0.503778 0.754806 0.202163 0.331876
O60   O     O_3   0.476659 0.256491 0.757931 -0.749682
H56   H     H_    0.496204 0.245198 0.797819 0.338335
O61   O     O_3   0.399801 0.569458 0.991785 -0.752976
H57   H     H_    0.395046 0.548635 0.973308 0.346744
O62   O     O_3   0.415852 0.430349 0.891325 -0.754584
H58   H     H_    0.406643 0.451183 0.900913 0.346196
O63   O     O_3   0.600200 0.569458 0.008214 -0.752975
H59   H     H_    0.604957 0.548636 0.026693 0.346742
O64   O     O_3   0.584150 0.430349 0.108678 -0.754555
H60   H     H_    0.593358 0.451184 0.099090 0.346194
O65   O     O_3   0.900281 0.069448 0.992869 -0.753028
H61   H     H_    0.895378 0.048614 0.974390 0.346786
O66   O     O_3   0.914970 0.930343 0.891758 -0.754503
H62   H     H_    0.905989 0.951187 0.901534 0.346141
O67   O     O_3   0.099719 0.069448 0.007130 -0.753029
H63   H     H_    0.104625 0.048615 0.025612 0.346780
O68   O     O_3   0.085031 0.930344 0.108244 -0.754499
H64   H     H_    0.094012 0.951188 0.098469 0.346139
H65   H     H_    0.511306 0.528356 0.920488 0.173923
H66   H     H_    0.486086 0.471454 0.077857 0.173902
H67   H     H_    0.488697 0.528358 0.079513 0.173921
H68   H     H_    0.513917 0.471452 0.922146 0.173895
H69   H     H_    0.010267 0.028349 0.919848 0.173744
H70   H     H_    0.987138 0.971445 0.078531 0.173833
H71   H     H_    0.989735 0.028351 0.080152 0.173731
H72   H     H_    0.012864 0.971442 0.921471 0.173834
H73   H     H_    0.421064 0.928720 0.009825 0.173480
H74   H     H_    0.537180 0.071321 0.098901 0.172445
H75   H     H_    0.578937 0.928719 0.990175 0.173479
H76   H     H_    0.462820 0.071320 0.901098 0.172451
H77   H     H_    0.923467 0.428685 0.013838 0.174518
H78   H     H_    0.040864 0.571288 0.099408 0.172364
H79   H     H_    0.076535 0.428684 0.986162 0.174515
H80   H     H_    0.959135 0.571287 0.900590 0.172365
O69   O     O_3   0.604941 0.969386 0.087648 -0.687659
H81   H     H_    0.594121 0.949189 0.098159 0.341095
O70   O     O_3   0.390812 0.030656 0.923416 -0.687005
H82   H     H_    0.390479 0.050855 0.941964 0.342756
O71   O     O_3   0.395060 0.969384 0.912352 -0.687659
H83   H     H_    0.405880 0.949187 0.901841 0.341091
O72   O     O_3   0.609188 0.030657 0.076583 -0.687012
H84   H     H_    0.609521 0.050856 0.058035 0.342754
O73   O     O_3   0.106386 0.469352 0.084620 -0.687834
H85   H     H_    0.096321 0.449157 0.095904 0.341037
O74   O     O_3   0.889984 0.530622 0.926914 -0.686836
H86   H     H_    0.890518 0.550819 0.945916 0.342427
O75   O     O_3   0.893615 0.469351 0.915378 -0.687845
H87   H     H_    0.903680 0.449156 0.904094 0.341028
O76   O     O_3   0.110016 0.530623 0.073084 -0.686836
H88   H     H_    0.109481 0.550820 0.054081 0.342427
H89   H     H_    0.730867 0.697894 0.026890 0.169501
H90   H     H_    0.230532 0.264415 0.896336 0.166770
H91   H     H_    0.269134 0.697894 0.973109 0.169508
H92   H     H_    0.769472 0.264400 0.103673 0.166841
H93   H     H_    0.269458 0.235588 0.103660 0.166874
H94   H     H_    0.769122 0.802106 0.973105 0.168535
H95   H     H_    0.730537 0.235603 0.896331 0.166939
H96   H     H_    0.230878 0.802106 0.026896 0.168544
O77   O     O_3   0.302737 0.193291 0.030985 -0.749609
H97   H     H_    0.275259 0.179946 0.037948 0.332587
O78   O     O_3   0.756398 0.791836 0.083690 -0.730525
H98   H     H_    0.797328 0.801258 0.102624 0.336898
O79   O     O_3   0.697246 0.193295 0.968981 -0.749565
H99   H     H_    0.724712 0.179953 0.961992 0.332589
O80   O     O_3   0.243602 0.791836 0.916311 -0.730530
H100  H     H_    0.202672 0.801257 0.897377 0.336892
O81   O     O_3   0.743592 0.708164 0.916305 -0.727386
H101  H     H_    0.702663 0.698742 0.897375 0.337600
O82   O     O_3   0.197244 0.306711 0.969017 -0.757162
H102  H     H_    0.224713 0.320061 0.962050 0.330607
O83   O     O_3   0.256408 0.708165 0.083694 -0.727388
H103  H     H_    0.297338 0.698743 0.102624 0.337594
O84   O     O_3   0.802773 0.306706 0.031017 -0.757102
H104  H     H_    0.775316 0.320053 0.038010 0.330609
H105  H     H_    0.665516 0.763562 0.896037 0.171233
H106  H     H_    0.318869 0.288811 0.075159 0.185001
H107  H     H_    0.334484 0.763563 0.103963 0.171288
H108  H     H_    0.681142 0.288821 0.924866 0.184987
H109  H     H_    0.181122 0.211192 0.924840 0.185640
H110  H     H_    0.834479 0.736437 0.103962 0.171274
H111  H     H_    0.818867 0.211181 0.075135 0.185622
H112  H     H_    0.165521 0.736437 0.896038 0.171315
H113  H     H_    0.797773 0.260908 0.756071 0.174995
H114  H     H_    0.202313 0.739401 0.243913 0.182870
H115  H     H_    0.202357 0.260491 0.243913 0.174661
H116  H     H_    0.797648 0.739507 0.756090 0.182780
H117  H     H_    0.297696 0.760628 0.756084 0.182778
H118  H     H_    0.702246 0.239165 0.243927 0.175143
H119  H     H_    0.702351 0.760494 0.243913 0.182665
H120  H     H_    0.297645 0.239508 0.756090 0.174872

loop_
_geom_bond_atom_site_label_1
_geom_bond_atom_site_label_2
_ccdc_geom_bond_type
C90   O42   A    
O30   Zn4   S    
O48   Zn12  S    
C34   C42   S    
C116  H16   S    
O13   Zn9   S    
C167  O33   A    
O63   H59   S    
C181  C187  A    
C90   C95   S    
C104  C123  A    
O61   H57   S    
C16   C31   S    
O3    Zn13  S    
C149  H65   S    
C52   H120  S    
C104  H4    S    
C147  C164  S    
O4    Zn16  S    
C68   C119  S    
C20   C40   S    
O49   Zn13  S    
C5    C36   S    
C125  H17   S    
C10   C185  S    
C6    C35   S    
C62   C70   A    
C53   H25   S    
C65   C118  S    
O22   Zn10  S    
C67   C120  S    
C16   C44   S    
C107  H7    S    
C88   C97   S    
O1    Zn11  S    
O2    Zn12  S    
C132  H24   S    
C82   C98   A    
C110  C118  A    
C109  H9    S    
C73   C81   A    
O35   Zn5   S    
C152  H68   S    
C195  O71   S    
C146  C161  S    
C115  C123  A    
C6    O10   A    
C109  C117  A    
O56   H52   S    
C84   C100  A    
C151  C158  A    
C13   C30   S    
C15   C32   S    
C10   C193  A    
C183  H79   S    
C112  C120  A    
O19   Zn15  S    
C27   C35   S    
C21   C29   S    
C173  C191  A    
C17   C21   S    
C72   H36   S    
C23   C31   S    
C19   C23   S    
O24   Zn12  S    
C27   H95   S    
C102  H2    S    
C15   C27   S    
C25   H93   S    
C165  C190  S    
C89   O17   A    
C174  H46   S    
C153  C156  A    
C105  H5    S    
C86   C99   S    
C154  C155  A    
C19   O83   S    
C127  C145  A    
O20   Zn16  S    
O77   H97   S    
C85   O37   A    
C105  C118  A    
C36   C44   S    
C17   C34   S    
O26   Zn14  S    
C107  C120  A    
C175  C183  A    
C176  C184  A    
C152  C157  A    
C48   C96   A    
C133  C141  A    
C13   C25   S    
C106  H6    S    
O74   H86   S    
O79   H99   S    
C139  O67   S    
C101  C122  A    
C83   O59   S    
C61   C69   A    
C89   C96   S    
C18   C38   S    
C101  H1    S    
O69   H81   S    
C91   C94   S    
C78   C94   A    
O39   Zn3   S    
C84   O60   S    
O15   Zn11  S    
O3    Zn15  S    
O16   Zn12  S    
C25   C33   S    
C49   C97   A    
O62   H58   S    
C178  C186  A    
O43   Zn7   S    
O2    Zn10  S    
C129  C137  A    
C126  C134  A    
O55   H51   S    
O45   Zn9   S    
C24   C43   S    
C61   C122  S    
C1    O5    A    
C170  C178  A    
C199  O75   S    
C126  H18   S    
C150  C157  A    
C114  H14   S    
C69   C77   A    
C79   O55   S    
C169  C189  A    
C108  H8    S    
C45   C93   A    
C174  C182  A    
C71   C79   A    
C63   C124  S    
O4    Zn6   S    
C143  C160  S    
C30   C38   S    
C105  C113  A    
C151  H67   S    
C16   O80   S    
C21   H89   S    
O82   H102  S    
O38   Zn2   S    
C181  H77   S    
C49   C57   A    
C23   H91   S    
C55   H27   S    
C69   H33   S    
C11   C200  A    
C52   C60   A    
C59   C67   A    
C20   C35   S    
C139  C143  A    
C37   H105  S    
C55   C63   A    
C56   C64   A    
C131  C147  A    
C130  C138  A    
C71   H35   S    
C136  O64   S    
C35   C43   S    
C149  C158  A    
C128  H20   S    
O14   Zn10  S    
C168  O34   A    
O29   Zn3   S    
C45   C53   A    
C91   O19   A    
C171  C179  A    
C169  C177  A    
C81   O57   S    
O50   Zn14  S    
C129  C147  A    
C11   C188  S    
C9    C186  S    
C50   C98   A    
C104  C112  A    
C184  H80   S    
C47   H115  S    
C115  H15   S    
C137  O65   S    
C12   C187  S    
C164  O26   A    
C52   C100  A    
C78   O54   S    
C21   C42   S    
C7    O11   A    
C74   H38   S    
C58   H30   S    
C161  O21   A    
C25   C38   S    
C172  C190  A    
C161  O23   A    
C46   C94   A    
C162  O24   A    
C27   C40   S    
C193  C196  A    
C182  C188  A    
C150  H66   S    
C28   C36   S    
O1    Zn9   S    
C180  C186  A    
C22   H90   S    
C67   C75   A    
C182  H78   S    
C14   C29   S    
O4    Zn8   S    
O27   Zn15  S    
C8    O12   A    
C22   C30   S    
C18   C22   S    
O36   Zn6   S    
C13   C41   S    
C68   C76   A    
C172  H44   S    
C26   H94   S    
C166  C189  S    
C153  C160  A    
C11   C198  A    
C15   C43   S    
C154  C159  A    
C92   O44   A    
C138  C144  A    
O81   H101  S    
C169  H41   S    
C171  H43   S    
O40   Zn4   S    
C86   O38   A    
C200  O76   S    
C18   C33   S    
C131  C139  A    
C168  O36   A    
C6    O50   A    
C135  C141  A    
C113  C121  A    
O3    Zn7   S    
C80   O56   S    
C150  C151  A    
C180  H76   S    
C131  H23   S    
O17   Zn13  S    
C193  O69   S    
O32   Zn2   S    
C85   O13   A    
C75   H39   S    
C76   C84   A    
C1    O45   A    
C20   O84   S    
C127  H19   S    
O76   H88   S    
C3    O47   A    
C164  O28   A    
O42   Zn6   S    
C165  O29   A    
C165  O31   A    
C17   O81   S    
C127  C135  A    
C128  C136  A    
O1    Zn1   S    
C22   C41   S    
C162  O22   A    
C101  C109  A    
O72   H84   S    
C177  C185  A    
C103  C111  A    
O12   Zn6   S    
O31   Zn1   S    
C136  C142  A    
C7    O51   A    
O84   H104  S    
C66   C117  S    
C4    C29   S    
C87   C98   S    
C172  C180  A    
C87   O15   A    
C194  C195  A    
C173  C181  A    
C83   C99   A    
C108  C119  A    
C110  H10   S    
C3    O7    A    
C74   C82   A    
C103  C124  A    
O83   H103  S    
C177  H73   S    
C179  H75   S    
C50   C58   A    
C5    O9    A    
C130  H22   S    
O41   Zn5   S    
O68   H64   S    
C56   H28   S    
C9    C194  A    
C54   C62   A    
C28   C39   S    
C38   H106  S    
C23   C44   S    
C197  C200  A    
O60   H56   S    
O33   Zn7   S    
C79   C95   A    
O34   Zn8   S    
C194  O70   S    
C50   H118  S    
C57   H29   S    
O64   H60   S    
O3    Zn5   S    
C77   O53   S    
C156  H72   S    
O8    Zn2   S    
C4    O48   A    
C144  C159  S    
C88   O40   A    
C18   O82   S    
C173  H45   S    
C106  C117  A    
O51   Zn15  S    
C7    C34   S    
C138  O66   S    
C102  C110  A    
C86   O14   A    
C142  C157  S    
C170  C190  A    
C116  C124  A    
C163  O27   A    
C60   H32   S    
C166  O32   A    
O46   Zn10  S    
C140  C144  A    
C57   C65   A    
O1    Zn3   S    
O80   H100  S    
C26   C37   S    
O2    Zn4   S    
C179  C185  A    
C132  C140  A    
C64   C123  S    
C89   O41   A    
C198  O74   S    
C76   H40   S    
C33   C41   S    
C108  C116  A    
C2    O6    A    
O58   H54   S    
C75   C83   A    
C77   C93   A    
C92   C93   S    
C102  C121  A    
O44   Zn8   S    
C178  H74   S    
O57   H53   S    
C111  H11   S    
O54   H50   S    
C44   H112  S    
C141  C158  S    
C45   H113  S    
C60   C68   A    
C72   C80   A    
C29   C37   S    
C125  C145  A    
C10   C195  A    
C175  H47   S    
C28   H96   S    
C66   C74   A    
C16   C28   S    
O66   H62   S    
C92   O20   A    
C70   C78   A    
O59   H55   S    
O70   H82   S    
C113  H13   S    
C128  C146  A    
C24   C32   S    
C126  C146  A    
C9    C196  A    
O78   H98   S    
C88   O16   A    
O65   H61   S    
C170  H42   S    
C167  C192  S    
C134  O62   S    
O11   Zn5   S    
C168  C191  S    
C106  C114  A    
C112  H12   S    
C197  O73   S    
C155  H71   S    
C154  H70   S    
C183  C187  A    
C19   C36   S    
C175  C191  A    
C176  C192  A    
C134  C142  A    
C145  C162  S    
C196  O72   S    
C65   C73   A    
C171  C189  A    
C70   H34   S    
C153  H69   S    
C54   H26   S    
O18   Zn14  S    
C135  O63   S    
C13   O77   S    
C58   C66   A    
C4    O8    A    
C20   C24   S    
C12   C197  A    
C198  C199  A    
C80   C96   A    
C140  O68   S    
O52   Zn16  S    
C2    O46   A    
C32   C40   S    
C137  C143  A    
O47   Zn11  S    
C163  O25   A    
C166  O30   A    
C46   C54   A    
C53   C61   A    
O28   Zn16  S    
C26   C34   S    
O2    Zn2   S    
C51   C99   A    
C130  C148  A    
C132  C148  A    
O25   Zn13  S    
C129  H21   S    
C149  C152  A    
C167  O35   A    
C24   H92   S    
C87   O39   A    
O21   Zn9   S    
C1    C32   S    
C14   C26   S    
C184  C188  A    
C2    C31   S    
C15   O79   S    
O23   Zn11  S    
C59   H31   S    
C3    C30   S    
C73   H37   S    
O4    Zn14  S    
C82   O58   S    
C17   C37   S    
C91   O43   A    
C48   H116  S    
C107  C115  A    
O75   H87   S    
C19   C39   S    
C111  C119  A    
O9    Zn7   S    
C176  H48   S    
O10   Zn8   S    
C51   C59   A    
C14   O78   S    
C46   H114  S    
C39   H107  S    
C40   H108  S    
C47   C55   A    
O71   H83   S    
C8    O52   A    
C125  C133  A    
C48   C56   A    
C42   H110  S    
C155  C160  A    
C148  C163  S    
C156  C159  A    
C63   C71   A    
C5    O49   A    
C51   H119  S    
O7    Zn1   S    
C49   H117  S    
C14   C42   S    
C85   C100  S    
O73   H85   S    
C81   C97   A    
O5    Zn3   S    
C43   H111  S    
O6    Zn4   S    
C12   C199  A    
C31   C39   S    
C41   H109  S    
C8    C33   S    
C64   C72   A    
O53   H49   S    
C103  H3    S    
C133  O61   S    
C114  C122  A    
O37   Zn1   S    
C174  C192  A    
C47   C95   A    
O67   H63   S    
C62   C121  S    
C90   O18   A    
