data_mof_unit_5816.cif
_audit_creation_date              2012-12-10T16:54:59-0500
_audit_creation_method            fapswitch 2.2
_symmetry_space_group_name_H-M    P1
_symmetry_Int_Tables_number       1
_space_group_crystal_system       triclinic
_cell_length_a                    7.941788
_cell_length_b                    8.558205
_cell_length_c                    15.71214
_cell_angle_alpha                 93.425858
_cell_angle_beta                  84.160171
_cell_angle_gamma                 92.73728
_cell_volume                      1059.53899264

loop_
_atom_site_label
_atom_site_type_symbol
_atom_type_description
_atom_site_fract_x
_atom_site_fract_y
_atom_site_fract_z
_atom_type_partial_charge
Br1   Br    Br    0.350749 0.790813 0.119346 -0.307490
Br2   Br    Br    0.115788 0.508387 0.106024 -0.389213
Br3   Br    Br    0.644262 0.167606 0.069436 -0.378621
Br4   Br    Br    0.725701 0.028095 0.591031 -0.366229
Br5   Br    Br    0.274749 0.971960 0.408622 -0.350367
Br6   Br    Br    0.845404 0.389915 0.887143 -0.389786
Br7   Br    Br    0.752676 0.734603 0.081059 -0.277021
C1    C     C_R   0.543452 0.793757 0.498851 0.920356
C2    C     C_2   0.440183 0.043607 0.486898 0.032400
C3    C     C_R   0.499209 0.500136 0.661188 0.894527
C4    C     C_R   0.456558 0.206239 0.501095 0.934573
C5    C     C_R   0.500460 0.498486 0.338817 0.893553
C6    C     C_3   0.366082 0.599993 0.962133 -0.406027
C7    C     C_3   0.665434 0.518818 0.942107 0.053057
C8    C     C_3   0.664383 0.528778 0.040406 0.045954
C9    C     C_1   0.499700 0.489178 0.249985 0.018511
C10   C     C_3   0.484907 0.469902 0.916453 -0.013564
C11   C     C_2   0.202965 0.621302 0.922741 0.526667
C12   C     C_3   0.343640 0.581657 0.061023 0.443090
C13   C     C_2   0.016940 0.343837 0.415547 0.716363
C14   C     C_2   0.983117 0.656345 0.584342 0.691873
C15   C     C_2   0.240770 0.267556 0.927770 0.316775
C16   C     C_2   0.515552 0.162265 0.896131 0.688007
C17   C     C_2   0.307559 0.201827 0.096562 0.563505
C18   C     C_3   0.485761 0.471370 0.083519 -0.056979
C19   C     C_3   0.451321 0.294470 0.047248 -0.069688
C20   C     C_3   0.425149 0.298290 0.946749 -0.214181
C21   C     C_1   0.494806 0.479852 0.174834 0.183344
C22   C     C_1   0.490409 0.481097 0.824700 0.086243
C23   C     C_1   0.495411 0.491269 0.749692 -0.036889
C24   C     C_2   0.559901 0.956399 0.512960 0.028829
H1    H     H_    0.435500 0.714518 0.951414 0.184614
H2    H     H_    0.702244 0.636603 0.917974 0.186507
H3    H     H_    0.763703 0.454392 0.058144 0.240695
H4    H     H_    0.168594 0.546718 0.868679 0.133937
H5    H     H_    0.148421 0.321387 0.404304 0.099501
H6    H     H_    0.851608 0.678626 0.595671 0.091689
H7    H     H_    0.136522 0.282091 0.976807 0.145949
H8    H     H_    0.512693 0.048818 0.923774 0.066395
H9    H     H_    0.239268 0.107522 0.063750 0.106761
N1    N     N_2   0.950340 0.457950 0.477370 -0.191761
N2    N     N_2   0.049660 0.542050 0.522630 -0.184828
O1    O     O_R   0.389240 0.738570 0.505550 -0.563177
O2    O     O_2   0.920678 0.266073 0.372552 -0.497607
O3    O     O_2   0.079460 0.734431 0.627147 -0.527149
O4    O     O_2   0.205771 0.231123 0.854963 -0.465099
O5    O     O_2   0.574409 0.170583 0.821582 -0.483310
O6    O     O_2   0.277441 0.218798 0.174260 -0.479260
O7    O     O_R   0.678400 0.711630 0.491050 -0.642904
O8    O     O_R   0.355360 0.513470 0.630110 -0.577252
O9    O     O_R   0.644510 0.486530 0.615610 -0.644864
O10   O     O_R   0.321600 0.288370 0.508950 -0.643819
O11   O     O_R   0.610760 0.261430 0.494450 -0.562178
O12   O     O_R   0.355490 0.513470 0.384390 -0.647322
O13   O     O_R   0.644640 0.486530 0.369890 -0.569118
O14   O     O_2   0.112743 0.729356 0.948342 -0.459514
Zn1   Zn    Zn3+2 0.306930 0.517990 0.509680 1.048593
Zn2   Zn    Zn3+2 0.693070 0.482010 0.490320 1.052952

loop_
_geom_bond_atom_site_label_1
_geom_bond_atom_site_label_2
_ccdc_geom_bond_type
C9    C21   T    
C15   O4    D    
O11   Zn2   S    
Br5   C2    S    
C22   C23   T    
C16   C20   S    
Br6   C7    S    
C10   C22   S    
C11   H4    S    
C3    C23   S    
C8    H3    S    
O8    Zn1   S    
C4    O11   A    
C1    O1    A    
C11   O14   D    
C7    H2    S    
Br7   C8    S    
C13   N1    S    
C18   C19   S    
O9    Zn2   S    
C18   C21   S    
C2    C4    S    
C7    C10   S    
C19   C20   S    
C6    C11   S    
C16   H8    S    
C3    O9    A    
N2    Zn1   S    
C17   H9    S    
C17   C19   S    
N1    Zn2   S    
C14   O3    D    
C15   C20   S    
C10   C20   S    
C5    O13   A    
C12   C18   S    
C8    C18   S    
Br4   C24   S    
C16   O5    D    
O10   Zn1   S    
C2    C24   D    
C6    C10   S    
C15   H7    S    
C5    C9    S    
C14   H6    S    
C1    C24   S    
N1    N2    D    
O13   Zn2   S    
C13   H5    S    
O1    Zn1   S    
C7    C8    S    
C6    C12   S    
C4    O10   A    
C6    H1    S    
C13   O2    D    
Br2   C12   S    
Br1   C12   S    
C1    O7    A    
Br3   C19   S    
C5    O12   A    
O7    Zn2   S    
C14   N2    S    
C17   O6    D    
O12   Zn1   S    
C3    O8    A    
