data_mof_unit_49864.cif
_audit_creation_date              2013-03-05T16:25:01-0500
_audit_creation_method            fapswitch 2.2
_symmetry_space_group_name_H-M    P1
_symmetry_Int_Tables_number       1
_space_group_crystal_system       triclinic
_cell_length_a                    15.15231
_cell_length_b                    13.86535
_cell_length_c                    9.059163
_cell_angle_alpha                 90.000361
_cell_angle_beta                  90.180735
_cell_angle_gamma                 90.001182
_cell_volume                      1903.24894144

loop_
_atom_site_label
_atom_site_type_symbol
_atom_site_description
_atom_site_fract_x
_atom_site_fract_y
_atom_site_fract_z
_atom_type_partial_charge
O1    O     O_R   0.371460 0.581430 0.500010 -0.544989
O2    O     O_R   0.628540 0.418570 0.499990 -0.560901
O3    O     O_R   0.628540 0.581430 0.499990 -0.544932
O4    O     O_R   0.371460 0.418570 0.500010 -0.560888
C1    C     C_R   0.329910 0.499971 0.499692 0.902378
C2    C     C_R   0.670091 0.499971 0.500319 0.902895
O5    O     O_R   0.500000 0.581420 0.288390 -0.595956
O6    O     O_R   0.500000 0.418580 0.711610 -0.584812
O7    O     O_R   0.500000 0.581420 0.711610 -0.595955
O8    O     O_R   0.500000 0.418580 0.288390 -0.584909
C3    C     C_R   0.569135 0.107874 0.565547 -0.266813
C4    C     C_R   0.457600 0.892090 0.387541 -0.266927
C5    C     C_R   0.430864 0.107873 0.434441 -0.266816
C6    C     C_R   0.542392 0.892096 0.612455 -0.266912
C7    C     C_R   0.499997 0.500002 0.220562 0.817012
C8    C     C_R   0.500018 0.500002 0.779438 0.816988
Cu1   Cu    Cu3+1 0.500000 0.596430 0.500000 0.965545
Cu2   Cu    Cu3+1 0.500000 0.403570 0.500000 0.959154
H1    H     H_    0.620968 0.248517 0.617137 0.138579
H2    H     H_    0.424615 0.751369 0.303265 0.132249
H3    H     H_    0.379033 0.248515 0.382859 0.138550
H4    H     H_    0.575366 0.751382 0.696748 0.132087
N1    N     N_R   0.500000 0.258690 0.500000 -0.182319
N2    N     N_R   0.500000 0.741310 0.500000 -0.180700
C9    C     C_R   0.499999 0.054657 0.499994 0.119697
C10   C     C_R   0.499997 0.945312 0.499995 0.128188
C11   C     C_1   0.500006 0.500009 0.065553 -0.207414
C12   C     C_1   0.500014 0.500010 0.934447 -0.207407
C13   C     C_R   0.094334 0.574166 0.426335 0.415039
C14   C     C_R   0.905208 0.425179 0.427542 0.418327
C15   C     C_R   0.905658 0.574176 0.573758 0.415050
C16   C     C_R   0.094797 0.425198 0.572616 0.418313
C17   C     C_R   0.186579 0.573558 0.425033 0.334645
C18   C     C_R   0.812991 0.425690 0.427025 0.322082
C19   C     C_R   0.813413 0.573580 0.574993 0.334574
C20   C     C_R   0.187016 0.425732 0.573158 0.322040
C21   C     C_R   0.233188 0.499793 0.499290 -0.417041
C22   C     C_R   0.766815 0.499789 0.500779 -0.417161
C23   C     C_R   0.048344 0.499729 0.499779 -0.182158
C24   C     C_R   0.951655 0.499726 0.500352 -0.182236
C25   C     C_R   0.567546 0.209345 0.565211 0.113274
C26   C     C_R   0.457925 0.790622 0.390164 0.119854
C27   C     C_R   0.432453 0.209343 0.434784 0.113299
C28   C     C_R   0.542068 0.790629 0.609838 0.119915
H5    H     H_    0.625083 0.071863 0.615405 0.144221
H6    H     H_    0.425215 0.928087 0.296367 0.134128
H7    H     H_    0.374915 0.071861 0.384582 0.144219
H8    H     H_    0.574772 0.928098 0.703631 0.134124
O9    O     O_3   0.050792 0.652689 0.365291 -0.480319
C29   C     C_3   0.011193 0.626846 0.229555 -0.253653
H9    H     H_    0.942380 0.602351 0.247525 0.144787
H10   H     H_    0.048492 0.571105 0.167095 0.085537
H11   H     H_    0.007964 0.691978 0.158677 0.187155
O10   O     O_3   0.948444 0.346839 0.365880 -0.481055
C30   C     C_3   0.985889 0.372750 0.228889 -0.263253
H12   H     H_    0.054643 0.398240 0.244834 0.143552
H13   H     H_    0.947048 0.427781 0.167070 0.088550
H14   H     H_    0.988919 0.307427 0.158431 0.186605
O11   O     O_3   0.949200 0.652689 0.634834 -0.480346
C31   C     C_3   0.988754 0.626829 0.770597 -0.254133
H15   H     H_    0.057566 0.602319 0.752676 0.144905
H16   H     H_    0.951417 0.571093 0.833018 0.085548
H17   H     H_    0.991979 0.691957 0.841487 0.187171
O12   O     O_3   0.051575 0.346828 0.634233 -0.481018
C32   C     C_3   0.013987 0.372715 0.771125 -0.262673
H18   H     H_    0.945203 0.398064 0.755022 0.143474
H19   H     H_    0.052685 0.427845 0.832983 0.088416
H20   H     H_    0.011013 0.307410 0.841629 0.186578
O13   O     O_3   0.230690 0.648744 0.356776 -0.508652
C33   C     C_3   0.254636 0.619961 0.212860 -0.252667
H21   H     H_    0.296087 0.553734 0.213100 0.117439
H22   H     H_    0.294191 0.678402 0.162000 0.175019
H23   H     H_    0.195627 0.608824 0.142123 0.139787
O14   O     O_3   0.768405 0.349855 0.360885 -0.511654
C34   C     C_3   0.743542 0.376889 0.216347 -0.224149
H24   H     H_    0.709480 0.448048 0.212411 0.110898
H25   H     H_    0.696526 0.322356 0.173047 0.187083
H26   H     H_    0.801561 0.377531 0.141976 0.139321
O15   O     O_3   0.769273 0.648777 0.643159 -0.508700
C35   C     C_3   0.745408 0.620084 0.787155 -0.252414
H27   H     H_    0.704717 0.553252 0.787268 0.116698
H28   H     H_    0.705086 0.678145 0.837421 0.174804
H29   H     H_    0.804474 0.610028 0.858198 0.140684
O16   O     O_3   0.231588 0.349935 0.639424 -0.511563
C36   C     C_3   0.256529 0.377127 0.783851 -0.223818
H30   H     H_    0.291677 0.447633 0.787155 0.111849
H31   H     H_    0.302587 0.321944 0.828020 0.186971
H32   H     H_    0.198413 0.379236 0.857897 0.138057

loop_
_geom_bond_atom_site_label_1
_geom_bond_atom_site_label_2
_geom_bond_distance
_ccdc_geom_bond_type
C8    C12   1.404249 S    
C30   H12   1.109111 S    
C1    C21   1.465554 S    
O2    Cu2   1.958745 S    
N2    C26   1.363828 A    
O3    C2    1.293092 A    
C13   O9    1.387158 S    
C36   H30   1.113578 S    
C14   O10   1.386873 S    
C31   H17   1.109076 S    
O1    C1    1.293068 A    
C16   C20   1.397340 A    
C20   C21   1.412326 A    
O7    C8    1.285285 A    
O8    Cu2   1.928276 S    
O8    C7    1.285334 A    
C3    C9    1.410881 A    
C13   C17   1.397837 A    
N1    C27   1.364134 A    
C15   C24   1.412976 A    
C31   H16   1.113126 S    
C16   C23   1.412741 A    
C15   O11   1.387137 S    
C4    C26   1.407103 A    
H3    C27   1.081238 S    
H4    C28   1.080782 S    
O5    Cu1   1.928273 S    
C29   H10   1.113071 S    
C2    C22   1.465586 S    
O3    Cu1   1.958754 S    
C33   H21   1.112521 S    
C17   O13   1.385067 S    
O4    Cu2   1.958757 S    
O5    C7    1.285287 A    
O11   C31   1.412725 S    
O6    C8    1.285336 A    
C5    C9    1.410877 A    
O2    C2    1.292373 A    
C35   H29   1.109522 S    
C29   H9    1.109085 S    
C36   H31   1.109428 S    
C29   H11   1.109077 S    
O14   C34   1.412041 S    
C14   C18   1.397303 A    
Cu2   N1    2.008811 S    
Cu1   N2    2.008811 S    
C19   C22   1.412199 A    
O16   C36   1.411994 S    
C16   O12   1.386916 S    
C4    H6    1.081469 S    
C23   C24   1.465089 S    
C5    H7    1.081468 S    
O4    C1    1.292382 A    
C6    H8    1.081468 S    
C32   H19   1.113580 S    
C9    C10   1.516104 S    
C17   C21   1.412239 A    
C4    C10   1.411005 A    
C31   H15   1.109092 S    
C34   H24   1.114005 S    
C7    C11   1.404249 S    
C32   H20   1.109082 S    
C13   C23   1.412954 A    
C33   H23   1.109189 S    
Cu1   Cu2   2.674073 S    
C14   C24   1.412724 A    
C6    C10   1.410996 A    
C34   H25   1.109650 S    
C18   O14   1.385073 S    
O7    Cu1   1.928274 S    
C32   H18   1.109118 S    
C30   H13   1.113631 S    
N2    C28   1.363814 A    
C15   C19   1.397838 A    
C3    H5    1.081468 S    
C5    C27   1.407136 A    
C6    C28   1.407092 A    
C36   H32   1.109047 S    
O10   C30   1.412644 S    
C18   C22   1.412275 A    
C35   H27   1.113020 S    
H2    C26   1.080820 S    
O1    Cu1   1.958748 S    
N1    C25   1.364131 A    
O12   C32   1.412654 S    
C20   O16   1.385089 S    
C19   O15   1.385051 S    
C35   H28   1.109281 S    
C3    C25   1.407135 A    
O13   C33   1.411982 S    
C34   H26   1.109318 S    
O6    Cu2   1.928271 S    
O15   C35   1.411988 S    
O9    C29   1.412727 S    
C30   H14   1.109074 S    
C11   C12   1.187715 T    
C33   H22   1.108982 S    
H1    C25   1.081236 S    
