data_mof_unit_36743.cif
_audit_creation_date              2013-03-05T15:50:43-0500
_audit_creation_method            fapswitch 2.2
_symmetry_space_group_name_H-M    P1
_symmetry_Int_Tables_number       1
_space_group_crystal_system       triclinic
_cell_length_a                    11.132092
_cell_length_b                    12.204948
_cell_length_c                    13.156345
_cell_angle_alpha                 90.772538
_cell_angle_beta                  95.557869
_cell_angle_gamma                 84.42877
_cell_volume                      1770.68561329

loop_
_atom_site_label
_atom_site_type_symbol
_atom_site_description
_atom_site_fract_x
_atom_site_fract_y
_atom_site_fract_z
_atom_type_partial_charge
O1    O     O_R   0.506240 0.421700 0.658830 -0.561838
O2    O     O_R   0.491240 0.609310 0.646410 -0.637372
C1    C     C_R   0.493536 0.519146 0.699759 0.966180
O3    O     O_R   0.692710 0.406190 0.506230 -0.568514
O4    O     O_R   0.677700 0.593810 0.493810 -0.600421
C2    C     C_R   0.743008 0.498786 0.500304 0.876853
Zn1   Zn    Zn3+2 0.510020 0.374730 0.508290 1.085112
Zn2   Zn    Zn3+2 0.489980 0.625270 0.491710 1.081419
O5    O     O_R   0.508760 0.390690 0.353590 -0.596081
O6    O     O_R   0.493760 0.578300 0.341170 -0.557785
O7    O     O_R   0.322300 0.406190 0.506190 -0.584810
O8    O     O_R   0.307290 0.593810 0.493770 -0.564016
C3    C     C_R   0.506084 0.481055 0.299835 0.914209
C4    C     C_R   0.258693 0.502349 0.504920 0.940509
C5    C     C_3   0.950675 0.404304 0.579545 0.106766
C6    C     C_3   0.093749 0.398545 0.573091 -0.202735
H1    H     H_    0.105900 0.414270 0.369532 0.116922
C7    C     C_3   0.924199 0.481900 0.391380 0.188915
C8    C     C_3   0.919177 0.620590 0.544332 -0.282074
C9    C     C_3   0.880950 0.499723 0.504212 -0.206961
C10   C     C_3   0.123013 0.505354 0.510342 -0.178147
C11   C     C_3   0.063939 0.493208 0.396540 -0.349755
C12   C     C_3   0.063971 0.616933 0.561718 0.232332
C13   C     C_R   0.525409 0.476215 0.190000 -0.216222
C14   C     C_R   0.485712 0.529478 0.810215 -0.112541
C15   C     C_R   0.469466 0.655699 0.952929 0.159461
C16   C     C_R   0.458839 0.634469 0.849305 -0.190360
C17   C     C_R   0.512631 0.440478 0.878020 0.191376
C18   C     C_R   0.543894 0.462440 0.980783 -0.044735
C19   C     C_R   0.507722 0.566667 0.021944 -0.011738
C20   C     C_R   0.505439 0.574268 0.128612 -0.092458
C21   C     C_R   0.574993 0.377233 0.146277 0.162869
C22   C     C_R   0.598134 0.377300 0.044662 0.174604
H2    H     H_    0.425695 0.701430 0.798167 0.218299
N1    N     N_R   0.523380 0.207800 0.519350 -0.130770
N2    N     N_R   0.476620 0.792180 0.480650 -0.110742
C23   C     C_R   0.416456 0.957117 0.376480 -0.177946
C24   C     C_R   0.406700 0.845099 0.399571 0.085274
C25   C     C_R   0.543947 0.857839 0.547046 0.309849
C26   C     C_R   0.550952 0.972865 0.527849 -0.008015
C27   C     C_R   0.476005 0.026116 0.448181 0.002115
C28   C     C_R   0.461562 0.145622 0.445711 0.293999
C29   C     C_R   0.601366 0.152709 0.592394 0.245653
C30   C     C_R   0.627545 0.037996 0.589314 -0.188933
I1    I     I_    0.893506 0.235838 0.558781 -0.189021
I2    I     I_    0.125032 0.776132 0.521782 -0.137066
I3    I     I_    0.812737 0.572821 0.268193 -0.169044
C31   C     C_2   0.105714 0.565453 0.316429 0.559115
H3    H     H_    0.174867 0.530839 0.269020 0.083522
O9    O     O_2   0.066487 0.661228 0.303138 -0.543196
C32   C     C_2   0.473232 0.682852 0.172730 0.576884
H4    H     H_    0.379916 0.718198 0.162156 0.055825
O10   O     O_2   0.551176 0.735098 0.216462 -0.478875
I4    I     I_    0.612495 0.220649 0.221244 -0.070760
I5    I     I_    0.431383 0.828940 0.981242 -0.163182
I6    I     I_    0.740271 0.265592 0.994224 -0.110825
I7    I     I_    0.421118 0.293210 0.857017 -0.139789
I8    I     I_    0.324161 0.228797 0.340122 -0.289748
I9    I     I_    0.898533 0.424889 0.736710 -0.300945
I10   I     I_    0.674403 0.229853 0.723560 -0.184233
C33   C     C_2   0.387379 0.990382 0.268385 0.469684
H5    H     H_    0.294127 0.000995 0.234745 0.070031
O11   O     O_2   0.468875 0.002155 0.215106 -0.447072
C34   C     C_2   0.748896 0.992405 0.634324 0.590716
H6    H     H_    0.773477 0.996851 0.716007 0.112114
O12   O     O_2   0.824554 0.954279 0.579161 -0.446613
C35   C     C_2   0.308102 0.793827 0.338487 0.438571
H7    H     H_    0.234571 0.844787 0.297246 0.069118
O13   O     O_2   0.304411 0.695548 0.332655 -0.551560
I11   I     I_    0.599545 0.807611 0.700042 -0.252689
C36   C     C_2   0.162155 0.387274 0.679159 0.581139
H8    H     H_    0.133614 0.333831 0.735469 0.132833
O14   O     O_2   0.260407 0.422086 0.697878 -0.568918
C37   C     C_2   0.138948 0.289330 0.521373 0.496208
H9    H     H_    0.100084 0.266353 0.447124 0.118937
O15   O     O_2   0.214564 0.221069 0.564142 -0.525453
I12   I     I_    0.892955 0.329166 0.313519 -0.240224
C38   C     C_2   0.869822 0.710538 0.465778 0.601711
H10   H     H_    0.917341 0.725035 0.401350 0.158549
O16   O     O_2   0.776784 0.770728 0.473278 -0.496599
C39   C     C_2   0.861085 0.660500 0.640506 0.595221
H11   H     H_    0.786791 0.621251 0.666363 0.079307
O17   O     O_2   0.885368 0.746507 0.682693 -0.485109
I13   I     I_    0.138135 0.642773 0.720746 -0.176313

loop_
_geom_bond_atom_site_label_1
_geom_bond_atom_site_label_2
_geom_bond_distance
_ccdc_geom_bond_type
C11   C31   1.517964 S    
C6    C10   1.628070 S    
C27   C28   1.452249 A    
C8    C9    1.641105 S    
C7    I3    2.188439 S    
C28   I8    2.150533 S    
C39   H11   1.079359 S    
C17   I7    2.152315 S    
C30   C34   1.480928 S    
C14   C17   1.405934 A    
Zn1   O7    2.085285 S    
C15   C16   1.380196 A    
C18   C19   1.413433 A    
C37   O15   1.226375 D    
C6    C37   1.550657 S    
C4    C10   1.515846 S    
C17   C18   1.392127 A    
O1    C1    1.299715 A    
O4    C2    1.306839 A    
O7    C4    1.309924 A    
C38   O16   1.221551 D    
C5    C6    1.597874 S    
C18   C22   1.397887 A    
Zn2   N2    2.034246 S    
C33   O11   1.219121 D    
N1    C28   1.393026 A    
O5    C3    1.314542 A    
N1    C29   1.368125 A    
C22   I6    2.136101 S    
C31   O9    1.216249 D    
C12   I2    2.206026 S    
C7    C11   1.569883 S    
C10   C11   1.586912 S    
C15   I5    2.150454 S    
C6    C36   1.524845 S    
Zn1   N1    2.034489 S    
O3    Zn1   2.108736 S    
C21   I4    2.148368 S    
C39   O17   1.222026 D    
C16   H2    1.079305 S    
C5    C9    1.627158 S    
C12   I13   2.203787 S    
C35   H7    1.084191 S    
C1    C14   1.467219 S    
O3    C2    1.315483 A    
C37   H9    1.074409 S    
C25   C26   1.440613 A    
C36   O14   1.213542 D    
C38   H10   1.067089 S    
C32   H4    1.082206 S    
C3    C13   1.480981 S    
C35   O13   1.205341 D    
C34   O12   1.218933 D    
C8    C38   1.542289 S    
C8    C12   1.602276 S    
C29   C30   1.402957 A    
C13   C21   1.417145 A    
C23   C24   1.421160 A    
Zn2   O8    2.108737 S    
C29   I10   2.087718 S    
C26   C27   1.400285 A    
O8    C4    1.302809 A    
C15   C19   1.431232 A    
C10   C12   1.621993 S    
C5    I1    2.216417 S    
Zn1   O5    2.045767 S    
C31   H3    1.087609 S    
O1    Zn1   2.057631 S    
C5    I9    2.205820 S    
N2    C25   1.392086 A    
O2    Zn2   2.045768 S    
C20   C32   1.465967 S    
O6    C3    1.299479 A    
O4    Zn2   2.085284 S    
C23   C33   1.480863 S    
C14   C16   1.390531 A    
C2    C9    1.532601 S    
H1    C11   1.099178 S    
C34   H6    1.084916 S    
N2    C24   1.385993 A    
O2    C1    1.310024 A    
C13   C20   1.439971 A    
C36   H8    1.083558 S    
C21   C22   1.385784 A    
C19   C20   1.407699 A    
C7    I12   2.156533 S    
C25   I11   2.128095 S    
C7    C9    1.610000 S    
C23   C27   1.415742 A    
C33   H5    1.084777 S    
C26   C30   1.411929 A    
C24   C35   1.480237 S    
Zn2   O6    2.057631 S    
C32   O10   1.221204 D    
C8    C39   1.528781 S    
