data_mof_unit_37214.cif
_audit_creation_date              2012-12-10T17:19:25-0500
_audit_creation_method            fapswitch 2.2
_symmetry_space_group_name_H-M    P1
_symmetry_Int_Tables_number       1
_space_group_crystal_system       triclinic
_cell_length_a                    15.035896
_cell_length_b                    10.848567
_cell_length_c                    9.717806
_cell_angle_alpha                 89.867747
_cell_angle_beta                  89.301218
_cell_angle_gamma                 95.767783
_cell_volume                      1576.99609873

loop_
_atom_site_label
_atom_site_type_symbol
_atom_type_description
_atom_site_fract_x
_atom_site_fract_y
_atom_site_fract_z
_atom_type_partial_charge
C1    C     C_R   0.493750 0.262742 0.501018 0.804954
C2    C     C_R   0.918399 0.620559 0.476392 0.044829
C3    C     C_R   0.932635 0.287682 0.565662 -0.199286
C4    C     C_R   0.024554 0.281868 0.571963 0.206865
C5    C     C_R   0.083857 0.386323 0.532363 0.030350
C6    C     C_R   0.047774 0.500986 0.508406 0.010870
C7    C     C_R   0.105150 0.610248 0.486834 0.085804
C8    C     C_R   0.070626 0.721569 0.458007 -0.182140
C9    C     C_R   0.978992 0.727980 0.448012 0.191048
C10   C     C_R   0.177222 0.382517 0.514551 0.093272
C11   C     C_R   0.232823 0.494481 0.503415 -0.092023
C12   C     C_R   0.329295 0.496391 0.500805 0.814942
C13   C     C_R   0.197104 0.607066 0.491532 -0.220316
C14   C     C_R   0.379251 0.107003 0.700534 -0.233367
C15   C     C_R   0.325518 0.032535 0.792759 0.170197
C16   C     C_R   0.320616 0.903986 0.781081 0.247706
C17   C     C_R   0.372004 0.850562 0.681689 -0.265761
C18   C     C_R   0.432039 0.924014 0.594182 0.033843
C19   C     C_R   0.433307 0.054704 0.600383 0.092427
C20   C     C_R   0.486385 0.128230 0.503021 -0.131259
C21   C     C_R   0.534620 0.073154 0.401878 -0.163117
C22   C     C_R   0.536487 0.946991 0.397543 0.142907
C23   C     C_R   0.497141 0.737020 0.499303 0.773692
C24   C     C_R   0.488245 0.870470 0.497051 -0.127271
C25   C     C_R   0.637512 0.637431 0.144406 -0.195540
C26   C     C_R   0.716044 0.683503 0.077505 0.116592
C27   C     C_R   0.719702 0.681774 0.937385 -0.199161
C28   C     C_R   0.643422 0.643449 0.862923 0.155614
C29   C     C_R   0.569103 0.569224 0.925803 0.189369
C30   C     C_R   0.568159 0.567658 0.074516 0.104570
C31   C     C_R   0.434955 0.433683 0.072374 0.236015
C32   C     C_R   0.435861 0.434100 0.926168 -0.028457
C33   C     C_R   0.671009 0.503432 0.499330 0.789374
C34   C     C_R   0.823972 0.621767 0.478020 0.075789
C35   C     C_R   0.768449 0.509286 0.498611 -0.080429
C36   C     C_R   0.805371 0.399560 0.525523 -0.229839
C37   C     C_R   0.897422 0.397511 0.530494 0.080039
C38   C     C_R   0.954440 0.506631 0.505263 0.003068
Cu1   Cu    Cu3+1 0.499990 0.499990 0.640660 0.962726
Cu2   Cu    Cu3+1 0.500010 0.500010 0.359340 0.942214
H1    H     H_    0.375107 0.205323 0.707229 0.169259
H2    H     H_    0.362010 0.751129 0.672611 0.183552
H3    H     H_    0.631438 0.661693 0.249342 0.197598
H4    H     H_    0.777516 0.730296 0.886081 0.178296
H5    H     H_    0.761606 0.315196 0.544385 0.141195
H6    H     H_    0.382802 0.380548 0.871900 0.141439
H7    H     H_    0.888023 0.206698 0.594463 0.174485
H8    H     H_    0.241499 0.691796 0.479184 0.143631
H9    H     H_    0.115914 0.804152 0.438262 0.192983
H10   H     H_    0.574407 0.129466 0.326724 0.181861
N1    N     N_R   0.500860 0.501210 0.147910 -0.202762
N2    N     N_R   0.500890 0.501290 0.852040 -0.206405
O1    O     O_R   0.499990 0.319640 0.618810 -0.585407
O2    O     O_R   0.500000 0.319660 0.381240 -0.586097
O3    O     O_R   0.370250 0.499960 0.618800 -0.584569
O4    O     O_R   0.370260 0.499980 0.381230 -0.579266
O5    O     O_R   0.500000 0.680340 0.618760 -0.546579
O6    O     O_R   0.500010 0.680360 0.381190 -0.601314
O7    O     O_R   0.629740 0.500020 0.618770 -0.548990
O8    O     O_R   0.629750 0.500040 0.381200 -0.589499
N3    N     N_3   0.785724 0.736998 0.462907 -0.607385
H11   H     H_    0.716390 0.725113 0.456943 0.183687
H12   H     H_    0.802330 0.790990 0.549528 0.240033
N4    N     N_3   0.274969 0.087873 0.897434 -0.518465
H13   H     H_    0.235398 0.149120 0.850140 0.256009
H14   H     H_    0.320046 0.140264 0.960553 0.231679
I1    I     I_    0.234964 0.786588 0.910459 -0.283433
N5    N     N_3   0.591289 0.901083 0.292266 -0.588953
H15   H     H_    0.638540 0.851733 0.338926 0.205823
H16   H     H_    0.551169 0.845723 0.225043 0.252975
N6    N     N_3   0.361547 0.361219 0.137203 -0.593806
H17   H     H_    0.314862 0.419828 0.170701 0.266439
H18   H     H_    0.383742 0.310192 0.218319 0.279471
N7    N     N_3   0.790533 0.742598 0.149414 -0.534245
H19   H     H_    0.768585 0.812964 0.210273 0.262688
H20   H     H_    0.815735 0.675884 0.211177 0.265812
N8    N     N_3   0.636994 0.709085 0.738424 -0.505217
H21   H     H_    0.697052 0.707592 0.685287 0.192649
H22   H     H_    0.630462 0.801825 0.762316 0.208197
I2    I     I_    0.060008 0.124115 0.681837 -0.284583
I3    I     I_    0.234247 0.218064 0.452031 -0.355583
I4    I     I_    0.948648 0.905242 0.375510 -0.298318

loop_
_geom_bond_atom_site_label_1
_geom_bond_atom_site_label_2
_ccdc_geom_bond_type
C23   O6    A    
C30   N1    A    
Cu2   O8    S    
C35   C36   A    
C25   H3    S    
C7    C8    A    
N8    H21   S    
C26   C27   A    
C29   C30   A    
N7    H20   S    
C18   C24   A    
C36   C37   A    
C4    I2    S    
C5    C6    A    
C34   C35   A    
C15   C16   A    
Cu1   O5    S    
C18   C19   A    
N3    H12   S    
C1    O1    A    
C17   H2    S    
C32   N2    A    
C33   C35   S    
N5    H15   S    
C27   H4    S    
Cu1   O3    S    
C19   C20   A    
C8    C9    A    
Cu2   O4    S    
C15   N4    S    
C6    C38   A    
C9    I4    S    
C2    C34   A    
C31   N6    S    
Cu1   N2    S    
C33   O7    A    
C21   C22   A    
C5    C10   A    
C21   H10   S    
N8    H22   S    
Cu2   O6    S    
N7    H19   S    
Cu1   Cu2   S    
N6    H18   S    
C16   C17   A    
C25   C26   A    
C34   N3    S    
N4    H14   S    
C1    O2    A    
C37   C38   A    
C2    C38   A    
C31   C32   A    
C23   C24   S    
Cu1   O7    S    
C17   C18   A    
C36   H5    S    
C16   I1    S    
C28   N8    S    
C22   N5    S    
C12   O4    A    
C14   H1    S    
C33   O8    A    
Cu2   O2    S    
C22   C24   A    
C3    C4    A    
C25   C30   A    
C23   O5    A    
C28   C29   A    
C1    C20   S    
C32   H6    S    
C14   C19   A    
C31   N1    A    
C4    C5    A    
C13   H8    S    
C11   C12   S    
C6    C7    A    
Cu2   N1    S    
C10   I3    S    
N4    H13   S    
N6    H17   S    
C11   C13   A    
Cu1   O1    S    
C3    H7    S    
C26   N7    S    
N3    H11   S    
C12   O3    A    
C10   C11   A    
C7    C13   A    
C20   C21   A    
C3    C37   A    
N5    H16   S    
C27   C28   A    
C14   C15   A    
C2    C9    A    
C8    H9    S    
C29   N2    A    
