data_mof_unit_16877.cif
_audit_creation_date              2012-12-10T18:07:23-0500
_audit_creation_method            fapswitch 2.2
_symmetry_space_group_name_H-M    P1
_symmetry_Int_Tables_number       1
_space_group_crystal_system       triclinic
_cell_length_a                    18.343539
_cell_length_b                    18.343538
_cell_length_c                    22.134267
_cell_angle_alpha                 90.007019
_cell_angle_beta                  90.007036
_cell_angle_gamma                 89.992312
_cell_volume                      7447.85761018

loop_
_atom_site_label
_atom_site_type_symbol
_atom_type_description
_atom_site_fract_x
_atom_site_fract_y
_atom_site_fract_z
_atom_type_partial_charge
C1    C     C_R   0.000003 0.360048 0.999993 0.828758
C2    C     C_R   0.360048 0.000004 0.999998 0.828237
C3    C     C_R   0.999995 0.639952 0.000006 0.829168
C4    C     C_R   0.639953 0.999997 0.000014 0.826724
C5    C     C_R   0.500003 0.860047 0.499986 0.826724
C6    C     C_R   0.860047 0.500004 0.499993 0.829168
C7    C     C_R   0.499995 0.139952 0.500001 0.828237
C8    C     C_R   0.139952 0.499997 0.500007 0.828758
C9    C     C_1   0.000008 0.282200 0.999999 -0.003548
C10   C     C_1   0.282200 0.000012 0.000007 -0.003236
C11   C     C_1   0.999985 0.717800 0.000002 -0.004763
C12   C     C_1   0.717801 0.999989 0.999984 -0.002922
C13   C     C_1   0.500011 0.782199 0.500016 -0.002922
C14   C     C_1   0.782200 0.500015 0.499998 -0.004763
C15   C     C_1   0.499987 0.217800 0.499993 -0.003236
C16   C     C_1   0.217800 0.499992 0.500001 -0.003548
C17   C     C_R   0.999996 0.500017 0.880966 0.710615
C18   C     C_R   0.500031 0.999986 0.880966 0.704093
C19   C     C_R   0.000005 0.499995 0.119034 0.709940
C20   C     C_R   0.499993 0.000003 0.119034 0.709440
C21   C     C_R   0.499997 0.000007 0.380966 0.709440
C22   C     C_R   0.000005 0.499995 0.380966 0.709940
C23   C     C_R   0.500014 0.999969 0.619034 0.704093
C24   C     C_R   0.999983 0.500004 0.619034 0.710615
C25   C     C_R   0.068219 0.619881 0.805518 -0.169899
C26   C     C_R   0.619834 0.931457 0.805584 -0.162867
C27   C     C_R   0.931592 0.380270 0.805528 -0.170400
C28   C     C_R   0.380232 0.068217 0.805496 -0.171886
C29   C     C_R   0.068364 0.380183 0.194463 -0.171363
C30   C     C_R   0.619806 0.068304 0.194490 -0.171593
C31   C     C_R   0.931684 0.619807 0.194484 -0.171465
C32   C     C_R   0.380195 0.931670 0.194462 -0.171235
C33   C     C_R   0.568330 0.119805 0.305537 -0.171235
C34   C     C_R   0.119817 0.431636 0.305537 -0.171363
C35   C     C_R   0.431696 0.880194 0.305510 -0.171593
C36   C     C_R   0.880193 0.568316 0.305516 -0.171464
C37   C     C_R   0.568543 0.880166 0.694416 -0.162867
C38   C     C_R   0.119730 0.568408 0.694472 -0.170400
C39   C     C_R   0.431783 0.119768 0.694504 -0.171886
C40   C     C_R   0.880119 0.431781 0.694482 -0.169899
C41   C     C_R   0.123198 0.658610 0.773951 0.287547
C42   C     C_R   0.658556 0.876420 0.774043 0.344315
C43   C     C_R   0.876411 0.341711 0.774036 0.282163
C44   C     C_R   0.341596 0.123322 0.773975 0.287163
C45   C     C_R   0.123441 0.341523 0.225996 0.287366
C46   C     C_R   0.658456 0.123388 0.226022 0.287215
C47   C     C_R   0.876595 0.658457 0.226010 0.287377
C48   C     C_R   0.341554 0.876593 0.225989 0.287331
C49   C     C_R   0.623407 0.158446 0.274011 0.287331
C50   C     C_R   0.158477 0.376559 0.274004 0.287366
C51   C     C_R   0.376612 0.841544 0.273978 0.287215
C52   C     C_R   0.841543 0.623405 0.273990 0.287378
C53   C     C_R   0.623579 0.841444 0.725957 0.344317
C54   C     C_R   0.158289 0.623589 0.725964 0.282164
C55   C     C_R   0.376679 0.158404 0.726025 0.287163
C56   C     C_R   0.841390 0.376802 0.726049 0.287548
C57   C     C_R   0.139309 0.000003 0.000003 0.803477
C58   C     C_R   0.999993 0.860691 0.999997 0.800208
C59   C     C_R   0.860691 0.999991 0.999995 0.799649
C60   C     C_R   0.000002 0.139309 0.000003 0.804318
C61   C     C_R   0.639309 0.500007 0.500003 0.800208
C62   C     C_R   0.499997 0.360691 0.499997 0.803477
C63   C     C_R   0.360691 0.499998 0.499997 0.804318
C64   C     C_R   0.500008 0.639309 0.500005 0.799649
C65   C     C_R   0.053538 0.540353 0.719111 -0.040827
C66   C     C_R   0.540432 0.946342 0.719095 -0.046183
C67   C     C_R   0.946373 0.459732 0.719104 -0.041085
C68   C     C_R   0.459768 0.053521 0.719116 -0.038357
C69   C     C_R   0.053598 0.459663 0.280896 -0.040672
C70   C     C_R   0.540312 0.053587 0.280900 -0.040673
C71   C     C_R   0.946421 0.540305 0.280890 -0.040692
C72   C     C_R   0.459688 0.946420 0.280886 -0.040667
C73   C     C_R   0.553580 0.040311 0.219114 -0.040667
C74   C     C_R   0.040337 0.446402 0.219104 -0.040672
C75   C     C_R   0.446413 0.959688 0.219100 -0.040673
C76   C     C_R   0.959695 0.553578 0.219110 -0.040692
C77   C     C_R   0.553658 0.959567 0.780905 -0.046183
C78   C     C_R   0.040267 0.553627 0.780896 -0.041085
C79   C     C_R   0.446479 0.040232 0.780884 -0.038356
C80   C     C_R   0.959646 0.446462 0.780889 -0.040827
C81   C     C_R   0.999971 0.500017 0.686114 -0.087503
C82   C     C_R   0.500071 0.999934 0.686115 -0.082392
C83   C     C_R   0.000008 0.499985 0.313886 -0.087021
C84   C     C_R   0.499995 0.000008 0.313886 -0.086955
C85   C     C_R   0.499992 0.000004 0.186114 -0.086955
C86   C     C_R   0.000015 0.499992 0.186114 -0.087021
C87   C     C_R   0.500066 0.999929 0.813885 -0.082392
C88   C     C_R   0.999983 0.500029 0.813886 -0.087503
C89   C     C_1   0.000006 0.216849 0.000005 -0.022361
C90   C     C_1   0.216849 0.000010 0.000009 -0.021746
C91   C     C_1   0.999986 0.783151 0.999996 -0.025476
C92   C     C_1   0.783152 0.999986 0.999981 -0.028374
C93   C     C_1   0.500014 0.716848 0.500019 -0.028374
C94   C     C_1   0.716849 0.500014 0.500004 -0.025476
C95   C     C_1   0.499990 0.283151 0.499991 -0.021746
C96   C     C_1   0.283151 0.499994 0.499995 -0.022360
Cu1   Cu    Cu3+1 0.927460 0.500000 0.000000 1.085863
Cu2   Cu    Cu3+1 0.500000 0.072540 0.000000 1.086932
Cu3   Cu    Cu3+1 0.072540 0.500000 0.000000 1.087052
Cu4   Cu    Cu3+1 0.500000 0.927460 0.000000 1.091454
Cu5   Cu    Cu3+1 0.427460 0.000000 0.500000 1.086932
Cu6   Cu    Cu3+1 0.000000 0.572540 0.500000 1.085863
Cu7   Cu    Cu3+1 0.572540 0.000000 0.500000 1.091454
Cu8   Cu    Cu3+1 0.000000 0.427460 0.500000 1.087052
Cu9   Cu    Cu3+1 0.000000 1.000000 0.938220 1.149737
Cu10  Cu    Cu3+1 0.000000 0.000000 0.061780 1.184551
Cu11  Cu    Cu3+1 0.500000 0.500000 0.438220 1.184551
Cu12  Cu    Cu3+1 0.500000 0.500000 0.561780 1.149737
O1    O     O_R   0.938740 0.394190 0.000020 -0.557812
O2    O     O_R   0.394190 0.061260 0.000020 -0.558250
O3    O     O_R   0.061260 0.605810 0.000020 -0.557299
O4    O     O_R   0.605810 0.938740 0.000020 -0.558063
O5    O     O_R   0.938740 0.605810 0.999980 -0.558607
O6    O     O_R   0.394190 0.938740 0.999980 -0.556764
O7    O     O_R   0.061260 0.394190 0.999980 -0.557897
O8    O     O_R   0.605810 0.061260 0.999980 -0.557441
O9    O     O_R   0.438740 0.894190 0.500020 -0.557441
O10   O     O_R   0.894190 0.561260 0.500020 -0.558607
O11   O     O_R   0.561260 0.105810 0.500020 -0.556764
O12   O     O_R   0.105810 0.438740 0.500020 -0.557896
O13   O     O_R   0.438740 0.105810 0.499980 -0.558249
O14   O     O_R   0.894190 0.438740 0.499980 -0.557299
O15   O     O_R   0.561260 0.894190 0.499980 -0.558063
O16   O     O_R   0.105810 0.561260 0.499980 -0.557812
O17   O     O_R   0.938740 0.500000 0.909860 -0.572557
O18   O     O_R   0.500000 0.061260 0.909860 -0.571821
O19   O     O_R   0.061260 0.500000 0.909860 -0.571820
O20   O     O_R   0.500000 0.938740 0.909860 -0.569947
O21   O     O_R   0.938740 0.500000 0.090140 -0.572092
O22   O     O_R   0.500000 0.938740 0.090140 -0.572085
O23   O     O_R   0.061260 0.500000 0.090140 -0.572124
O24   O     O_R   0.500000 0.061260 0.090140 -0.572307
O25   O     O_R   0.438740 0.000000 0.409860 -0.572306
O26   O     O_R   0.000000 0.561260 0.409860 -0.572092
O27   O     O_R   0.561260 0.000000 0.409860 -0.572085
O28   O     O_R   0.000000 0.438740 0.409860 -0.572124
O29   O     O_R   0.438740 0.000000 0.590140 -0.571821
O30   O     O_R   0.000000 0.438740 0.590140 -0.571820
O31   O     O_R   0.561260 0.000000 0.590140 -0.569947
O32   O     O_R   0.000000 0.561260 0.590140 -0.572557
O33   O     O_R   0.105780 0.999970 0.947820 -0.544887
O34   O     O_R   0.999970 0.894220 0.947820 -0.560384
O35   O     O_R   0.894220 0.000030 0.947820 -0.570695
O36   O     O_R   0.000030 0.105780 0.947820 -0.544640
O37   O     O_R   0.105780 0.000030 0.052180 -0.545685
O38   O     O_R   0.999970 0.105780 0.052180 -0.545615
O39   O     O_R   0.894220 0.999970 0.052180 -0.542134
O40   O     O_R   0.000030 0.894220 0.052180 -0.543539
O41   O     O_R   0.605780 0.499970 0.447820 -0.543539
O42   O     O_R   0.499970 0.394220 0.447820 -0.545685
O43   O     O_R   0.394220 0.500030 0.447820 -0.545615
O44   O     O_R   0.500030 0.605780 0.447820 -0.542134
O45   O     O_R   0.605780 0.500030 0.552180 -0.560384
O46   O     O_R   0.499970 0.605780 0.552180 -0.570695
O47   O     O_R   0.394220 0.499970 0.552180 -0.544640
O48   O     O_R   0.500030 0.394220 0.552180 -0.544887
S1    S     S_3+6 0.857646 0.247544 0.788467 0.127368
O49   O     O_2   0.805744 0.241193 0.840734 -0.158565
O50   O     O_2   0.824284 0.211496 0.734124 -0.207991
O51   O     O_3   0.935008 0.202875 0.805756 -0.468092
H1    H     H_    0.967547 0.210905 0.770669 0.348988
S2    S     S_3+6 0.247363 0.141895 0.788317 0.120195
O52   O     O_2   0.240815 0.193806 0.840572 -0.161541
O53   O     O_2   0.211312 0.175157 0.733936 -0.219924
O54   O     O_3   0.202859 0.064446 0.805574 -0.469685
H2    H     H_    0.211000 0.031913 0.770491 0.349320
S3    S     S_3+6 0.141577 0.752880 0.788295 0.119712
O55   O     O_2   0.193608 0.759535 0.840458 -0.158839
O56   O     O_2   0.174607 0.789009 0.733864 -0.219063
O57   O     O_3   0.064063 0.797212 0.805711 -0.478840
H3    H     H_    0.031462 0.789024 0.770680 0.344748
S4    S     S_3+6 0.752645 0.857635 0.788787 0.107295
O58   O     O_2   0.758699 0.805351 0.840855 -0.206622
O59   O     O_2   0.788779 0.824945 0.734212 -0.217514
O60   O     O_3   0.796617 0.935357 0.806263 -0.494048
H4    H     H_    0.845128 0.919648 0.821012 0.382302
S5    S     S_3+6 0.858002 0.752677 0.211624 0.119772
O61   O     O_2   0.806041 0.759177 0.159399 -0.161932
O62   O     O_2   0.824790 0.788773 0.266006 -0.219975
O63   O     O_3   0.935432 0.797172 0.194289 -0.469998
H5    H     H_    0.967996 0.789067 0.229357 0.349164
S6    S     S_3+6 0.247335 0.858011 0.211590 0.119948
O64   O     O_2   0.240837 0.806033 0.159376 -0.161240
O65   O     O_2   0.211245 0.824826 0.265974 -0.220162
O66   O     O_3   0.202833 0.935443 0.194227 -0.470033
H6    H     H_    0.210935 0.968019 0.229289 0.349115
S7    S     S_3+6 0.142040 0.247308 0.211577 0.119784
O67   O     O_2   0.194034 0.240826 0.159381 -0.161719
O68   O     O_2   0.175217 0.211190 0.265962 -0.220123
O69   O     O_3   0.064620 0.202822 0.194172 -0.470104
H7    H     H_    0.032036 0.210909 0.229224 0.349159
S8    S     S_3+6 0.752672 0.141965 0.211634 0.120027
O70   O     O_2   0.759162 0.193918 0.159414 -0.161491
O71   O     O_2   0.788770 0.175178 0.266017 -0.219950
O72   O     O_3   0.797176 0.064526 0.194288 -0.469850
H8    H     H_    0.789076 0.031966 0.229351 0.349163
S9    S     S_3+6 0.358035 0.747328 0.288366 0.120026
O73   O     O_2   0.306081 0.740838 0.340586 -0.161491
O74   O     O_2   0.324822 0.711230 0.233983 -0.219951
O75   O     O_3   0.435474 0.702824 0.305713 -0.469850
H9    H     H_    0.468034 0.710923 0.270649 0.349163
S10   S     S_3+6 0.747323 0.641998 0.288376 0.119772
O76   O     O_2   0.740823 0.693959 0.340601 -0.161932
O77   O     O_2   0.711227 0.675210 0.233994 -0.219975
O78   O     O_3   0.702828 0.564568 0.305711 -0.469998
H10   H     H_    0.710932 0.532004 0.270643 0.349164
S11   S     S_3+6 0.641989 0.252665 0.288410 0.119948
O79   O     O_2   0.693967 0.259163 0.340624 -0.161240
O80   O     O_2   0.675174 0.288755 0.234026 -0.220162
O81   O     O_3   0.564557 0.297166 0.305773 -0.470033
H11   H     H_    0.531981 0.289065 0.270711 0.349114
S12   S     S_3+6 0.252692 0.357959 0.288423 0.119784
O82   O     O_2   0.259174 0.305966 0.340619 -0.161719
O83   O     O_2   0.288810 0.324782 0.234038 -0.220123
O84   O     O_3   0.297178 0.435379 0.305828 -0.470104
H12   H     H_    0.289091 0.467964 0.270776 0.349159
S13   S     S_3+6 0.358105 0.252636 0.711683 0.120194
O85   O     O_2   0.306194 0.259185 0.659428 -0.161541
O86   O     O_2   0.324843 0.288688 0.766064 -0.219924
O87   O     O_3   0.435555 0.297141 0.694426 -0.469685
H13   H     H_    0.468087 0.288999 0.729509 0.349320
S14   S     S_3+6 0.747120 0.358423 0.711705 0.119712
O88   O     O_2   0.740465 0.306391 0.659542 -0.158839
O89   O     O_2   0.710991 0.325392 0.766136 -0.219063
O90   O     O_3   0.702788 0.435936 0.694289 -0.478840
H14   H     H_    0.710976 0.468538 0.729320 0.344748
S15   S     S_3+6 0.642365 0.747355 0.711213 0.107294
O91   O     O_2   0.694649 0.741301 0.659145 -0.206622
O92   O     O_2   0.675055 0.711221 0.765788 -0.217514
O93   O     O_3   0.564642 0.703383 0.693737 -0.494048
H15   H     H_    0.580351 0.654871 0.678988 0.382302
S16   S     S_3+6 0.252456 0.642354 0.711533 0.127368
O94   O     O_2   0.258807 0.694256 0.659266 -0.158565
O95   O     O_2   0.288504 0.675716 0.765876 -0.207991
O96   O     O_3   0.297125 0.564991 0.694244 -0.468091
H16   H     H_    0.289095 0.532452 0.729331 0.348988
C97   C     C_2   0.036358 0.652269 0.860165 0.473677
H17   H     H_    0.979293 0.643974 0.870989 0.036711
O97   O     O_2   0.074418 0.688252 0.893999 -0.482861
C98   C     C_2   0.652118 0.963120 0.860349 0.516302
H18   H     H_    0.644073 0.020231 0.871159 0.037241
O98   O     O_2   0.687691 0.924833 0.894308 -0.499369
C99   C     C_2   0.963568 0.347783 0.860096 0.476103
H19   H     H_    0.020666 0.356030 0.870841 0.039465
O99   O     O_2   0.925578 0.311794 0.893963 -0.483593
C100  C     C_2   0.347762 0.036236 0.860059 0.477301
H20   H     H_    0.356087 0.979156 0.870826 0.041674
O100  O     O_2   0.311691 0.074206 0.893896 -0.483684
C101  C     C_2   0.036483 0.347766 0.139831 0.477039
H21   H     H_    0.979397 0.356017 0.129036 0.039113
O101  O     O_2   0.074544 0.311819 0.105973 -0.483425
C102  C     C_2   0.652243 0.036365 0.139890 0.477251
H22   H     H_    0.643959 0.979283 0.129106 0.039206
O102  O     O_2   0.688242 0.074371 0.106043 -0.482680
C103  C     C_2   0.963605 0.652242 0.139885 0.477255
H23   H     H_    0.020689 0.643961 0.129109 0.039365
O103  O     O_2   0.925582 0.688236 0.106032 -0.483553
C104  C     C_2   0.347758 0.963566 0.139847 0.476851
H24   H     H_    0.356014 0.020648 0.129061 0.039011
O104  O     O_2   0.311790 0.925522 0.105991 -0.483228
C105  C     C_2   0.536433 0.152242 0.360153 0.476851
H25   H     H_    0.479352 0.143986 0.370939 0.039011
O105  O     O_2   0.574478 0.188210 0.394009 -0.483228
C106  C     C_2   0.152234 0.463517 0.360169 0.477039
H26   H     H_    0.143983 0.520602 0.370964 0.039113
O106  O     O_2   0.188181 0.425456 0.394027 -0.483425
C107  C     C_2   0.463635 0.847757 0.360110 0.477251
H27   H     H_    0.520717 0.856041 0.370894 0.039206
O107  O     O_2   0.425628 0.811758 0.393957 -0.482680
C108  C     C_2   0.847758 0.536395 0.360115 0.477255
H28   H     H_    0.856039 0.479311 0.370891 0.039365
O108  O     O_2   0.811764 0.574418 0.393968 -0.483553
C109  C     C_2   0.536879 0.847881 0.639651 0.516302
H29   H     H_    0.479768 0.855927 0.628841 0.037241
O109  O     O_2   0.575167 0.812308 0.605692 -0.499368
C110  C     C_2   0.152217 0.536432 0.639904 0.476103
H30   H     H_    0.143970 0.479334 0.629159 0.039465
O110  O     O_2   0.188206 0.574421 0.606037 -0.483593
C111  C     C_2   0.463764 0.152238 0.639941 0.477302
H31   H     H_    0.520843 0.143913 0.629174 0.041674
O111  O     O_2   0.425794 0.188309 0.606104 -0.483684
C112  C     C_2   0.847731 0.463641 0.639835 0.473677
H32   H     H_    0.856026 0.520707 0.629010 0.036711
O112  O     O_2   0.811748 0.425581 0.606001 -0.482861

loop_
_geom_bond_atom_site_label_1
_geom_bond_atom_site_label_2
_ccdc_geom_bond_type
C19   O21   A    
C56   S14   S    
C57   O33   A    
C103  O103  D    
O54   H2    S    
Cu2   O2    S    
C23   C82   S    
C64   O46   A    
C17   C88   S    
C40   C56   A    
C39   C68   A    
C30   C46   A    
C30   C102  S    
C62   O42   A    
O84   H12   S    
C19   C86   S    
Cu7   O15   S    
C32   C75   A    
C79   C87   A    
O66   H6    S    
Cu4   O4    S    
S3    O56   D    
O78   H10   S    
C24   O32   A    
S13   O87   S    
Cu5   O9    S    
C46   C49   A    
C40   C112  S    
C112  H32   S    
S1    O49   D    
Cu10  O37   S    
C44   S2    S    
C22   O26   A    
Cu7   O11   S    
C15   C95   T    
C23   O31   A    
C31   C103  S    
C20   O24   A    
C64   C93   S    
C57   O37   A    
C42   C53   A    
Cu3   O7    S    
C71   C76   A    
Cu4   O22   S    
Cu8   O14   S    
O57   H3    S    
S9    O73   D    
Cu8   O12   S    
C33   C49   A    
C99   H19   S    
C33   C105  S    
Cu10  O40   S    
C6    O10   A    
C54   S16   S    
S9    O74   D    
C28   C79   A    
Cu7   O27   S    
S6    O64   D    
S16   O94   D    
S7    O69   S    
C51   S9    S    
C18   O20   A    
C78   C88   A    
Cu11  O42   S    
Cu2   O8    S    
C75   C85   A    
C48   C51   A    
C39   C55   A    
Cu12  O45   S    
C49   S11   S    
C3    O3    A    
O75   H9    S    
C99   O99   D    
S10   O78   S    
Cu12  O48   S    
S11   O81   S    
C111  H31   S    
C38   C65   A    
O81   H11   S    
C4    C12   S    
C70   C84   A    
C58   C91   S    
C71   C83   A    
C36   C52   A    
S4    O60   S    
Cu11  O43   S    
Cu1   O21   S    
C68   C79   A    
C7    C15   S    
C4    O4    A    
C59   O35   A    
C60   O36   A    
Cu5   Cu7   S    
C31   C47   A    
C97   H17   S    
C37   C66   A    
C37   C53   A    
C32   C48   A    
C47   S5    S    
O93   H15   S    
C60   O38   A    
C7    O13   A    
C72   C75   A    
Cu6   O16   S    
Cu2   O24   S    
C21   O25   A    
O87   H13   S    
Cu1   Cu3   S    
S4    O59   D    
O90   H14   S    
S3    O57   S    
S2    O53   D    
C37   C109  S    
C19   O23   A    
C77   C87   A    
C100  O100  D    
C16   C96   T    
C26   C77   A    
C101  O101  D    
C57   C90   S    
C18   O18   A    
S11   O79   D    
C62   O48   A    
S8    O72   S    
C7    O11   A    
C53   S15   S    
Cu4   O6    S    
Cu1   O17   S    
C27   C80   A    
S10   O76   D    
C25   C41   A    
Cu9   O34   S    
C105  O105  D    
C30   C73   A    
C4    O8    A    
C61   C94   S    
C45   S7    S    
C1    O1    A    
C29   C74   A    
S14   O90   S    
C24   O30   A    
S13   O85   D    
C60   C89   S    
C63   C96   S    
C28   C44   A    
S16   O96   S    
Cu5   O13   S    
Cu10  O39   S    
C25   C78   A    
C13   C93   T    
S6    O66   S    
C5    O9    A    
S1    O50   D    
S9    O75   S    
C104  O104  D    
C24   C81   S    
Cu6   O26   S    
O69   H7    S    
C69   C83   A    
C11   C91   T    
C66   C82   A    
S2    O54   S    
Cu1   O1    S    
C58   O34   A    
C65   C81   A    
S15   O91   D    
C38   C54   A    
C21   C84   S    
C25   C97   S    
C58   O40   A    
O96   H16   S    
S5    O63   S    
Cu3   O3    S    
C20   C85   S    
C70   C73   A    
C98   O98   D    
C109  H29   S    
C101  H21   S    
C35   C51   A    
C1    C9    S    
C69   C74   A    
C28   C100  S    
C74   C86   A    
Cu6   Cu8   S    
C34   C69   A    
C63   O43   A    
C72   C84   A    
S10   O77   D    
C33   C70   A    
C59   O39   A    
Cu11  O44   S    
Cu2   O18   S    
C8    O16   A    
S15   O92   D    
C64   O44   A    
C35   C72   A    
Cu6   O32   S    
S1    O51   S    
Cu2   Cu4   S    
C97   O97   D    
C3    O5    A    
Cu7   O31   S    
C108  O108  D    
C6    O14   A    
Cu11  Cu12  S    
C9    C89   T    
C103  H23   S    
C2    C10   S    
C106  O106  D    
C76   C86   A    
S3    O55   D    
S4    O58   D    
C8    O12   A    
C102  O102  D    
S2    O52   D    
C73   C85   A    
C38   C110  S    
C61   O45   A    
C66   C77   A    
C100  H20   S    
S14   O89   D    
Cu9   O36   S    
Cu5   O29   S    
C65   C78   A    
Cu8   O28   S    
S16   O95   D    
Cu4   O20   S    
S12   O84   S    
C5    C13   S    
C12   C92   T    
C40   C67   A    
C17   O19   A    
C67   C80   A    
C42   S4    S    
C110  O110  D    
C43   S1    S    
Cu6   O10   S    
Cu9   O35   S    
C34   C50   A    
Cu3   O19   S    
C107  H27   S    
C36   C71   A    
C67   C81   A    
C47   C52   A    
Cu5   O25   S    
S13   O86   D    
C14   C94   T    
Cu9   Cu10  S    
C5    O15   A    
C112  O112  D    
C18   C87   S    
Cu10  O38   S    
C26   C98   S    
C34   C106  S    
C29   C101  S    
C68   C82   A    
S8    O70   D    
Cu8   O30   S    
C32   C104  S    
C104  H24   S    
C106  H26   S    
C63   O47   A    
C6    C14   S    
C80   C88   A    
O60   H4    S    
O51   H1    S    
C22   C83   S    
C48   S6    S    
C110  H30   S    
C2    O6    A    
C44   C55   A    
C17   O17   A    
C31   C76   A    
C105  H25   S    
Cu12  O47   S    
C61   O41   A    
C45   C50   A    
C23   O29   A    
C41   S3    S    
C98   H18   S    
C109  O109  D    
S5    O62   D    
C27   C99   S    
C52   S10   S    
C59   C92   S    
C111  O111  D    
C26   C42   A    
S14   O88   D    
Cu9   O33   S    
S6    O65   D    
C41   C54   A    
S7    O68   D    
C3    C11   S    
C27   C43   A    
S12   O83   D    
C50   S12   S    
O72   H8    S    
Cu11  O41   S    
C39   C111  S    
C43   C56   A    
C46   S8    S    
S15   O93   S    
Cu12  O46   S    
S12   O82   D    
C10   C90   T    
C8    C16   S    
S5    O61   D    
C22   O28   A    
S11   O80   D    
C36   C108  S    
C108  H28   S    
C55   S13   S    
S7    O67   D    
C1    O7    A    
Cu3   O23   S    
C35   C107  S    
C62   C95   S    
Cu1   O5    S    
C21   O27   A    
C29   C45   A    
O63   H5    S    
C107  O107  D    
S8    O71   D    
C102  H22   S    
C20   O22   A    
C2    O2    A    
