data_mof_unit_54292.cif
_audit_creation_date              2012-12-10T18:42:34-0500
_audit_creation_method            fapswitch 2.2
_symmetry_space_group_name_H-M    P1
_symmetry_Int_Tables_number       1
_space_group_crystal_system       triclinic
_cell_length_a                    8.579167
_cell_length_b                    10.723137
_cell_length_c                    9.843021
_cell_angle_alpha                 89.742327
_cell_angle_beta                  98.639376
_cell_angle_gamma                 90.251177
_cell_volume                      895.224577669

loop_
_atom_site_label
_atom_site_type_symbol
_atom_type_description
_atom_site_fract_x
_atom_site_fract_y
_atom_site_fract_z
_atom_type_partial_charge
C1    C     C_R   0.507349 0.259810 0.501019 0.980826
C2    C     C_R   0.572253 0.063769 0.629207 0.340160
C3    C     C_R   0.539680 0.872015 0.502730 -0.497287
C4    C     C_R   0.532518 0.127858 0.503375 -0.494947
C5    C     C_R   0.631238 0.535195 0.088718 -0.070789
C6    C     C_R   0.369724 0.462344 0.911350 -0.038370
C7    C     C_R   0.630833 0.536147 0.944965 -0.039815
C8    C     C_R   0.369594 0.462775 0.055082 -0.010957
C9    C     C_3   0.707388 0.848752 0.245563 0.164384
C10   C     C_3   0.804897 0.963331 0.215161 -0.366715
C11   C     C_3   0.968743 0.925505 0.187914 -0.938421
C12   C     C_R   0.511950 0.739942 0.501089 0.988546
C13   C     C_3   0.762043 0.172521 0.770742 0.155446
C14   C     C_3   0.883983 0.071476 0.819416 -0.383401
C15   C     C_3   0.048215 0.127608 0.859516 -0.909462
C16   C     C_R   0.201085 0.499949 0.464069 0.961098
C17   C     C_R   0.798911 0.499885 0.535940 0.920653
C18   C     C_2   0.035952 0.499962 0.444716 -0.376729
C19   C     C_2   0.964009 0.499562 0.555322 -0.375858
C20   C     C_R   0.522852 0.064268 0.378207 0.511505
C21   C     C_R   0.564649 0.935426 0.628577 0.519297
C22   C     C_R   0.540965 0.937434 0.378404 0.337245
F1    F     F_    0.498239 0.123676 0.254478 -0.614390
F2    F     F_    0.584563 0.874114 0.751137 -0.621107
H1    H     H_    0.974103 0.500382 0.339803 0.169973
H2    H     H_    0.819137 0.027741 0.304260 0.210440
H3    H     H_    0.033648 0.877080 0.279166 0.267994
H4    H     H_    0.036431 0.009993 0.166430 0.289704
H5    H     H_    0.959595 0.862647 0.097636 0.269028
H6    H     H_    0.770061 0.246544 0.850176 0.168587
H7    H     H_    0.791339 0.218172 0.675685 0.098313
H8    H     H_    0.849115 0.021705 0.909217 0.267560
H9    H     H_    0.888125 0.002745 0.735908 0.218084
H10   H     H_    0.085849 0.177194 0.770459 0.262731
H11   H     H_    0.133895 0.052132 0.892792 0.300411
H12   H     H_    0.025840 0.499075 0.660247 0.171579
H13   H     H_    0.048822 0.194033 0.945897 0.257615
H14   H     H_    0.736723 0.562734 0.156285 0.107187
H15   H     H_    0.265589 0.431600 0.843923 0.121018
H16   H     H_    0.735472 0.565495 0.904327 0.133262
H17   H     H_    0.265288 0.432704 0.095791 0.124827
H18   H     H_    0.705432 0.783058 0.158763 0.169020
H19   H     H_    0.765761 0.799272 0.339385 0.102343
H20   H     H_    0.742691 0.013638 0.124082 0.280571
N1    N     N_R   0.499960 0.499970 0.857200 -0.078547
N2    N     N_R   0.500040 0.500030 0.142800 -0.072870
O1    O     O_R   0.499990 0.316750 0.614620 -0.596308
O2    O     O_3   0.606269 0.123997 0.754527 -0.556233
O3    O     O_R   0.500010 0.683250 0.385380 -0.594133
O4    O     O_R   0.499990 0.316780 0.385290 -0.548920
O5    O     O_R   0.500010 0.683220 0.614710 -0.547904
O6    O     O_R   0.271750 0.499990 0.587840 -0.627641
O7    O     O_R   0.728250 0.500010 0.412160 -0.635830
O8    O     O_R   0.271750 0.500010 0.358510 -0.637019
O9    O     O_R   0.728250 0.499990 0.641490 -0.652010
O10   O     O_3   0.548489 0.879551 0.254075 -0.549576
Zn1   Zn    Zn3+2 0.500000 0.499980 0.653120 0.981325
Zn2   Zn    Zn3+2 0.500000 0.500020 0.346880 0.984503

loop_
_geom_bond_atom_site_label_1
_geom_bond_atom_site_label_2
_ccdc_geom_bond_type
C13   O2    S    
C2    C4    A    
C7    H16   S    
O5    Zn1   S    
C6    N1    A    
O1    Zn1   S    
C9    C10   S    
C17   O9    A    
C15   H10   S    
C22   O10   S    
C20   F1    S    
C11   H3    S    
O7    Zn2   S    
C1    C4    S    
C6    H15   S    
C10   H2    S    
C14   H9    S    
C12   O3    A    
C9    O10   S    
C13   C14   S    
N2    Zn2   S    
N1    Zn1   S    
C9    H18   S    
C18   H1    S    
C11   H4    S    
C2    C21   A    
C7    N1    A    
C15   H11   S    
C17   C19   S    
C20   C22   A    
C16   O8    A    
C19   H12   S    
O9    Zn1   S    
O8    Zn2   S    
C8    N2    A    
C9    H19   S    
C3    C21   A    
C10   C11   S    
C10   H20   S    
O6    Zn1   S    
C4    C20   A    
C17   O7    A    
C13   H6    S    
C12   O5    A    
C8    H17   S    
C11   H5    S    
C16   C18   S    
C18   C19   D    
C1    O4    A    
C21   F2    S    
C5    C7    A    
C14   C15   S    
C15   H13   S    
C3    C22   A    
C6    C8    A    
C3    C12   S    
C2    O2    S    
C5    H14   S    
C13   H7    S    
C1    O1    A    
O3    Zn2   S    
C16   O6    A    
C14   H8    S    
C5    N2    A    
O4    Zn2   S    
