data_mof_unit_17118.cif
_audit_creation_date              2012-12-11T15:43:45-0500
_audit_creation_method            fapswitch 2.2
_symmetry_space_group_name_H-M    P1
_symmetry_Int_Tables_number       1
_space_group_crystal_system       triclinic
_cell_length_a                    14.583896
_cell_length_b                    16.180733
_cell_length_c                    6.90881
_cell_angle_alpha                 89.999864
_cell_angle_beta                  99.231669
_cell_angle_gamma                 90.000119
_cell_volume                      1609.21161835

loop_
_atom_site_label
_atom_site_type_symbol
_atom_type_description
_atom_site_fract_x
_atom_site_fract_y
_atom_site_fract_z
_atom_type_partial_charge
O1    O     O_R   0.831700 0.662810 0.581550 -0.536718
O2    O     O_R   0.168300 0.337190 0.418450 -0.536717
O3    O     O_R   0.168300 0.162810 0.418450 -0.536715
O4    O     O_R   0.831700 0.837190 0.581550 -0.536715
O5    O     O_R   0.842890 0.834390 0.255500 -0.544507
O6    O     O_R   0.157110 0.165610 0.744500 -0.544507
O7    O     O_R   0.157110 0.334390 0.744500 -0.544507
O8    O     O_R   0.842890 0.665610 0.255500 -0.544507
O9    O     O_R   0.661690 0.835580 0.024130 -0.536506
O10   O     O_R   0.338310 0.164420 0.975870 -0.536506
O11   O     O_R   0.338310 0.335580 0.975870 -0.536505
O12   O     O_R   0.661690 0.664420 0.024130 -0.536505
C1    C     C_R   0.863860 0.865810 0.431787 0.707075
C2    C     C_R   0.136140 0.134190 0.568213 0.707075
C3    C     C_R   0.136139 0.365810 0.568212 0.707075
C4    C     C_R   0.863861 0.634190 0.431788 0.707076
C5    C     C_R   0.067673 0.064542 0.531125 -0.100700
C6    C     C_R   0.932326 0.935458 0.468873 -0.100701
C7    C     C_R   0.932328 0.564543 0.468878 -0.100698
C8    C     C_R   0.067673 0.435457 0.531123 -0.100699
H1    H     H_    0.992401 0.906915 0.212663 0.131842
H2    H     H_    0.007598 0.093085 0.787336 0.131842
H3    H     H_    0.007620 0.406932 0.787374 0.131842
H4    H     H_    0.992383 0.593070 0.212629 0.131843
C9    C     C_R   0.995124 0.947774 0.337745 -0.198690
C10   C     C_R   0.004875 0.052226 0.662253 -0.198691
C11   C     C_R   0.004888 0.447784 0.662275 -0.198696
C12   C     C_R   0.995114 0.552218 0.337727 -0.198698
O13   O     O_3   0.687240 0.750000 0.366320 -0.368991
O14   O     O_3   0.312760 0.250000 0.633680 -0.368991
V1    V     V_3+5 0.757720 0.750000 0.115230 1.389615
V2    V     V_3+5 0.242280 0.250000 0.884770 1.389615
O15   O     O_R   0.650500 0.664000 0.690740 -0.545521
O16   O     O_R   0.349500 0.336000 0.309260 -0.545522
O17   O     O_R   0.349500 0.164000 0.309260 -0.545521
O18   O     O_R   0.650500 0.836000 0.690740 -0.545521
C13   C     C_R   0.628302 0.635780 0.853208 0.760760
C14   C     C_R   0.371698 0.364220 0.146792 0.760759
C15   C     C_R   0.371698 0.135780 0.146792 0.760760
C16   C     C_R   0.628302 0.864220 0.853208 0.760761
C17   C     C_R   0.062642 0.010658 0.366125 0.166128
C18   C     C_R   0.937356 0.989343 0.633872 0.166127
C19   C     C_R   0.937372 0.510668 0.633899 0.166120
C20   C     C_R   0.062629 0.489332 0.366101 0.166118
V3    V     V_3+5 0.735670 0.750000 0.607790 1.395383
V4    V     V_3+5 0.264330 0.250000 0.392210 1.395384
O19   O     O_3   0.806150 0.750000 0.906560 -0.374829
O20   O     O_3   0.193850 0.250000 0.093440 -0.374828
H5    H     H_    0.435485 0.056978 0.850173 0.152898
H6    H     H_    0.564515 0.943022 0.149827 0.152897
H7    H     H_    0.564515 0.556978 0.149827 0.152898
H8    H     H_    0.435485 0.443022 0.850172 0.152898
C21   C     C_2   0.559354 0.932173 0.843064 -0.345413
C22   C     C_2   0.440646 0.067826 0.156936 -0.345413
C23   C     C_2   0.440646 0.432173 0.156936 -0.345415
C24   C     C_2   0.559354 0.567826 0.843064 -0.345414
C25   C     C_2   0.534226 0.965835 0.005718 -0.125198
C26   C     C_2   0.465774 0.034165 0.994281 -0.125198
C27   C     C_2   0.465774 0.465835 0.994281 -0.125198
C28   C     C_2   0.534226 0.534165 0.005719 -0.125199
H9    H     H_    0.470907 0.044474 0.300540 0.125632
H10   H     H_    0.529092 0.955526 0.699459 0.125632
H11   H     H_    0.529093 0.544474 0.699460 0.125633
H12   H     H_    0.470907 0.455526 0.300540 0.125633
C29   C     C_3   0.129170 0.016485 0.220055 -0.736881
H13   H     H_    0.202004 0.015162 0.297603 0.195627
H14   H     H_    0.120790 0.964097 0.114747 0.189748
H15   H     H_    0.116123 0.074014 0.132555 0.219830
C30   C     C_3   0.870826 0.983518 0.779938 -0.736872
H16   H     H_    0.797992 0.984840 0.702383 0.195625
H17   H     H_    0.883873 0.925989 0.867442 0.219828
H18   H     H_    0.879203 0.035909 0.885244 0.189747
C31   C     C_3   0.870859 0.516506 0.780000 -0.736867
H19   H     H_    0.798020 0.515169 0.702479 0.195630
H20   H     H_    0.879256 0.464130 0.885346 0.189748
H21   H     H_    0.883907 0.574046 0.867460 0.219829
C32   C     C_3   0.129139 0.483491 0.219993 -0.736858
H22   H     H_    0.201980 0.484820 0.297506 0.195632
H23   H     H_    0.116081 0.425953 0.132525 0.219822
H24   H     H_    0.120744 0.535869 0.114656 0.189748

loop_
_geom_bond_atom_site_label_1
_geom_bond_atom_site_label_2
_ccdc_geom_bond_type
C19   C31   S    
O6    V2    S    
C23   C27   D    
C30   H18   S    
O15   V3    S    
C31   H19   S    
C32   H22   S    
O2    V4    S    
C1    C6    S    
C5    C10   A    
C20   C32   S    
O8    V1    S    
C6    C18   A    
C15   C22   S    
O4    C1    A    
V3    O19   S    
O12   C13   A    
C30   H17   S    
C13   C24   S    
C14   C23   S    
C29   H14   S    
O16   V4    S    
H3    C11   S    
O5    C1    A    
O7    C3    A    
C27   C28   S    
O8    C4    A    
V1    O19   S    
C31   H20   S    
C2    C5    S    
C6    C9    A    
C8    C20   A    
C7    C19   A    
O4    V3    S    
C32   H23   S    
C3    C8    S    
V4    O20   S    
O18   C16   A    
C9    C17   A    
C21   C25   D    
C17   C29   S    
C12   C20   A    
C18   C30   S    
O15   C13   A    
H5    C26   S    
C24   C28   D    
O13   V3    S    
O10   C15   A    
O11   C14   A    
O17   C15   A    
O2    C3    A    
H8    C27   S    
O10   V2    S    
O6    C2    A    
C21   H10   S    
C29   H15   S    
C23   H12   S    
C24   H11   S    
O18   V3    S    
O1    C4    A    
C7    C12   A    
O3    C2    A    
C22   H9    S    
O11   V2    S    
C29   H13   S    
O12   V1    S    
C31   H21   S    
C10   C18   A    
C22   C26   D    
C32   H24   S    
H1    C9    S    
O7    V2    S    
O16   C14   A    
H6    C25   S    
O14   V4    S    
H4    C12   S    
C8    C11   A    
O3    V4    S    
O13   V1    S    
O14   V2    S    
O1    V3    S    
C25   C26   S    
V2    O20   S    
C4    C7    S    
O9    C16   A    
C30   H16   S    
C5    C17   A    
O9    V1    S    
C11   C19   A    
C16   C21   S    
H2    C10   S    
H7    C28   S    
O17   V4    S    
O5    V1    S    
