data_mof_unit_19200.cif
_audit_creation_date              2013-03-05T15:44:35-0500
_audit_creation_method            fapswitch 2.2
_symmetry_space_group_name_H-M    P1
_symmetry_Int_Tables_number       1
_space_group_crystal_system       triclinic
_cell_length_a                    27.803291
_cell_length_b                    10.915225
_cell_length_c                    9.714913
_cell_angle_alpha                 90.860409
_cell_angle_beta                  89.91974
_cell_angle_gamma                 90.642486
_cell_volume                      2947.75379826

loop_
_atom_site_label
_atom_site_type_symbol
_atom_site_description
_atom_site_fract_x
_atom_site_fract_y
_atom_site_fract_z
_atom_type_partial_charge
O1    O     O_R   0.500010 0.321960 0.617040 -0.550303
O2    O     O_R   0.499990 0.321920 0.382900 -0.542980
C1    C     C_R   0.500001 0.265159 0.498691 0.888381
O3    O     O_R   0.430270 0.500040 0.617060 -0.557542
O4    O     O_R   0.430260 0.500000 0.382910 -0.555667
C2    C     C_R   0.407687 0.499936 0.499830 0.817916
Cu1   Cu    Cu3+1 0.500010 0.500020 0.638630 1.014964
Cu2   Cu    Cu3+1 0.499990 0.499980 0.361370 0.983869
O5    O     O_R   0.500010 0.678080 0.617100 -0.627805
O6    O     O_R   0.499990 0.678040 0.382960 -0.591088
O7    O     O_R   0.569740 0.500000 0.617090 -0.539133
O8    O     O_R   0.569730 0.499960 0.382940 -0.533559
C3    C     C_R   0.500380 0.734759 0.501026 0.840362
C4    C     C_R   0.592500 0.498331 0.500107 0.862498
C5    C     C_R   0.178732 0.379476 0.463819 0.580930
O9    O     O_2   0.204386 0.280885 0.424173 -0.506213
N1    N     N_R   0.202513 0.486176 0.497263 -0.456158
C6    C     C_R   0.178117 0.590548 0.530075 0.536140
C7    C     C_R   0.278986 0.564950 0.404922 -0.195306
C8    C     C_R   0.329279 0.571962 0.407172 0.373627
C9    C     C_R   0.330038 0.420731 0.588489 -0.306743
C10   C     C_R   0.279936 0.416985 0.588402 -0.128173
C11   C     C_R   0.254183 0.489122 0.496666 0.298805
C12   C     C_R   0.102230 0.481660 0.496363 -0.115459
C13   C     C_R   0.127890 0.373488 0.467097 -0.210265
C14   C     C_R   0.102268 0.263791 0.438295 0.483639
C15   C     C_R   0.127756 0.590810 0.527901 0.032936
C16   C     C_R   0.355011 0.498177 0.498730 -0.117121
H1    H     H_    0.349389 0.361437 0.656808 0.187868
H2    H     H_    0.261079 0.357627 0.659235 0.148910
C17   C     C_R   0.645552 0.491837 0.501269 -0.163839
C18   C     C_R   0.974700 0.368242 0.486487 0.063741
C19   C     C_R   0.975158 0.593050 0.511236 0.040078
C20   C     C_R   0.949659 0.480217 0.500283 0.084581
C21   C     C_R   0.948125 0.257796 0.498902 -0.219067
C22   C     C_R   0.898101 0.257305 0.504341 -0.155185
C23   C     C_R   0.872861 0.367416 0.503514 -0.024604
C24   C     C_R   0.898611 0.479207 0.504795 -0.052525
C25   C     C_R   0.873279 0.590008 0.511319 -0.023941
C26   C     C_R   0.822852 0.587177 0.513719 0.543333
N2    N     N_R   0.798339 0.477639 0.507476 -0.441613
C27   C     C_R   0.822313 0.368639 0.503495 0.553341
C28   C     C_R   0.719670 0.422784 0.607390 -0.217930
C29   C     C_R   0.669137 0.426882 0.606042 0.309175
C30   C     C_R   0.672995 0.550893 0.398869 0.362672
C31   C     C_R   0.723083 0.538566 0.397512 -0.210253
C32   C     C_R   0.746622 0.478195 0.503369 0.257979
O10   O     O_2   0.797392 0.261902 0.497407 -0.538555
C33   C     C_R   0.025537 0.370285 0.468035 -0.137745
C34   C     C_R   0.051143 0.481140 0.495269 0.029358
C35   C     C_R   0.026073 0.592291 0.519805 0.088209
C36   C     C_R   0.052058 0.265550 0.424368 0.265927
H3    H     H_    0.738174 0.376246 0.689187 0.159888
H4    H     H_    0.879309 0.170048 0.510115 0.188225
H5    H     H_    0.965518 0.170367 0.508214 0.189007
O11   O     O_2   0.202610 0.693873 0.565087 -0.568347
C37   C     C_R   0.102662 0.697942 0.557933 -0.157594
H6    H     H_    0.259163 0.619713 0.332780 0.160674
H7    H     H_    0.121468 0.782069 0.584626 0.165855
C38   C     C_R   0.948658 0.702932 0.514397 -0.211332
C39   C     C_R   0.898698 0.701177 0.514404 -0.142055
O12   O     O_2   0.798455 0.693234 0.523186 -0.554418
C40   C     C_R   0.052878 0.699087 0.553917 -0.202325
H8    H     H_    0.965528 0.792295 0.513460 0.145256
H9    H     H_    0.880061 0.787829 0.516944 0.187192
H10   H     H_    0.743972 0.579508 0.315600 0.163332
H11   H     H_    0.036369 0.784766 0.582022 0.135655
C41   C     C_2   0.502985 0.930300 0.386948 -0.262881
C42   C     C_2   0.503184 0.867203 0.504154 -0.390446
H12   H     H_    0.501170 0.880839 0.289567 0.168700
H13   H     H_    0.508004 0.911205 0.603940 0.160270
C43   C     C_2   0.508297 0.064917 0.383659 0.480158
C44   C     C_2   0.496380 0.132610 0.495610 -0.397265
H14   H     H_    0.480689 0.091723 0.586414 0.112700
C45   C     C_2   0.467161 0.444736 0.923317 0.605813
N3    N     N_2   0.499480 0.498660 0.846910 -0.046846
C46   C     C_2   0.474928 0.423832 0.076164 -0.113780
N4    N     N_2   0.499460 0.498630 0.153040 -0.271972
H15   H     H_    0.455917 0.349021 0.124954 0.132566
H16   H     H_    0.509597 0.580421 0.111081 0.210229
O13   O     O_3   0.650591 0.616178 0.296493 -0.603092
C47   C     C_3   0.661991 0.742770 0.309716 0.031910
H17   H     H_    0.662870 0.781628 0.204871 0.173736
H18   H     H_    0.698027 0.762796 0.355660 0.165168
C48   C     C_3   0.623075 0.808174 0.393152 -0.379457
H19   H     H_    0.587937 0.792625 0.341513 0.237897
H20   H     H_    0.621173 0.769670 0.498312 0.197859
C49   C     C_3   0.633204 0.945663 0.404385 -0.820301
H21   H     H_    0.668948 0.963267 0.452101 0.264428
H22   H     H_    0.605427 0.989635 0.470051 0.268524
H23   H     H_    0.632315 0.987389 0.300826 0.262127
O14   O     O_3   0.530684 0.120850 0.272035 -0.580497
C50   C     C_3   0.509172 0.086488 0.144829 0.086810
H24   H     H_    0.501655 0.171656 0.088456 0.169925
H25   H     H_    0.473896 0.037763 0.154512 0.104858
C51   C     C_3   0.544301 0.010989 0.057720 -0.346923
H26   H     H_    0.577828 0.065304 0.041370 0.241637
H27   H     H_    0.553949 0.926123 0.112313 0.202487
C52   C     C_3   0.522540 0.976502 0.917957 -0.939905
H28   H     H_    0.489954 0.918114 0.931698 0.248027
H29   H     H_    0.549080 0.924610 0.855461 0.255437
H30   H     H_    0.512734 0.060192 0.861144 0.271746
O15   O     O_3   0.425765 0.398884 0.860433 -0.615417
C53   C     C_3   0.383797 0.429697 0.936320 -0.014379
H31   H     H_    0.359224 0.478802 0.866707 0.181030
H32   H     H_    0.389939 0.493890 0.025259 0.149167
C54   C     C_3   0.358449 0.312702 0.984559 -0.369748
H33   H     H_    0.347655 0.256104 0.893459 0.221895
H34   H     H_    0.383413 0.258076 0.047571 0.207504
C55   C     C_3   0.313855 0.342006 0.070179 -0.833681
H35   H     H_    0.324066 0.395338 0.164124 0.271694
H36   H     H_    0.296029 0.255412 0.102105 0.263502
H37   H     H_    0.287981 0.395528 0.008864 0.252305
O16   O     O_3   0.543911 0.505507 0.903008 -0.521718
C56   C     C_3   0.561892 0.626238 0.887316 0.156657
H38   H     H_    0.540085 0.693069 0.947265 0.081180
H39   H     H_    0.561700 0.655729 0.779612 0.190932
C57   C     C_3   0.613856 0.631403 0.937969 -0.337603
H40   H     H_    0.614540 0.612057 0.049712 0.263475
H41   H     H_    0.635006 0.559876 0.883363 0.262074
C58   C     C_3   0.637362 0.755996 0.912355 -0.951437
H42   H     H_    0.636033 0.778169 0.801171 0.260151
H43   H     H_    0.675613 0.754052 0.944818 0.271628
H44   H     H_    0.618851 0.828427 0.972828 0.257749
O17   O     O_3   0.126694 0.156167 0.410134 -0.531027
C59   C     C_3   0.120316 0.073196 0.519855 0.123431
H45   H     H_    0.131392 0.981467 0.481452 0.175569
H46   H     H_    0.081946 0.063789 0.551758 0.139358
C60   C     C_3   0.151934 0.108494 0.644378 -0.396680
H47   H     H_    0.190149 0.115479 0.611700 0.266178
H48   H     H_    0.140756 0.198836 0.686941 0.205593
C61   C     C_3   0.147884 0.014156 0.758200 -0.881765
H49   H     H_    0.109673 0.999656 0.787973 0.255627
H50   H     H_    0.168196 0.047376 0.850011 0.270870
H51   H     H_    0.163521 0.925867 0.723449 0.274821
O18   O     O_3   0.642259 0.366431 0.704275 -0.693988
H52   H     H_    0.664226 0.325832 0.769259 0.327409
O19   O     O_3   0.031183 0.167240 0.355432 -0.730006
H53   H     H_    0.004767 0.198994 0.298032 0.335717
O20   O     O_3   0.353107 0.648623 0.317130 -0.611680
C62   C     C_3   0.354069 0.768136 0.375001 0.068284
H54   H     H_    0.376247 0.770327 0.470560 0.132869
H55   H     H_    0.317017 0.800002 0.399776 0.159687
C63   C     C_3   0.376345 0.856333 0.271541 -0.323228
H56   H     H_    0.413743 0.827994 0.247819 0.219753
H57   H     H_    0.355226 0.852517 0.174468 0.223734
C64   C     C_3   0.376836 0.987797 0.327686 -0.920924
H58   H     H_    0.339600 0.018370 0.349712 0.271212
H59   H     H_    0.392921 0.049911 0.250355 0.243453
H60   H     H_    0.398413 0.994409 0.423681 0.259648

loop_
_geom_bond_atom_site_label_1
_geom_bond_atom_site_label_2
_geom_bond_distance
_ccdc_geom_bond_type
C29   O18   1.382179 S    
Cu2   N4    2.023813 S    
C50   H24   1.108060 S    
C44   H14   1.083542 S    
C21   C22   1.391715 A    
C12   C15   1.409841 A    
C4    C17   1.477592 S    
C28   C29   1.406302 A    
C53   H32   1.116351 S    
O16   C56   1.414504 S    
Cu1   Cu2   2.693551 S    
C48   H19   1.109077 S    
Cu1   O7    1.949692 S    
C59   H45   1.109910 S    
C22   C23   1.398679 A    
C64   H59   1.109777 S    
C31   H10   1.083431 S    
C62   H55   1.115780 S    
O4    C2    1.296957 A    
C43   O14   1.394837 S    
O7    C4    1.299994 A    
N4    H16   1.023515 S    
C5    C13   1.414689 A    
C5    O9    1.348765 S    
C51   C52   1.527482 S    
C26   O12   1.350147 S    
N1    C6    1.365784 A    
N2    C27   1.370275 A    
C23   C27   1.405611 A    
C42   H13   1.083210 S    
O5    C3    1.294304 A    
C57   H40   1.109251 S    
C58   H44   1.108784 S    
C55   H35   1.110635 S    
C28   H3    1.083186 S    
C2    C16   1.464517 S    
C64   H58   1.110825 S    
C41   C42   1.339598 D    
C56   H39   1.099385 S    
C51   H27   1.109988 S    
N3    O16   1.351764 S    
C54   H33   1.111375 S    
Cu2   O8    1.950584 S    
C6    O11   1.350291 S    
C60   C61   1.525449 S    
C33   C36   1.426197 A    
C48   H20   1.111472 S    
C50   H25   1.114987 S    
C22   H4    1.083343 S    
O1    Cu1   1.951716 S    
C9    C10   1.393143 A    
C45   O15   1.388623 S    
C54   H34   1.110598 S    
C63   C64   1.527385 S    
C10   C11   1.400865 A    
C53   H31   1.109854 S    
C37   C40   1.384959 A    
C55   H36   1.110457 S    
C46   H15   1.082636 S    
C7    H6    1.083194 S    
C12   C34   1.420380 A    
C25   C39   1.397331 A    
C40   H11   1.077716 S    
C17   C29   1.415163 A    
C21   H5    1.079727 S    
C18   C21   1.413491 A    
C64   H60   1.110579 S    
C35   C40   1.411986 A    
C12   C13   1.411445 A    
C63   H57   1.111612 S    
C15   C37   1.395278 A    
C62   C63   1.527927 S    
C25   C26   1.402213 A    
C43   C44   1.348691 D    
C27   O10   1.349410 S    
C8    C16   1.409926 A    
C59   C60   1.538204 S    
O3    Cu1   1.950589 S    
C13   C14   1.410966 A    
C30   C31   1.400625 A    
C9    H1    1.081929 S    
O13   C47   1.418190 S    
C38   C39   1.388978 A    
O1    C1    1.298038 A    
C57   C58   1.525879 S    
C18   C20   1.417903 A    
C7    C11   1.400936 A    
C45   N3    1.305466 D    
C23   C24   1.407707 A    
C14   C36   1.403107 A    
C36   O19   1.379263 S    
C52   H28   1.110901 S    
C49   H23   1.110994 S    
C41   C43   1.475947 S    
C56   C57   1.527098 S    
C51   H26   1.111613 S    
C34   C35   1.422819 A    
N2    C32   1.438595 S    
N1    C11   1.436609 S    
O20   C62   1.412717 S    
C45   C46   1.521772 S    
C55   H37   1.111165 S    
C58   H42   1.111214 S    
O3    C2    1.301247 A    
C26   N2    1.370184 A    
C52   H29   1.109848 S    
C9    C16   1.401550 A    
C49   H22   1.109729 S    
C47   H17   1.109345 S    
C50   C51   1.531005 S    
C47   H18   1.115463 S    
O17   C59   1.418695 S    
C54   C55   1.526259 S    
C19   C35   1.418291 A    
C60   H47   1.110627 S    
C48   C49   1.526128 S    
Cu1   O5    1.957909 S    
C31   C32   1.397149 A    
C59   H46   1.114573 S    
C10   H2    1.083039 S    
C20   C24   1.419839 A    
Cu2   O6    1.951716 S    
O2    Cu2   1.957909 S    
C6    C15   1.400437 A    
O8    C4    1.303697 A    
C63   H56   1.111014 S    
O6    C3    1.295210 A    
O4    Cu2   1.949695 S    
C5    N1    1.367894 A    
Cu1   N3    2.023730 S    
C19   C38   1.414555 A    
C47   C48   1.528018 S    
C38   H8    1.077737 S    
C8    O20   1.382827 S    
C7    C8    1.399722 A    
O2    C1    1.292361 A    
C62   H54   1.115001 S    
C24   C25   1.406925 A    
C3    C42   1.446751 S    
C61   H51   1.109468 S    
O14   C50   1.417280 S    
C19   C20   1.416856 A    
C61   H49   1.110914 S    
C30   O13   1.384908 S    
C1    C44   1.449036 S    
C57   H41   1.110732 S    
C18   C33   1.424474 A    
C58   H43   1.110221 S    
C37   H7    1.079951 S    
O19   H53   0.991555 S    
C39   H9    1.083500 S    
C52   H30   1.111114 S    
C49   H21   1.110758 S    
C61   H50   1.110439 S    
C33   C34   1.418645 A    
C17   C30   1.411896 A    
O15   C53   1.420251 S    
C41   H12   1.083142 S    
C46   N4    1.288486 D    
O18   H52   0.991727 S    
C28   C32   1.398069 A    
C14   O17   1.387004 S    
C53   C54   1.530994 S    
C56   H38   1.111365 S    
C60   H48   1.110961 S    
