data_mof_unit_37288.cif
_audit_creation_date              2012-12-10T18:39:06-0500
_audit_creation_method            fapswitch 2.2
_symmetry_space_group_name_H-M    P1
_symmetry_Int_Tables_number       1
_space_group_crystal_system       triclinic
_cell_length_a                    13.90987
_cell_length_b                    15.099423
_cell_length_c                    17.278094
_cell_angle_alpha                 90.270432
_cell_angle_beta                  85.832097
_cell_angle_gamma                 89.620152
_cell_volume                      3619.20951652

loop_
_atom_site_label
_atom_site_type_symbol
_atom_type_description
_atom_site_fract_x
_atom_site_fract_y
_atom_site_fract_z
_atom_type_partial_charge
C1    C     C_R   0.499843 0.670352 0.496687 0.867386
C2    C     C_R   0.500258 0.330148 0.500187 0.872261
C3    C     C_R   0.414946 0.908926 0.488068 0.358886
C4    C     C_R   0.552940 0.091193 0.543693 0.334422
C5    C     C_R   0.412760 0.816277 0.486750 0.373285
C6    C     C_R   0.549092 0.183530 0.550859 0.391444
C7    C     C_R   0.499709 0.767346 0.487559 -0.280980
C8    C     C_R   0.501064 0.233877 0.497009 -0.256649
C9    C     C_R   0.587933 0.811705 0.476699 -0.371388
C10   C     C_R   0.455850 0.192320 0.437352 -0.376108
C11   C     C_R   0.590684 0.903304 0.468850 0.447264
C12   C     C_R   0.461516 0.100258 0.427842 0.458639
C13   C     C_R   0.504325 0.952624 0.478090 -0.106600
C14   C     C_R   0.507511 0.049640 0.482650 -0.110319
C15   C     C_R   0.896706 0.453144 0.443241 -0.426283
C16   C     C_R   0.103132 0.568821 0.529236 -0.445517
C17   C     C_R   0.794959 0.449040 0.447308 0.578930
C18   C     C_R   0.204418 0.566124 0.536673 0.582220
C19   C     C_R   0.785215 0.546813 0.555414 0.499957
C20   C     C_R   0.214075 0.432516 0.463181 0.500307
C21   C     C_R   0.886296 0.538831 0.561376 0.294828
C22   C     C_R   0.111912 0.424742 0.470342 0.297564
C23   C     C_R   0.487657 0.500719 0.649854 0.840899
C24   C     C_R   0.512647 0.503255 0.349660 0.828385
C25   C     C_R   0.944828 0.496294 0.501456 -0.008161
C26   C     C_R   0.054393 0.496334 0.499932 -0.009134
C27   C     C_R   0.482724 0.494647 0.734095 -0.170740
C28   C     C_R   0.517817 0.511500 0.264372 -0.181392
C29   C     C_R   0.548086 0.438576 0.767970 -0.287693
C30   C     C_R   0.431650 0.503552 0.227577 -0.295839
C31   C     C_R   0.544465 0.429021 0.847690 -0.272124
C32   C     C_R   0.429840 0.515476 0.148655 -0.191635
C33   C     C_R   0.476336 0.476402 0.894840 -0.049349
C34   C     C_R   0.514630 0.532827 0.103597 -0.002000
C35   C     C_R   0.410016 0.533273 0.861885 0.380560
C36   C     C_R   0.603605 0.537510 0.137997 0.349554
C37   C     C_R   0.416849 0.545966 0.781105 0.380253
C38   C     C_R   0.604658 0.531138 0.219834 0.413485
C39   C     C_2   0.481649 0.469816 0.979392 0.352071
C40   C     C_2   0.507779 0.541693 0.019644 0.426430
Cu1   Cu    Cu3+1 0.403570 0.500010 0.500000 1.024620
Cu2   Cu    Cu3+1 0.596430 0.499990 0.500000 1.034830
H1    H     H_    0.602663 0.402425 0.732559 0.194888
H2    H     H_    0.364023 0.490606 0.260111 0.182608
H3    H     H_    0.937024 0.422156 0.394502 0.218713
H4    H     H_    0.061850 0.627040 0.547004 0.217441
H5    H     H_    0.361684 0.510682 0.122236 0.155671
H6    H     H_    0.596558 0.386269 0.872948 0.181924
H7    H     H_    0.655414 0.775402 0.473199 0.201326
H8    H     H_    0.418259 0.232034 0.397022 0.203449
N1    N     N_R   0.741310 0.499980 0.500000 -0.264584
N2    N     N_R   0.258690 0.500020 0.500000 -0.276189
O1    O     O_R   0.418570 0.628550 0.499990 -0.496841
O2    O     O_R   0.581430 0.371450 0.500010 -0.543677
O3    O     O_R   0.581440 0.628540 0.499990 -0.578650
O4    O     O_R   0.418560 0.371460 0.500010 -0.546407
O5    O     O_R   0.409120 0.500020 0.613600 -0.547687
O6    O     O_R   0.590880 0.499980 0.386400 -0.502073
O7    O     O_R   0.571990 0.500010 0.613600 -0.544826
O8    O     O_R   0.428010 0.499990 0.386400 -0.592789
O9    O     O_3   0.748107 0.398142 0.395162 -0.553062
C41   C     C_3   0.773297 0.308072 0.402831 -0.322500
H9    H     H_    0.721937 0.267546 0.371794 0.183586
H10   H     H_    0.767776 0.286475 0.464589 0.184747
H11   H     H_    0.846662 0.294274 0.375503 0.162803
O10   O     O_3   0.252133 0.630412 0.577162 -0.490215
C42   C     C_3   0.192213 0.673608 0.635387 -0.199684
H12   H     H_    0.237885 0.710206 0.674041 0.198622
H13   H     H_    0.148807 0.625811 0.672010 0.153141
H14   H     H_    0.145934 0.724080 0.609568 0.138505
O11   O     O_3   0.728499 0.594908 0.609949 -0.540149
C43   C     C_3   0.753049 0.685518 0.606212 -0.237114
H15   H     H_    0.688333 0.725225 0.625875 0.165025
H16   H     H_    0.776729 0.707904 0.546476 0.126787
H17   H     H_    0.809617 0.700252 0.646400 0.196102
O12   O     O_3   0.270136 0.368067 0.424253 -0.539023
C44   C     C_3   0.248020 0.362031 0.345855 -0.276549
H18   H     H_    0.314614 0.342952 0.310332 0.164571
H19   H     H_    0.221500 0.425477 0.322036 0.119224
H20   H     H_    0.194523 0.308953 0.338809 0.203519
O13   O     O_3   0.926349 0.572836 0.626009 -0.590313
C45   C     C_3   0.927110 0.505780 0.682437 -0.306211
H21   H     H_    0.972418 0.448345 0.661276 0.151990
H22   H     H_    0.852700 0.483742 0.700741 0.179665
H23   H     H_    0.959082 0.532960 0.734445 0.177276
O14   O     O_3   0.069849 0.347330 0.447112 -0.589027
C46   C     C_3   0.062057 0.289200 0.510788 -0.302262
H24   H     H_    0.015437 0.317811 0.559885 0.151835
H25   H     H_    0.134277 0.271406 0.530180 0.173895
H26   H     H_    0.027729 0.227189 0.492435 0.186274
O15   O     O_3   0.684212 0.558237 0.257674 -0.556941
C47   C     C_3   0.763158 0.500367 0.241452 -0.189150
H27   H     H_    0.741513 0.429610 0.237697 0.143469
H28   H     H_    0.811994 0.506354 0.289001 0.186800
H29   H     H_    0.806404 0.521241 0.188459 0.171331
O16   O     O_3   0.364127 0.612662 0.749268 -0.572795
C48   C     C_3   0.420172 0.690434 0.748048 -0.278515
H30   H     H_    0.485889 0.683208 0.707684 0.147690
H31   H     H_    0.440447 0.708990 0.807150 0.188244
H32   H     H_    0.377449 0.746307 0.726962 0.165895
O17   O     O_3   0.507495 0.625821 0.987641 -0.555499
C49   C     C_3   0.598922 0.644273 0.950783 -0.286972
H33   H     H_    0.632796 0.586505 0.918768 0.142270
H34   H     H_    0.647538 0.669877 0.993690 0.212967
H35   H     H_    0.590291 0.697350 0.907606 0.175056
O18   O     O_3   0.482562 0.387214 0.014969 -0.611668
C50   C     C_3   0.402689 0.337094 0.995149 -0.343470
H36   H     H_    0.409752 0.316541 0.933134 0.170727
H37   H     H_    0.333842 0.373738 0.008972 0.150886
H38   H     H_    0.399997 0.275786 0.030236 0.200102
O19   O     O_3   0.345874 0.583102 0.909257 -0.571543
C51   C     C_3   0.253078 0.546346 0.907367 0.055500
H39   H     H_    0.253988 0.474377 0.921543 0.104646
H40   H     H_    0.225268 0.555367 0.849056 0.172792
C52   C     C_3   0.185220 0.593893 0.967648 -0.295821
H41   H     H_    0.212578 0.585660 0.026096 0.216236
H42   H     H_    0.183404 0.665782 0.954181 0.230612
C53   C     C_3   0.083183 0.557315 0.968658 -0.968428
H43   H     H_    0.053926 0.565705 0.910978 0.257058
H44   H     H_    0.035805 0.593746 0.012625 0.260074
H45   H     H_    0.082957 0.485951 0.984002 0.257555
O20   O     O_3   0.687658 0.556599 0.093498 -0.619415
C54   C     C_3   0.721830 0.479107 0.053593 0.011538
H46   H     H_    0.670368 0.455949 0.011953 0.158998
H47   H     H_    0.733799 0.424299 0.094788 0.133230
C55   C     C_3   0.817087 0.499485 0.007659 -0.324044
H48   H     H_    0.806855 0.556518 0.968586 0.219865
H49   H     H_    0.872035 0.517741 0.048372 0.216199
C56   C     C_3   0.853448 0.419917 0.958869 -0.935119
H50   H     H_    0.866751 0.362647 0.996862 0.257221
H51   H     H_    0.921921 0.436954 0.925451 0.255635
H52   H     H_    0.799815 0.401120 0.917191 0.254530
O21   O     O_3   0.328234 0.955376 0.492992 -0.559241
C57   C     C_3   0.306414 0.987842 0.569369 0.086375
H53   H     H_    0.248845 0.038787 0.566357 0.167981
H54   H     H_    0.368093 0.022282 0.593067 0.086991
C58   C     C_3   0.268801 0.914649 0.624771 -0.345126
H55   H     H_    0.205656 0.882426 0.600940 0.244860
H56   H     H_    0.325890 0.863943 0.630782 0.212885
C59   C     C_3   0.239222 0.951875 0.705260 -0.966719
H57   H     H_    0.302031 0.983065 0.730542 0.255017
H58   H     H_    0.212637 0.897354 0.743888 0.262052
H59   H     H_    0.180709 0.001840 0.701989 0.260873
O22   O     O_3   0.609924 0.043705 0.591739 -0.539760
C60   C     C_3   0.552045 0.002688 0.651701 0.090469
H60   H     H_    0.509966 0.947696 0.628436 0.118692
H61   H     H_    0.501718 0.050709 0.682497 0.117478
C61   C     C_3   0.617400 0.963510 0.710229 -0.292821
H62   H     H_    0.668568 0.915555 0.680156 0.221404
H63   H     H_    0.659625 0.017362 0.735419 0.227357
C62   C     C_3   0.558957 0.915979 0.775466 -0.964141
H64   H     H_    0.508662 0.963053 0.807476 0.261679
H65   H     H_    0.608364 0.887562 0.816652 0.259671
H66   H     H_    0.517037 0.861361 0.751391 0.247429
O23   O     O_3   0.324465 0.774578 0.491004 -0.528781
C63   C     C_3   0.294691 0.765099 0.415125 -0.202003
H67   H     H_    0.282730 0.830634 0.388111 0.176423
H68   H     H_    0.225091 0.729380 0.418295 0.165160
H69   H     H_    0.347434 0.725080 0.377819 0.135085
O24   O     O_3   0.591792 0.223381 0.611727 -0.547965
C64   C     C_3   0.519359 0.245193 0.670480 -0.317775
H70   H     H_    0.552840 0.249222 0.726681 0.189673
H71   H     H_    0.460645 0.195455 0.677569 0.119730
H72   H     H_    0.486893 0.310498 0.658596 0.149825
O25   O     O_3   0.679073 0.944742 0.459640 -0.568436
C65   C     C_3   0.696516 0.971132 0.381524 0.064144
H73   H     H_    0.630365 0.995876 0.355474 0.130722
H74   H     H_    0.725953 0.913836 0.346433 0.147866
C66   C     C_3   0.770313 0.045762 0.377928 -0.309027
H75   H     H_    0.742969 0.101042 0.416369 0.222149
H76   H     H_    0.839119 0.021132 0.399099 0.227577
C67   C     C_3   0.789075 0.080513 0.295471 -0.966963
H77   H     H_    0.816692 0.026435 0.255916 0.266009
H78   H     H_    0.843725 0.133821 0.294860 0.257260
H79   H     H_    0.721659 0.108226 0.274278 0.250382
O26   O     O_3   0.417860 0.057317 0.368405 -0.573801
C68   C     C_3   0.446507 0.093049 0.294651 0.042873
H80   H     H_    0.475368 0.037886 0.256824 0.151710
H81   H     H_    0.505660 0.142694 0.295064 0.121310
C69   C     C_3   0.358470 0.132556 0.258855 -0.320328
H82   H     H_    0.308254 0.078443 0.245749 0.224278
H83   H     H_    0.319651 0.178369 0.300879 0.220969
C70   C     C_3   0.387103 0.182902 0.184471 -0.947471
H84   H     H_    0.434491 0.239401 0.196915 0.267029
H85   H     H_    0.321382 0.209324 0.159630 0.250153
H86   H     H_    0.425452 0.138169 0.141133 0.260747

loop_
_geom_bond_atom_site_label_1
_geom_bond_atom_site_label_2
_ccdc_geom_bond_type
C39   O18   S    
C46   H24   S    
O25   C65   S    
C27   C29   A    
C50   H37   S    
C66   H75   S    
C19   O11   S    
O19   C51   S    
C59   H59   S    
C17   N1    A    
C57   C58   S    
C51   H40   S    
C64   H70   S    
C20   C22   A    
C18   N2    A    
C54   H46   S    
C44   H18   S    
C69   H82   S    
C23   O7    A    
C58   H56   S    
C33   C39   S    
C34   C40   S    
C63   H67   S    
C35   C37   A    
C59   H58   S    
C70   H85   S    
C8    C10   A    
C54   H47   S    
O18   C50   S    
C52   H41   S    
C48   H30   S    
C20   O12   S    
C49   H35   S    
C15   C17   A    
Cu1   Cu2   S    
C62   H66   S    
C1    O1    A    
C53   H43   S    
C41   H10   S    
Cu2   O6    S    
C17   O9    S    
C40   O17   S    
C69   H83   S    
C52   H42   S    
C55   H49   S    
C62   H64   S    
C61   C62   S    
C23   C27   S    
Cu1   N2    S    
C3    C13   A    
C69   C70   S    
Cu2   N1    S    
C12   O26   S    
C56   H52   S    
C52   C53   S    
C22   O14   S    
O10   C42   S    
C13   C14   S    
C29   H1    S    
C65   H74   S    
C66   H76   S    
C30   H2    S    
C49   H33   S    
C43   H17   S    
C47   H28   S    
C51   H39   S    
C64   H71   S    
C67   H78   S    
C60   H60   S    
C44   H19   S    
C16   C26   A    
C58   C59   S    
C60   H61   S    
C42   H12   S    
O17   C49   S    
C9    H7    S    
C59   H57   S    
C4    C6    A    
C2    O2    A    
C70   H86   S    
C16   H4    S    
O15   C47   S    
C5    C7    A    
O14   C46   S    
O22   C60   S    
C54   C55   S    
C57   H54   S    
C55   C56   S    
C68   H81   S    
C25   C26   S    
C5    O23   S    
C38   O15   S    
C47   H29   S    
O13   C45   S    
C37   O16   S    
C42   H13   S    
C53   H45   S    
C32   C34   A    
C36   O20   S    
C70   H84   S    
Cu1   O4    S    
C41   H9    S    
Cu2   O3    S    
C6    O24   S    
C28   C38   A    
C24   O8    A    
C68   C69   S    
O16   C48   S    
C31   C33   A    
C16   C18   A    
O12   C44   S    
C49   H34   S    
C9    C11   A    
Cu1   O1    S    
C10   C12   A    
C23   O5    A    
C61   H63   S    
C43   H16   S    
O26   C68   S    
C21   O13   S    
C45   H21   S    
C45   H22   S    
C31   H6    S    
C46   H25   S    
C65   H73   S    
C32   H5    S    
C15   H3    S    
C50   H36   S    
C36   C38   A    
C10   H8    S    
C39   C40   D    
C60   C61   S    
C35   O19   S    
C67   H77   S    
C64   H72   S    
C56   H50   S    
C44   H20   S    
C7    C9    A    
C21   C25   A    
C48   H31   S    
C48   H32   S    
C41   H11   S    
C19   C21   A    
C1    C7    S    
C63   H69   S    
C2    C8    S    
C24   C28   S    
Cu1   O8    S    
C12   C14   A    
C43   H15   S    
C3    C5    A    
Cu2   O7    S    
C4    O22   S    
C6    C8    A    
C67   H79   S    
C57   H53   S    
C18   O10   S    
C45   H23   S    
C58   H55   S    
C20   N2    A    
C42   H14   S    
O24   C64   S    
C63   H68   S    
C1    O3    A    
Cu1   O5    S    
O11   C43   S    
C29   C31   A    
C2    O4    A    
Cu2   O2    S    
C30   C32   A    
C11   C13   A    
C33   C35   A    
O21   C57   S    
C27   C37   A    
C55   H48   S    
C28   C30   A    
C47   H27   S    
C50   H38   S    
C34   C36   A    
C61   H62   S    
C62   H65   S    
C4    C14   A    
O9    C41   S    
C53   H44   S    
C15   C25   A    
C19   N1    A    
C65   C66   S    
C24   O6    A    
C68   H80   S    
C22   C26   A    
C46   H26   S    
O23   C63   S    
C11   O25   S    
C66   C67   S    
C3    O21   S    
O20   C54   S    
C51   C52   S    
C56   H51   S    
