data_mof_unit_44861.cif
_audit_creation_date              2012-12-10T17:19:21-0500
_audit_creation_method            fapswitch 2.2
_symmetry_space_group_name_H-M    P1
_symmetry_Int_Tables_number       1
_space_group_crystal_system       triclinic
_cell_length_a                    15.005532
_cell_length_b                    10.868418
_cell_length_c                    9.646172
_cell_angle_alpha                 88.260591
_cell_angle_beta                  90.636629
_cell_angle_gamma                 95.060329
_cell_volume                      1566.2495744

loop_
_atom_site_label
_atom_site_type_symbol
_atom_type_description
_atom_site_fract_x
_atom_site_fract_y
_atom_site_fract_z
_atom_type_partial_charge
C1    C     C_R   0.491811 0.261651 0.501834 0.816716
C2    C     C_R   0.913338 0.597881 0.557414 0.126145
C3    C     C_R   0.933854 0.281651 0.432562 -0.221139
C4    C     C_R   0.026074 0.274514 0.439917 0.202823
C5    C     C_R   0.083839 0.382655 0.466178 0.008543
C6    C     C_R   0.045237 0.488706 0.512830 0.001909
C7    C     C_R   0.099711 0.591908 0.560284 0.121631
C8    C     C_R   0.060901 0.695411 0.607909 -0.135298
C9    C     C_R   0.968249 0.698598 0.605935 -0.164829
C10   C     C_R   0.177552 0.391340 0.446614 0.146633
C11   C     C_R   0.231177 0.493071 0.499560 -0.094721
C12   C     C_R   0.328707 0.497942 0.499341 0.837270
C13   C     C_R   0.192225 0.590281 0.559470 -0.234402
C14   C     C_R   0.402247 0.103654 0.735508 0.096826
C15   C     C_R   0.391877 0.034316 0.860161 0.157277
C16   C     C_R   0.390373 0.906014 0.857379 0.151682
C17   C     C_R   0.406078 0.851267 0.733184 -0.247459
C18   C     C_R   0.441705 0.922256 0.617694 0.041437
C19   C     C_R   0.441346 0.052735 0.619765 0.024558
C20   C     C_R   0.476055 0.125483 0.503626 -0.079405
C21   C     C_R   0.498318 0.066416 0.383304 -0.150843
C22   C     C_R   0.495178 0.939394 0.379858 -0.134140
C23   C     C_R   0.491189 0.735717 0.498899 0.799294
C24   C     C_R   0.474301 0.866853 0.498744 -0.080064
C25   C     C_R   0.657859 0.601032 0.133777 0.165877
C26   C     C_R   0.735600 0.608827 0.053176 0.162561
C27   C     C_R   0.726917 0.635307 0.912702 -0.248085
C28   C     C_R   0.642462 0.624348 0.852484 -0.160588
C29   C     C_R   0.571167 0.559080 0.923549 0.187585
C30   C     C_R   0.574447 0.554368 0.072476 0.119008
C31   C     C_R   0.428708 0.452517 0.074239 0.017559
C32   C     C_R   0.429118 0.451389 0.927207 -0.014728
C33   C     C_R   0.670756 0.501467 0.500776 0.817204
C34   C     C_R   0.820468 0.600557 0.553711 -0.212284
C35   C     C_R   0.766749 0.499838 0.503218 -0.029736
C36   C     C_R   0.804225 0.395084 0.459099 -0.196503
C37   C     C_R   0.896593 0.389896 0.465253 0.082292
C38   C     C_R   0.951795 0.492096 0.512000 0.085988
Cu1   Cu    Cu3+1 0.499990 0.499990 0.640660 0.965111
Cu2   Cu    Cu3+1 0.500010 0.500010 0.359340 1.006246
H1    H     H_    0.789893 0.681037 0.587994 0.130921
H2    H     H_    0.388658 0.753162 0.730636 0.198810
H3    H     H_    0.784733 0.668545 0.851835 0.179947
H4    H     H_    0.635058 0.664424 0.750530 0.203114
H5    H     H_    0.890470 0.199671 0.409062 0.174129
H6    H     H_    0.939568 0.779900 0.641841 0.164448
N1    N     N_R   0.500860 0.501210 0.147910 -0.191107
N2    N     N_R   0.500890 0.501290 0.852040 -0.198169
O1    O     O_R   0.499990 0.319640 0.618810 -0.561071
O2    O     O_R   0.500000 0.319660 0.381240 -0.571962
O3    O     O_R   0.370250 0.499960 0.618800 -0.584272
O4    O     O_R   0.370260 0.499980 0.381230 -0.562105
O5    O     O_R   0.500000 0.680340 0.618760 -0.615355
O6    O     O_R   0.500010 0.680360 0.381190 -0.545424
O7    O     O_R   0.629740 0.500020 0.618770 -0.594229
O8    O     O_R   0.629750 0.500040 0.381200 -0.565943
I1    I     I_    0.298344 0.219778 0.698076 -0.291334
I2    I     I_    0.369764 0.122510 0.047205 -0.291556
I3    I     I_    0.357058 0.787689 0.032034 -0.301768
H7    H     H_    0.513559 0.898696 0.284708 0.203171
H8    H     H_    0.370054 0.413695 0.128524 0.181372
I4    I     I_    0.670809 0.762998 0.253451 -0.343836
I5    I     I_    0.866533 0.621006 0.140979 -0.290616
H9    H     H_    0.761109 0.316797 0.423194 0.136042
H10   H     H_    0.370216 0.412878 0.874287 0.180483
I6    I     I_    0.061131 0.088376 0.456178 -0.256251
I7    I     I_    0.237735 0.272435 0.310338 -0.233057
H11   H     H_    0.234480 0.667699 0.599418 0.145889
H12   H     H_    0.102345 0.774575 0.645131 0.174690
H13   H     H_    0.521652 0.118719 0.291373 0.187084

loop_
_geom_bond_atom_site_label_1
_geom_bond_atom_site_label_2
_ccdc_geom_bond_type
C33   O7    A    
Cu2   N1    S    
Cu1   O3    S    
C23   C24   S    
C6    C38   A    
C25   C30   A    
C29   C30   A    
C8    C9    A    
C11   C13   A    
C1    O2    A    
C31   H8    S    
C36   H9    S    
C19   C20   A    
C21   H13   S    
C26   I5    S    
C2    C34   A    
C33   O8    A    
C17   C18   A    
C8    H12   S    
C5    C10   A    
Cu2   O4    S    
C10   I7    S    
C4    I6    S    
C32   N2    A    
C9    H6    S    
C26   C27   A    
Cu1   O5    S    
C34   H1    S    
Cu2   O2    S    
C4    C5    A    
C22   C24   A    
C28   C29   A    
C12   O4    A    
C37   C38   A    
C28   H4    S    
C23   O5    A    
C6    C7    A    
Cu2   O6    S    
C25   I4    S    
C16   I3    S    
C22   H7    S    
C5    C6    A    
C15   I2    S    
C18   C24   A    
Cu1   O1    S    
C7    C8    A    
C10   C11   A    
C29   N2    A    
C15   C16   A    
Cu1   Cu2   S    
C16   C17   A    
C27   H3    S    
C30   N1    A    
C7    C13   A    
C12   O3    A    
C18   C19   A    
C20   C21   A    
C3    C37   A    
C23   O6    A    
C36   C37   A    
C34   C35   A    
C17   H2    S    
C27   C28   A    
C14   I1    S    
C2    C38   A    
C14   C15   A    
Cu1   N2    S    
C1    C20   S    
C31   N1    A    
C35   C36   A    
C33   C35   S    
C25   C26   A    
C21   C22   A    
C2    C9    A    
C1    O1    A    
C14   C19   A    
C3    H5    S    
Cu1   O7    S    
C3    C4    A    
C31   C32   A    
C11   C12   S    
C32   H10   S    
Cu2   O8    S    
C13   H11   S    
