data_mof_unit_41386.cif
_audit_creation_date              2013-03-05T16:43:45-0500
_audit_creation_method            fapswitch 2.2
_symmetry_space_group_name_H-M    P1
_symmetry_Int_Tables_number       1
_space_group_crystal_system       triclinic
_cell_length_a                    8.820752
_cell_length_b                    15.89949
_cell_length_c                    17.025173
_cell_angle_alpha                 95.753568
_cell_angle_beta                  94.148734
_cell_angle_gamma                 84.31996
_cell_volume                      2359.30688401

loop_
_atom_site_label
_atom_site_type_symbol
_atom_site_description
_atom_site_fract_x
_atom_site_fract_y
_atom_site_fract_z
_atom_type_partial_charge
O1    O     O_R   0.493000 0.421040 0.382520 -0.546983
O2    O     O_R   0.507000 0.578960 0.617480 -0.551226
O3    O     O_R   0.505640 0.563310 0.388930 -0.560068
O4    O     O_R   0.494360 0.436690 0.611070 -0.505826
C1    C     C_R   0.518503 0.488533 0.349675 0.903560
C2    C     C_R   0.499284 0.510286 0.651156 0.957367
O5    O     O_R   0.269980 0.445280 0.497530 -0.542890
O6    O     O_R   0.730020 0.554720 0.502470 -0.565917
O7    O     O_R   0.282610 0.587550 0.503940 -0.497342
O8    O     O_R   0.717390 0.412450 0.496060 -0.530002
C3    C     C_R   0.205863 0.521367 0.499554 0.871067
C4    C     C_R   0.794052 0.478263 0.499206 0.796433
Cu1   Cu    Cu3+1 0.492520 0.415770 0.496210 1.139312
Cu2   Cu    Cu3+1 0.507480 0.584230 0.503790 1.117100
C5    C     C_2   0.041100 0.530211 0.488897 0.104419
C6    C     C_2   0.958927 0.467759 0.508043 0.086546
C7    C     C_R   0.556797 0.481233 0.265072 -0.321738
C8    C     C_R   0.502233 0.515870 0.737524 -0.306726
C9    C     C_R   0.594543 0.553625 0.230780 0.314124
C10   C     C_R   0.629693 0.477199 0.778969 0.328588
C11   C     C_R   0.606823 0.548513 0.147758 0.181084
C12   C     C_R   0.638219 0.482531 0.861937 0.205376
C13   C     C_R   0.569446 0.474238 0.100388 0.098304
C14   C     C_R   0.517515 0.527665 0.903581 0.090494
C15   C     C_R   0.553397 0.400443 0.136153 0.327336
C16   C     C_R   0.394101 0.569784 0.862146 0.349552
C17   C     C_R   0.566191 0.401614 0.219078 0.172945
C18   C     C_R   0.386673 0.565356 0.779058 0.153228
N1    N     N_2   0.567880 0.467395 0.016625 -0.111154
N2    N     N_2   0.516607 0.533825 0.987191 -0.101705
N3    N     N_R   0.518730 0.710760 0.509500 -0.290926
N4    N     N_R   0.481270 0.289240 0.490500 -0.282274
C19   C     C_R   0.411159 0.757307 0.464968 0.493847
C20   C     C_R   0.558881 0.245356 0.549001 0.497080
C21   C     C_R   0.416753 0.846400 0.463655 0.073944
C22   C     C_R   0.544312 0.157050 0.551441 0.080553
C23   C     C_R   0.540242 0.886886 0.504085 0.098739
C24   C     C_R   0.462468 0.112316 0.489233 0.109216
C25   C     C_R   0.649648 0.836819 0.548157 0.113242
C26   C     C_R   0.384584 0.158836 0.430311 0.116532
C27   C     C_R   0.632290 0.749930 0.553657 0.351803
C28   C     C_R   0.394015 0.247284 0.431907 0.357317
N5    N     N_2   0.558454 0.976442 0.504708 -0.065116
N6    N     N_2   0.440349 0.023814 0.488917 -0.061407
N7    N     N_R   0.972938 0.595667 0.441495 0.117487
O9    O     O_R   0.999350 0.674367 0.460271 -0.235333
O10   O     O_R   0.908869 0.574309 0.372143 -0.312514
N8    N     N_R   0.027853 0.394302 0.544867 0.115788
O11   O     O_R   0.999193 0.318700 0.514680 -0.302624
O12   O     O_R   0.110541 0.402746 0.611121 -0.363606
O13   O     O_3   0.751719 0.437958 0.738511 -0.555135
C29   C     C_3   0.855643 0.498495 0.731109 -0.116061
H1    H     H_    0.829158 0.527572 0.674542 0.174929
H2    H     H_    0.972016 0.465438 0.730255 0.224760
H3    H     H_    0.858688 0.549601 0.781027 0.163458
O14   O     O_3   0.649513 0.619540 0.281734 -0.508380
C30   C     C_3   0.596141 0.700948 0.259848 -0.071707
H4    H     H_    0.583177 0.744219 0.314640 0.143221
H5    H     H_    0.484328 0.702647 0.224919 0.128216
H6    H     H_    0.683623 0.726549 0.227688 0.232081
N9    N     N_R   0.774250 0.447222 0.903000 0.166763
O15   O     O_R   0.844985 0.493405 0.958680 -0.329367
O16   O     O_R   0.836012 0.371931 0.879781 -0.267392
N10   N     N_R   0.678017 0.611906 0.113171 0.165521
O17   O     O_R   0.826034 0.610698 0.117987 -0.278473
O18   O     O_R   0.595725 0.673565 0.081145 -0.304084
O19   O     O_3   0.543350 0.324912 0.089066 -0.494508
C31   C     C_3   0.387500 0.314559 0.070383 -0.060452
H7    H     H_    0.331886 0.365898 0.035307 0.125570
H8    H     H_    0.325442 0.311925 0.124648 0.185763
H9    H     H_    0.378387 0.253395 0.033607 0.218905
O20   O     O_3   0.280664 0.616977 0.903748 -0.500252
C32   C     C_3   0.166523 0.563695 0.914247 -0.059369
H10   H     H_    0.211073 0.512257 0.951859 0.142541
H11   H     H_    0.117002 0.535977 0.856601 0.138118
H12   H     H_    0.072900 0.602288 0.944975 0.234031
N11   N     N_R   0.614487 0.324074 0.255137 0.202310
O21   O     O_R   0.587183 0.250628 0.218788 -0.209304
O22   O     O_R   0.716602 0.325343 0.314312 -0.282460
N12   N     N_R   0.261030 0.610556 0.737776 0.163285
O23   O     O_R   0.211724 0.687301 0.764154 -0.197125
O24   O     O_R   0.188066 0.573151 0.677168 -0.376406
O25   O     O_3   0.636037 0.291006 0.610350 -0.537031
C33   C     C_3   0.787393 0.255381 0.624811 0.014098
H13   H     H_    0.861067 0.307812 0.640202 0.223219
H14   H     H_    0.834619 0.214871 0.573329 0.162716
H15   H     H_    0.794861 0.219124 0.677500 0.213186
O26   O     O_3   0.282864 0.719338 0.433154 -0.492809
C34   C     C_3   0.263918 0.718551 0.349945 -0.065915
H16   H     H_    0.325035 0.765546 0.324145 0.116308
H17   H     H_    0.140729 0.732341 0.333247 0.229952
H18   H     H_    0.299162 0.654329 0.322074 0.140120
N13   N     N_R   0.592741 0.117003 0.621865 0.154207
O27   O     O_R   0.523556 0.140472 0.686485 -0.257063
O28   O     O_R   0.719321 0.067719 0.624977 -0.268052
N14   N     N_R   0.296920 0.894121 0.421318 0.165736
O29   O     O_R   0.156517 0.895755 0.440564 -0.208918
O30   O     O_R   0.325052 0.925299 0.356651 -0.284928
N15   N     N_R   0.776864 0.874994 0.589501 0.216018
O31   O     O_R   0.867823 0.913164 0.551050 -0.207376
O32   O     O_R   0.803422 0.871028 0.665273 -0.188868
N16   N     N_R   0.286517 0.117303 0.371348 0.212005
O33   O     O_R   0.326759 0.101355 0.298973 -0.202771
O34   O     O_R   0.157519 0.094313 0.390314 -0.208799
N17   N     N_R   0.727679 0.704647 0.610019 0.163639
O35   O     O_R   0.677933 0.700538 0.679468 -0.307795
O36   O     O_R   0.873745 0.691654 0.601998 -0.256321
N18   N     N_R   0.303851 0.293193 0.373998 0.170119
O37   O     O_R   0.332483 0.277522 0.299975 -0.285742
O38   O     O_R   0.169441 0.328360 0.390585 -0.274934

loop_
_geom_bond_atom_site_label_1
_geom_bond_atom_site_label_2
_geom_bond_distance
_ccdc_geom_bond_type
C9    O14   1.394069 S    
N13   O27   1.300684 A    
C16   O20   1.383197 S    
C32   H10   1.112800 S    
Cu1   N4    2.016282 S    
C15   O19   1.382196 S    
C33   H15   1.108583 S    
Cu2   N3    2.016281 S    
O7    Cu2   1.979175 S    
C6    N8    1.441468 S    
C25   C27   1.417949 A    
N7    O9    1.299580 A    
N18   O37   1.297972 A    
O5    C3    1.282020 A    
N17   O36   1.299405 A    
C27   N17   1.431396 S    
O1    C1    1.304286 A    
C13   N1    1.418481 S    
C9    C11   1.419022 A    
C19   O26   1.385447 S    
C14   C16   1.403740 A    
C10   O13   1.382187 S    
C30   H5    1.113644 S    
C1    C7    1.493781 S    
C5    C6    1.363509 D    
O14   C30   1.409434 S    
N7    O10   1.299940 A    
O4    Cu1   1.949613 S    
N9    O16   1.301249 A    
C11   N10   1.433461 S    
C19   C21   1.424715 A    
C3    C5    1.446160 S    
C22   N13   1.431997 S    
O25   C33   1.412302 S    
C31   H7    1.113394 S    
N14   O30   1.301050 A    
N3    C19   1.375599 A    
C34   H17   1.109181 S    
C8    C10   1.405459 A    
N9    O15   1.301014 A    
C29   H3    1.116144 S    
N11   O21   1.301488 A    
C26   C28   1.414364 A    
N13   O28   1.300013 A    
Cu1   Cu2   2.684444 S    
C32   H11   1.112471 S    
O2    C2    1.292834 A    
O2    Cu2   1.946106 S    
C29   H2    1.106343 S    
N11   O22   1.301904 A    
C2    C8    1.462700 S    
O13   C29   1.413613 S    
C7    C17   1.418588 A    
C4    C6    1.445989 S    
C8    C18   1.411413 A    
C33   H13   1.106670 S    
N12   O24   1.299725 A    
O20   C32   1.410146 S    
C30   H6    1.108565 S    
C17   N11   1.445068 S    
C21   N14   1.432901 S    
O19   C31   1.410366 S    
N4    C20   1.376087 A    
C23   N5    1.447551 S    
N5    N6    1.252844 D    
C24   N6    1.439030 S    
N1    N2    1.244993 D    
C25   N15   1.434558 S    
N15   O31   1.301003 A    
O6    C4    1.286437 A    
N14   O29   1.300954 A    
C34   H18   1.107155 S    
N16   O34   1.300677 A    
O7    C3    1.299642 A    
O3    Cu2   1.949613 S    
O8    C4    1.295638 A    
O4    C2    1.297128 A    
N8    O11   1.300160 A    
N15   O32   1.301022 A    
C10   C12   1.403560 A    
C11   C13   1.414686 A    
C32   H12   1.109072 S    
C12   C14   1.416754 A    
O1    Cu1   1.946104 S    
C20   O25   1.387020 S    
C5    N7    1.438828 S    
C29   H1    1.109560 S    
O6    Cu2   1.973793 S    
N3    C27   1.370060 A    
C21   C23   1.419906 A    
C33   H14   1.114954 S    
N12   O23   1.301181 A    
O3    C1    1.303081 A    
O8    Cu1   1.979176 S    
C15   C17   1.406541 A    
N17   O35   1.300408 A    
C16   C18   1.406354 A    
N10   O17   1.300622 A    
C22   C24   1.410221 A    
C23   C25   1.410994 A    
C12   N9    1.437936 S    
C24   C26   1.404935 A    
C30   H4    1.108056 S    
C31   H9    1.109182 S    
N8    O12   1.300904 A    
C7    C9    1.419578 A    
N18   O38   1.297541 A    
C20   C22   1.427477 A    
C13   C15   1.398589 A    
N16   O33   1.300561 A    
C18   N12   1.438612 S    
C14   N2    1.417572 S    
C26   N16   1.430582 S    
O5    Cu1   1.973792 S    
O26   C34   1.413347 S    
C31   H8    1.113724 S    
N4    C28   1.374628 A    
C34   H16   1.105301 S    
C28   N18   1.432926 S    
N10   O18   1.301657 A    
