data_mof_unit_51249.cif
_audit_creation_date              2012-12-11T14:06:38-0500
_audit_creation_method            fapswitch 2.2
_symmetry_space_group_name_H-M    P1
_symmetry_Int_Tables_number       1
_space_group_crystal_system       triclinic
_cell_length_a                    6.917769
_cell_length_b                    17.322096
_cell_length_c                    24.121974
_cell_angle_alpha                 104.138687
_cell_angle_beta                  90.485086
_cell_angle_gamma                 89.995324
_cell_volume                      2802.87371838

loop_
_atom_site_label
_atom_site_type_symbol
_atom_type_description
_atom_site_fract_x
_atom_site_fract_y
_atom_site_fract_z
_atom_type_partial_charge
O1    O     O_R   0.494290 0.391990 0.999150 -0.511273
O2    O     O_R   0.827170 0.534410 0.082350 -0.563850
O3    O     O_R   0.994360 0.608010 0.000850 -0.544165
C1    C     C_R   0.658895 0.549341 0.106303 0.709593
O4    O     O_R   0.824210 0.388010 0.004470 -0.551569
O5    O     O_R   0.991370 0.460560 0.922410 -0.507962
C2    C     C_R   0.653956 0.354854 0.001326 0.830476
O6    O     O_R   0.497270 0.539440 0.077590 -0.524153
O7    O     O_3   0.659770 0.523970 0.973170 -0.346929
V1    V     V_3+5 0.935840 0.495550 0.004980 1.519384
O8    O     O_R   0.320910 0.465590 0.917650 -0.505013
C3    C     C_R   0.150943 0.451078 0.893710 0.867487
O9    O     O_R   0.323870 0.611990 0.995530 -0.544749
C4    C     C_R   0.154403 0.645137 0.998511 0.765399
V2    V     V_3+5 0.435470 0.504450 0.995020 1.601243
O10   O     O_3   0.161670 0.476030 0.026830 -0.380648
C5    C     C_2   0.142822 0.730240 0.998067 -0.279021
H1    H     H_    0.277402 0.761031 0.994677 0.155604
C6    C     C_2   0.972774 0.769784 0.001994 -0.297328
H2    H     H_    0.838194 0.738988 0.005369 0.142904
C7    C     C_R   0.100924 0.261761 0.623942 0.626583
N1    N     N_R   0.095318 0.342039 0.646675 -0.559324
C8    C     C_R   0.074088 0.393461 0.611966 0.809571
C9    C     C_R   0.074300 0.364647 0.551347 -0.164993
C10   C     C_R   0.059610 0.281387 0.528263 -0.117264
C11   C     C_R   0.059973 0.229855 0.565466 -0.023334
C12   C     C_R   0.086055 0.415453 0.513359 0.330699
C13   C     C_R   0.083593 0.383417 0.453609 0.339600
C14   C     C_R   0.060876 0.300008 0.430403 -0.172625
C15   C     C_R   0.042613 0.249484 0.468297 -0.118220
C16   C     C_R   0.007802 0.166838 0.446327 -0.034922
C17   C     C_R   0.990631 0.116812 0.484693 0.173612
C18   C     C_R   0.015253 0.148578 0.544025 0.158920
C19   C     C_R   0.056130 0.264656 0.370583 0.792336
N2    N     N_R   0.015294 0.185420 0.350181 -0.547663
C20   C     C_R   0.987353 0.136994 0.386435 0.723962
O11   O     O_2   0.148197 0.213124 0.657930 -0.480670
O12   O     O_2   0.051029 0.471542 0.636397 -0.396911
O13   O     O_2   0.093251 0.308161 0.332611 -0.414139
O14   O     O_2   0.939777 0.060081 0.364103 -0.444782
C21   C     C_R   0.143785 0.097617 0.261425 0.138886
C22   C     C_R   0.129790 0.062760 0.202140 0.242668
C23   C     C_R   0.975712 0.083312 0.169378 -0.186229
C24   C     C_R   0.833817 0.137698 0.197410 0.056999
C25   C     C_R   0.846690 0.170949 0.256926 0.335615
C26   C     C_R   0.002514 0.151695 0.288950 0.230006
C27   C     C_R   0.264662 0.418768 0.734153 0.394688
C28   C     C_R   0.278333 0.445908 0.794132 0.295457
C29   C     C_R   0.136651 0.423732 0.829750 -0.350542
C30   C     C_R   0.977749 0.376376 0.803268 0.377298
C31   C     C_R   0.960543 0.352620 0.743405 0.174710
C32   C     C_R   0.106494 0.371948 0.708374 0.097733
C33   C     C_R   0.471652 0.864522 0.613339 0.584198
N3    N     N_R   0.507560 0.816419 0.649432 -0.540762
C34   C     C_R   0.554841 0.738049 0.628675 0.726270
C35   C     C_R   0.560544 0.703695 0.568747 -0.136579
C36   C     C_R   0.540667 0.754804 0.531117 -0.084124
C37   C     C_R   0.502268 0.836874 0.553625 -0.100347
C38   C     C_R   0.585858 0.620697 0.545222 0.430475
C39   C     C_R   0.590440 0.589610 0.485435 0.181383
C40   C     C_R   0.580869 0.641008 0.447942 -0.068267
C41   C     C_R   0.559623 0.723969 0.470994 -0.120294
C42   C     C_R   0.555774 0.775998 0.433789 -0.153811
C43   C     C_R   0.521024 0.858224 0.456869 0.446632
C44   C     C_R   0.495727 0.888282 0.515797 0.106217
C45   C     C_R   0.590887 0.611873 0.387623 0.804186
N4    N     N_R   0.600680 0.663263 0.352755 -0.563492
C46   C     C_R   0.588445 0.743719 0.374668 0.672112
O15   O     O_2   0.404462 0.938516 0.635707 -0.528926
O16   O     O_2   0.597362 0.694407 0.666333 -0.429019
O17   O     O_2   0.590235 0.532906 0.363645 -0.408806
O18   O     O_2   0.611374 0.791869 0.338971 -0.453232
C47   C     C_R   0.471391 0.648332 0.255333 -0.107888
H3    H     H_    0.346139 0.681799 0.274348 0.180748
C48   C     C_R   0.487020 0.624467 0.195553 0.161860
C49   C     C_R   0.648716 0.578900 0.170266 -0.180124
C50   C     C_R   0.796529 0.561641 0.207115 0.048099
C51   C     C_R   0.782811 0.590608 0.266888 0.471710
C52   C     C_R   0.617904 0.632620 0.291350 0.180647
C53   C     C_R   0.343582 0.826164 0.741939 0.159254
C54   C     C_R   0.329220 0.858605 0.801558 0.251432
C55   C     C_R   0.466255 0.915357 0.830683 -0.198537
C56   C     C_R   0.619082 0.937826 0.799149 0.152581
C57   C     C_R   0.633732 0.904907 0.739755 0.143577
C58   C     C_R   0.494724 0.849445 0.710774 0.261594
C59   C     C_2   0.638979 0.269768 0.001772 -0.302161
H4    H     H_    0.773138 0.239226 0.006393 0.106663
C60   C     C_2   0.468010 0.229579 0.996815 0.023991
O19   O     O_R   0.618210 0.960470 0.922400 -0.522751
O20   O     O_R   0.291310 0.111960 0.995450 -0.557133
O21   O     O_R   0.124210 0.039530 0.077580 -0.525067
C61   C     C_R   0.460562 0.144849 0.998192 0.704662
O22   O     O_R   0.288310 0.965490 0.917650 -0.524517
O23   O     O_R   0.121180 0.892010 0.999220 -0.525741
C62   C     C_R   0.456481 0.948667 0.894033 0.822053
O24   O     O_R   0.621230 0.107990 0.000760 -0.546782
O25   O     O_3   0.455770 0.976060 0.026840 -0.352259
V3    V     V_3+5 0.179680 0.004440 0.995020 1.546060
O26   O     O_R   0.791670 0.888040 0.004570 -0.551149
C63   C     C_R   0.961154 0.854890 0.001572 0.823413
O27   O     O_R   0.794680 0.034510 0.082370 -0.518489
C64   C     C_R   0.964277 0.050138 0.106058 0.821282
V4    V     V_3+5 0.680070 0.995560 0.005010 1.558773
O28   O     O_3   0.953840 0.023940 0.973160 -0.375677
Cl1   Cl    Cl    0.665060 0.236576 0.291666 -0.555340
Cl2   Cl    Cl    0.448328 0.443253 0.690883 -0.437748
Cl3   Cl    Cl    0.471334 0.510957 0.823012 -0.470517
Cl4   Cl    Cl    0.800010 0.340666 0.843359 -0.572993
N5    N     N_3   0.791613 0.308813 0.718733 -0.537917
H5    H     H_    0.742615 0.330521 0.684381 0.274645
H6    H     H_    0.828008 0.248984 0.703413 0.273872
Cl5   Cl    Cl    0.604655 0.551447 0.588446 -0.409708
N6    N     N_3   0.607865 0.505159 0.462758 -0.502735
H7    H     H_    0.490585 0.476819 0.476420 0.287755
H8    H     H_    0.734941 0.485632 0.478505 0.281420
Cl6   Cl    Cl    0.494132 0.927325 0.413696 -0.493622
N7    N     N_3   0.471171 0.972659 0.535919 -0.607667
H9    H     H_    0.575988 0.995186 0.567043 0.251912
H10   H     H_    0.332888 0.984085 0.552567 0.272800
N8    N     N_3   0.340826 0.648581 0.160503 -0.640621
H11   H     H_    0.403572 0.690311 0.141274 0.230904
H12   H     H_    0.227236 0.677683 0.185465 0.237371
N9    N     N_3   0.960287 0.513196 0.185355 -0.560431
H13   H     H_    0.045908 0.543010 0.161819 0.263943
H14   H     H_    0.911859 0.459177 0.159245 0.236846
Cl7   Cl    Cl    0.979042 0.576912 0.310802 -0.484380
N10   N     N_3   0.206236 0.768290 0.712332 -0.564960
H15   H     H_    0.067659 0.792286 0.719746 0.266614
H16   H     H_    0.214447 0.718398 0.729397 0.323612
Cl8   Cl    Cl    0.143655 0.823525 0.839261 -0.636930
N11   N     N_3   0.758164 0.995970 0.827490 -0.616715
H17   H     H_    0.754679 0.043883 0.808234 0.259714
H18   H     H_    0.895643 0.970327 0.821579 0.284105
N12   N     N_3   0.793223 0.927963 0.709618 -0.640324
H19   H     H_    0.859041 0.876772 0.685128 0.241264
H20   H     H_    0.740866 0.961134 0.681967 0.270078
N13   N     N_3   0.288505 0.268345 0.990022 -0.612324
H21   H     H_    0.197910 0.264835 0.023804 0.220289
H22   H     H_    0.222820 0.237411 0.951851 0.235940
Cl9   Cl    Cl    0.114166 0.520147 0.538656 -0.486371
Cl10  Cl    Cl    0.101967 0.451571 0.409539 -0.389109
N14   N     N_3   0.950413 0.033387 0.463545 -0.534681
H23   H     H_    0.823660 0.019321 0.482190 0.264277
H24   H     H_    0.064891 0.000725 0.474803 0.253923
N15   N     N_3   0.974585 0.100418 0.583297 -0.594777
H25   H     H_    0.828376 0.085098 0.579623 0.225361
H26   H     H_    0.056566 0.048550 0.573136 0.237994
N16   N     N_3   0.301147 0.078171 0.294642 -0.555373
H27   H     H_    0.430860 0.090935 0.276830 0.290185
H28   H     H_    0.296539 0.017079 0.292094 0.313765
Cl11  Cl    Cl    0.302887 0.990332 0.170620 -0.637578
N17   N     N_3   0.678954 0.160631 0.164865 -0.621460
H29   H     H_    0.684613 0.222308 0.170073 0.262122
H30   H     H_    0.547708 0.146166 0.181028 0.286479

loop_
_geom_bond_atom_site_label_1
_geom_bond_atom_site_label_2
_ccdc_geom_bond_type
O26   V4    S    
C34   C35   A    
C48   C49   A    
O27   C64   A    
C43   Cl6   S    
C21   C22   A    
N2    C20   A    
C9    C12   A    
C1    O6    A    
C33   O15   S    
C3    C29   S    
C36   C37   A    
N9    H13   S    
C33   N3    A    
C24   C25   A    
N13   H22   S    
C57   N12   S    
C14   C15   A    
C13   C14   A    
N16   H28   S    
N7    H10   S    
O5    C3    A    
C15   C16   A    
C59   C60   D    
N9    H14   S    
C2    C59   S    
O23   V3    S    
V2    O10   S    
O25   V3    S    
C61   O24   A    
C35   C36   A    
C19   N2    A    
C47   H3    S    
C37   C44   A    
C38   Cl5   S    
N3    C34   A    
O8    V2    S    
C19   O13   S    
C56   C57   A    
C25   Cl1   S    
C21   C26   A    
O1    V2    S    
O9    C4    A    
O7    V1    S    
C17   N14   S    
C45   N4    A    
C38   C39   A    
O22   C62   A    
C7    N1    A    
O19   V4    S    
C30   Cl4   S    
C47   C48   A    
C4    C5    S    
C39   N6    S    
C40   C45   A    
N15   H26   S    
C7    C11   A    
N8    H12   S    
N15   H25   S    
N1    C8    A    
C31   C32   A    
C27   C28   A    
C60   C61   S    
C20   O14   S    
C57   C58   A    
N4    C52   S    
C9    C10   A    
O4    C2    A    
C59   H4    S    
N12   H20   S    
C36   C41   A    
C10   C11   A    
C50   C51   A    
C14   C19   A    
C54   C55   A    
N4    C46   A    
C39   C40   A    
O19   C62   A    
O2    C1    A    
C23   C24   A    
N10   H16   S    
C45   O17   S    
C56   N11   S    
C53   C58   A    
C50   N9    S    
C11   C18   A    
O20   C61   A    
O26   C63   A    
O23   C63   A    
C46   O18   S    
C27   Cl2   S    
C41   C42   A    
C5    H1    S    
C47   C52   A    
C30   C31   A    
C24   N17   S    
C49   C50   A    
C22   Cl11  S    
O25   V4    S    
O3    C4    A    
C18   N15   S    
C28   C29   A    
N17   H30   S    
C55   C56   A    
O6    V2    S    
O9    V2    S    
N14   H24   S    
C22   C23   A    
O21   C64   A    
N11   H17   S    
C51   Cl7   S    
V4    O28   S    
N8    H11   S    
N1    C32   S    
N6    H7    S    
C10   C15   A    
C42   C46   A    
C55   C62   S    
O1    C2    A    
C16   C17   A    
C48   N8    S    
C53   C54   A    
N11   H18   S    
O5    V1    S    
N3    C58   S    
C33   C37   A    
C27   C32   A    
C53   N10   S    
C8    O12   S    
N13   H21   S    
N12   H19   S    
C12   Cl9   S    
C35   C38   A    
C17   C18   A    
C6    H2    S    
N5    H6    S    
O7    V2    S    
C23   C64   S    
O4    V1    S    
O3    V1    S    
V1    O10   S    
N7    H9    S    
C43   C44   A    
C6    C63   S    
C51   C52   A    
C54   Cl8   S    
C21   N16   S    
V3    O28   S    
C5    C6    D    
N16   H27   S    
O21   V3    S    
C40   C41   A    
C60   N13   S    
C1    C49   S    
C34   O16   S    
C8    C9    A    
C42   C43   A    
C28   Cl3   S    
C25   C26   A    
C7    O11   S    
N17   H29   S    
O27   V4    S    
C29   C30   A    
O24   V4    S    
C12   C13   A    
N14   H23   S    
C44   N7    S    
C16   C20   A    
C13   Cl10  S    
C31   N5    S    
N5    H5    S    
N2    C26   S    
O22   V3    S    
O20   V3    S    
N10   H15   S    
O8    C3    A    
N6    H8    S    
O2    V1    S    
