data_mof_unit_47406.cif
_audit_creation_date              2012-10-26T18:40:33-0400
_audit_creation_method            fapswitch 2.2
_symmetry_space_group_name_H-M    P1
_symmetry_Int_Tables_number       1
_space_group_crystal_system       triclinic
_cell_length_a                    15.178987
_cell_length_b                    13.925383
_cell_length_c                    11.678607
_cell_angle_alpha                 90.302603
_cell_angle_beta                  92.333945
_cell_angle_gamma                 89.393716
_cell_volume                      2466.32967203

loop_
_atom_site_label
_atom_site_type_symbol
_atom_type_description
_atom_site_fract_x
_atom_site_fract_y
_atom_site_fract_z
_atom_type_partial_charge
C1    C     C_R   0.330030 0.500308 0.501445 0.601312
C2    C     C_R   0.500053 0.500158 0.715990 0.528890
C3    C     C_R   0.520180 0.106764 0.598698 0.205453
C4    C     C_R   0.422217 0.890324 0.455120 0.206530
C5    C     C_R   0.467303 0.107954 0.401634 0.215705
C6    C     C_R   0.570294 0.895929 0.537263 0.233631
C7    C     C_1   0.500475 0.499345 0.162419 -0.041110
C8    C     C_1   0.500359 0.500393 0.837648 -0.021894
C9    C     C_1   0.500584 0.499567 0.059919 -0.058804
C10   C     C_1   0.500540 0.500105 0.940170 -0.050658
C11   C     C_R   0.532173 0.207633 0.593040 0.360009
C12   C     C_R   0.670259 0.499102 0.494841 0.539841
C13   C     C_R   0.433170 0.789506 0.441933 0.351217
C14   C     C_R   0.462937 0.209732 0.407610 0.336455
C15   C     C_R   0.568603 0.794100 0.550403 0.339512
C16   C     C_R   0.092816 0.542979 0.410715 0.232533
C17   C     C_R   0.903919 0.402159 0.465626 0.266807
C18   C     C_R   0.908792 0.575364 0.497989 0.248568
C19   C     C_R   0.098279 0.430509 0.569835 0.221979
C20   C     C_R   0.182884 0.560568 0.429553 0.180601
C21   C     C_R   0.811609 0.406271 0.466021 0.212176
C22   C     C_R   0.817063 0.580359 0.488478 0.202337
C23   C     C_R   0.233409 0.499188 0.502174 -0.062094
C24   C     C_R   0.191266 0.431288 0.570095 0.194758
C25   C     C_3   0.462172 0.061333 0.765376 -0.139343
C26   C     C_3   0.292204 0.958893 0.503028 -0.135829
C27   C     C_3   0.519148 0.051437 0.235106 -0.115633
C28   C     C_3   0.697036 0.945299 0.638391 -0.056949
C29   C     C_3   0.660802 0.233250 0.697121 0.027398
C30   C     C_3   0.707820 0.313119 0.763800 -0.358814
C31   C     C_3   0.397299 0.761019 0.253952 0.020082
C32   C     C_3   0.340402 0.700713 0.171486 -0.345193
C33   C     C_3   0.332520 0.251358 0.316584 0.018510
C34   C     C_R   0.767277 0.495390 0.483387 -0.099515
C35   C     C_3   0.289965 0.326960 0.237922 -0.368037
C36   C     C_3   0.637569 0.719588 0.708232 0.039332
C37   C     C_3   0.721294 0.741584 0.780240 -0.419561
C38   C     C_3   0.065417 0.550149 0.217601 -0.000925
C39   C     C_3   0.000577 0.588606 0.125900 -0.385913
C40   C     C_3   0.983883 0.305014 0.347442 0.004580
C41   C     C_3   0.989395 0.199507 0.314030 -0.370669
C42   C     C_3   0.976671 0.674331 0.629740 0.001046
C43   C     C_3   0.993873 0.780398 0.651169 -0.370860
C44   C     C_3   0.042854 0.424099 0.747490 0.002049
C45   C     C_R   0.049494 0.484870 0.487651 -0.020328
C46   C     C_3   0.008612 0.356346 0.836729 -0.371668
C47   C     C_3   0.192814 0.722722 0.421734 -0.050483
C48   C     C_3   0.739539 0.308642 0.337487 -0.082460
C49   C     C_3   0.769464 0.704331 0.377020 -0.046949
C50   C     C_3   0.224964 0.276543 0.628894 -0.062938
C51   C     C_R   0.952675 0.486644 0.484916 -0.012226
C52   C     C_R   0.492534 0.054572 0.499854 0.008940
C53   C     C_R   0.493476 0.945501 0.499590 0.008725
C54   C     C_R   0.500092 0.499772 0.284030 0.521878
Cu1   Cu    Cu3+1 0.500000 0.596430 0.500000 1.011863
Cu2   Cu    Cu3+1 0.500000 0.403570 0.500000 1.046091
H1    H     H_    0.408785 0.018414 0.722802 0.088682
H2    H     H_    0.727990 0.016591 0.650425 0.117315
H3    H     H_    0.751531 0.891868 0.635406 0.159051
H4    H     H_    0.655555 0.933399 0.713231 0.149754
H5    H     H_    0.691963 0.225544 0.612703 0.177390
H6    H     H_    0.670821 0.165495 0.745900 0.151650
H7    H     H_    0.680004 0.321114 0.849883 0.142625
H8    H     H_    0.779212 0.295655 0.774188 0.092664
H9    H     H_    0.699769 0.382142 0.717229 0.168496
H10   H     H_    0.467866 0.744967 0.238122 0.120992
H11   H     H_    0.383605 0.837881 0.233888 0.164828
H12   H     H_    0.438822 0.136072 0.781661 0.146141
H13   H     H_    0.270202 0.723185 0.175508 0.162827
H14   H     H_    0.361719 0.710742 0.082540 0.076395
H15   H     H_    0.346585 0.623505 0.193820 0.184990
H16   H     H_    0.312003 0.179357 0.284475 0.170085
H17   H     H_    0.307062 0.262528 0.403729 0.119060
H18   H     H_    0.217047 0.321046 0.238128 0.065650
H19   H     H_    0.308822 0.400003 0.267851 0.163465
H20   H     H_    0.311768 0.316344 0.149073 0.159611
H21   H     H_    0.635586 0.640541 0.708620 0.184501
H22   H     H_    0.579056 0.749744 0.751470 0.094764
H23   H     H_    0.478341 0.027979 0.849781 0.132115
H24   H     H_    0.719817 0.815426 0.815504 0.099163
H25   H     H_    0.726844 0.692143 0.854635 0.089113
H26   H     H_    0.780510 0.731308 0.728640 0.186775
H27   H     H_    0.060306 0.470374 0.217930 0.089014
H28   H     H_    0.133105 0.570328 0.194385 0.164815
H29   H     H_    0.004594 0.668110 0.122034 0.156338
H30   H     H_    0.016474 0.558060 0.041072 0.081514
H31   H     H_    0.932370 0.568158 0.145927 0.141479
H32   H     H_    0.052196 0.332733 0.353429 0.117479
H33   H     H_    0.946106 0.343958 0.277739 0.092186
H34   H     H_    0.284798 0.898514 0.564048 0.086799
H35   H     H_    0.922289 0.168473 0.307063 0.158367
H36   H     H_    0.020675 0.192018 0.230077 0.081816
H37   H     H_    0.029668 0.159287 0.379668 0.157271
H38   H     H_    0.037788 0.633421 0.654042 0.104636
H39   H     H_    0.922807 0.652380 0.686088 0.110898
H40   H     H_    0.048990 0.804628 0.599094 0.134562
H41   H     H_    0.011695 0.792516 0.743234 0.081464
H42   H     H_    0.933693 0.823204 0.627781 0.165593
H43   H     H_    0.992850 0.482055 0.732584 0.100125
H44   H     H_    0.105556 0.455737 0.782694 0.141870
H45   H     H_    0.225396 0.977599 0.467426 0.125288
H46   H     H_    0.057643 0.298105 0.855044 0.149079
H47   H     H_    0.997008 0.396429 0.917272 0.078206
H48   H     H_    0.945613 0.324150 0.804769 0.161079
H49   H     H_    0.119851 0.730376 0.421012 0.161770
H50   H     H_    0.216196 0.783142 0.370070 0.177521
H51   H     H_    0.220752 0.730911 0.510759 0.114135
H52   H     H_    0.797224 0.294156 0.284433 0.102516
H53   H     H_    0.701396 0.371455 0.302618 0.107095
H54   H     H_    0.695916 0.245283 0.330136 0.134000
H55   H     H_    0.835336 0.713933 0.340353 0.139345
H56   H     H_    0.318124 0.023408 0.548742 0.098061
H57   H     H_    0.736334 0.775710 0.378108 0.161183
H58   H     H_    0.728201 0.656199 0.321015 0.086491
H59   H     H_    0.196422 0.258556 0.541980 0.096468
H60   H     H_    0.180403 0.250885 0.694977 0.159297
H61   H     H_    0.288123 0.236130 0.640026 0.105008
H62   H     H_    0.570643 0.006784 0.280655 0.120425
H63   H     H_    0.546324 0.122572 0.212728 0.130316
H64   H     H_    0.500363 0.014005 0.153800 0.122281
N1    N     N_R   0.500000 0.258690 0.500000 -0.265402
N2    N     N_R   0.500000 0.741310 0.500000 -0.278274
O1    O     O_R   0.371460 0.581430 0.500010 -0.431446
O2    O     O_3   0.345677 0.933585 0.411472 -0.532379
O3    O     O_3   0.443458 0.061758 0.300236 -0.529348
O4    O     O_3   0.649257 0.945222 0.532685 -0.565171
O5    O     O_3   0.569892 0.255888 0.685990 -0.510976
O6    O     O_3   0.377210 0.739191 0.368230 -0.479208
O7    O     O_3   0.425218 0.259988 0.316209 -0.507682
O8    O     O_3   0.644988 0.749413 0.593053 -0.482615
O9    O     O_3   0.044702 0.590450 0.324529 -0.522914
O10   O     O_3   0.944783 0.313158 0.455069 -0.484469
O11   O     O_3   0.955091 0.660053 0.512160 -0.509502
O12   O     O_R   0.628540 0.418570 0.499990 -0.467433
O13   O     O_3   0.055585 0.372416 0.645145 -0.515771
O14   O     O_3   0.221511 0.635035 0.373030 -0.536982
O15   O     O_3   0.765792 0.321227 0.453912 -0.530011
O16   O     O_3   0.777084 0.669661 0.490326 -0.483536
O17   O     O_3   0.242011 0.375336 0.646235 -0.548305
O18   O     O_R   0.628540 0.581430 0.499990 -0.436102
O19   O     O_R   0.371460 0.418570 0.500010 -0.480038
O20   O     O_R   0.500010 0.581440 0.337200 -0.494772
O21   O     O_R   0.499990 0.418560 0.662800 -0.426315
O22   O     O_R   0.499990 0.581440 0.662800 -0.546694
O23   O     O_R   0.500010 0.418560 0.337200 -0.450832
O24   O     O_3   0.538534 0.059607 0.700729 -0.587671

loop_
_geom_bond_atom_site_label_1
_geom_bond_atom_site_label_2
_ccdc_geom_bond_type
C31   H10   S    
C49   H57   S    
Cu1   Cu2   S    
C35   H18   S    
C15   N2    A    
C30   H8    S    
C38   H27   S    
C50   H61   S    
C2    O22   A    
C48   H54   S    
C43   H42   S    
C39   H31   S    
C17   C51   A    
C27   H64   S    
C31   H11   S    
C46   H46   S    
C35   H19   S    
C25   H1    S    
C48   O15   S    
C42   O11   S    
C36   C37   S    
C36   H21   S    
C26   H45   S    
C38   C39   S    
C47   O14   S    
C44   H43   S    
C28   H3    S    
C45   C51   S    
C19   O13   S    
Cu2   O23   S    
C4    O2    S    
C18   O11   S    
C50   H59   S    
C4    C13   A    
C16   O9    S    
C33   H16   S    
C6    C15   A    
C13   O6    S    
C41   H37   S    
C44   C46   S    
C47   H49   S    
C23   C24   A    
C12   O18   A    
C5    C52   A    
C25   O24   S    
C21   O15   S    
C40   H33   S    
C9    C10   S    
C49   H55   S    
C44   O13   S    
C48   H53   S    
C40   O10   S    
Cu1   N2    S    
C14   N1    A    
C42   H38   S    
C30   H7    S    
C17   O10   S    
C2    O21   A    
Cu2   O21   S    
C37   H25   S    
C11   N1    A    
C25   H12   S    
C26   O2    S    
C31   O6    S    
C28   O4    S    
C18   C51   A    
C32   H15   S    
Cu1   O1    S    
C28   H4    S    
C24   O17   S    
C22   C34   A    
C37   H24   S    
C29   H5    S    
C35   H20   S    
C42   H39   S    
C30   H9    S    
C1    O19   A    
C6    O4    S    
C50   O17   S    
C32   H14   S    
C21   C34   A    
C46   H48   S    
C17   C21   A    
Cu1   O18   S    
C11   O5    S    
C41   H35   S    
C1    O1    A    
C29   C30   S    
C36   O8    S    
C31   C32   S    
C20   C23   A    
C16   C20   A    
C47   H50   S    
C43   H40   S    
C20   O14   S    
C5    C14   A    
C54   O23   A    
Cu2   O19   S    
C33   H17   S    
C40   C41   S    
C54   O20   A    
C1    C23   S    
C28   H2    S    
C29   O5    S    
C37   H26   S    
C42   C43   S    
C39   H29   S    
C6    C53   A    
C12   C34   S    
C26   H56   S    
C52   C53   S    
C27   H62   S    
C33   O7    S    
C7    C9    T    
C29   H6    S    
Cu1   O22   S    
C38   H28   S    
C18   C22   A    
C2    C8    S    
C43   H41   S    
C25   H23   S    
C16   C45   A    
Cu2   O12   S    
C3    C52   A    
C19   C45   A    
C32   H13   S    
C27   H63   S    
C26   H34   S    
C46   H47   S    
C22   O16   S    
C47   H51   S    
C7    C54   S    
Cu2   N1    S    
C40   H32   S    
C19   C24   A    
C36   H22   S    
C38   O9    S    
C13   N2    A    
C44   H44   S    
C48   H52   S    
C15   O8    S    
C27   O3    S    
C33   C35   S    
C49   H58   S    
C50   H60   S    
C4    C53   A    
C3    C11   A    
C41   H36   S    
C3    O24   S    
C8    C10   T    
C5    O3    S    
Cu1   O20   S    
C12   O12   A    
C39   H30   S    
C49   O16   S    
C14   O7    S    
