data_mof_unit_40798.cif
_audit_creation_date              2013-03-05T15:50:13-0500
_audit_creation_method            fapswitch 2.2
_symmetry_space_group_name_H-M    P1
_symmetry_Int_Tables_number       1
_space_group_crystal_system       triclinic
_cell_length_a                    18.307904
_cell_length_b                    25.909459
_cell_length_c                    18.36095
_cell_angle_alpha                 90.348118
_cell_angle_beta                  90.036729
_cell_angle_gamma                 90.167052
_cell_volume                      8709.27819113

loop_
_atom_site_label
_atom_site_type_symbol
_atom_site_description
_atom_site_fract_x
_atom_site_fract_y
_atom_site_fract_z
_atom_type_partial_charge
Zn1   Zn    Zn3+2 0.249990 0.293780 0.913250 0.951785
Zn2   Zn    Zn3+2 0.249990 0.706220 0.086750 0.971660
Zn3   Zn    Zn3+2 0.249990 0.706220 0.913250 0.951849
Zn4   Zn    Zn3+2 0.249990 0.293780 0.086750 0.977461
Zn5   Zn    Zn3+2 0.749990 0.793780 0.413250 0.952308
Zn6   Zn    Zn3+2 0.749990 0.206220 0.586750 0.975584
Zn7   Zn    Zn3+2 0.749990 0.206220 0.413250 0.949454
Zn8   Zn    Zn3+2 0.749990 0.793780 0.586750 0.970724
Zn9   Zn    Zn3+2 0.336760 0.206240 0.000000 0.958740
Zn10  Zn    Zn3+2 0.336760 0.793760 0.000000 0.950506
Zn11  Zn    Zn3+2 0.836760 0.706240 0.500000 0.955909
Zn12  Zn    Zn3+2 0.836760 0.293760 0.500000 0.953199
Zn13  Zn    Zn3+2 0.163250 0.206230 0.000000 0.993631
Zn14  Zn    Zn3+2 0.163250 0.793770 0.000000 0.984039
Zn15  Zn    Zn3+2 0.663250 0.706230 0.500000 0.993568
Zn16  Zn    Zn3+2 0.663250 0.293770 0.500000 0.987344
O1    O     O_3   0.249990 0.250010 0.000000 -0.488780
O2    O     O_3   0.249990 0.749990 0.000000 -0.488790
O3    O     O_3   0.749990 0.750010 0.500000 -0.490149
O4    O     O_3   0.749990 0.249990 0.500000 -0.490864
O5    O     O_R   0.335430 0.280650 0.146160 -0.626668
O6    O     O_R   0.335430 0.719350 0.853840 -0.643707
O7    O     O_R   0.335430 0.719350 0.146160 -0.632015
O8    O     O_R   0.335430 0.280650 0.853840 -0.637470
O9    O     O_R   0.835430 0.780650 0.646160 -0.630853
O10   O     O_R   0.835430 0.219350 0.353840 -0.642003
O11   O     O_R   0.835430 0.219350 0.646160 -0.626079
O12   O     O_R   0.835430 0.780650 0.353840 -0.636604
O13   O     O_R   0.164550 0.280640 0.853840 -0.660757
O14   O     O_R   0.164550 0.719360 0.146160 -0.625716
O15   O     O_R   0.164550 0.719360 0.853840 -0.626886
O16   O     O_R   0.164550 0.280640 0.146160 -0.622665
O17   O     O_R   0.664550 0.780640 0.353840 -0.647552
O18   O     O_R   0.664550 0.219360 0.646160 -0.629683
O19   O     O_R   0.664550 0.219360 0.353840 -0.626893
O20   O     O_R   0.664550 0.780640 0.646160 -0.631463
O21   O     O_R   0.396160 0.219380 0.914560 -0.636783
O22   O     O_R   0.396160 0.780620 0.085440 -0.657622
O23   O     O_R   0.396160 0.780620 0.914560 -0.631869
O24   O     O_R   0.396160 0.219380 0.085440 -0.640332
O25   O     O_R   0.896160 0.719380 0.414560 -0.637519
O26   O     O_R   0.896160 0.280620 0.585440 -0.646412
O27   O     O_R   0.896160 0.280620 0.414560 -0.638437
O28   O     O_R   0.896160 0.719380 0.585440 -0.639159
O29   O     O_R   0.103840 0.219370 0.085450 -0.637574
O30   O     O_R   0.103840 0.780630 0.914550 -0.621611
O31   O     O_R   0.103840 0.780630 0.085450 -0.634617
O32   O     O_R   0.103840 0.219370 0.914550 -0.608676
O33   O     O_R   0.603840 0.719370 0.585450 -0.622451
O34   O     O_R   0.603840 0.280630 0.414550 -0.615290
O35   O     O_R   0.603840 0.280630 0.585450 -0.632198
O36   O     O_R   0.603840 0.719370 0.414550 -0.620591
O37   O     O_R   0.310730 0.133160 0.000000 -0.647602
O38   O     O_R   0.310730 0.866840 0.000000 -0.647113
O39   O     O_R   0.810730 0.633160 0.500000 -0.644971
O40   O     O_R   0.810730 0.366840 0.500000 -0.645700
O41   O     O_R   0.249970 0.366860 0.060720 -0.646615
O42   O     O_R   0.249970 0.633140 0.939280 -0.648322
O43   O     O_R   0.249970 0.633140 0.060720 -0.644108
O44   O     O_R   0.249970 0.366860 0.939280 -0.645682
O45   O     O_R   0.749970 0.866860 0.560720 -0.640996
O46   O     O_R   0.749970 0.133140 0.439280 -0.649420
O47   O     O_R   0.749970 0.133140 0.560720 -0.639484
O48   O     O_R   0.749970 0.866860 0.439280 -0.656380
O49   O     O_R   0.189290 0.133150 0.000000 -0.635504
O50   O     O_R   0.189290 0.866850 0.000000 -0.636192
O51   O     O_R   0.689290 0.633150 0.500000 -0.645666
O52   O     O_R   0.689290 0.366850 0.500000 -0.632922
C1    C     C_R   0.390177 0.250497 0.139373 0.783571
C2    C     C_R   0.390096 0.749516 0.860567 0.787392
C3    C     C_R   0.389698 0.750951 0.140001 0.779168
C4    C     C_R   0.389909 0.250000 0.860448 0.779403
C5    C     C_R   0.890014 0.750582 0.639443 0.783793
C6    C     C_R   0.889832 0.250017 0.360302 0.783656
C7    C     C_R   0.890021 0.249814 0.639512 0.775971
C8    C     C_R   0.889883 0.749934 0.360410 0.780814
C9    C     C_R   0.109090 0.251372 0.861334 0.835076
C10   C     C_R   0.110043 0.750086 0.139681 0.859254
C11   C     C_R   0.109139 0.748322 0.860929 0.828985
C12   C     C_R   0.109520 0.250196 0.139473 0.863529
C13   C     C_R   0.609021 0.751440 0.361354 0.829255
C14   C     C_R   0.609877 0.249866 0.639503 0.857216
C15   C     C_R   0.609304 0.248414 0.360898 0.823933
C16   C     C_R   0.611157 0.749131 0.641013 0.858478
C17   C     C_R   0.249877 0.109251 0.999491 0.776656
C18   C     C_R   0.249806 0.890625 0.998780 0.782902
C19   C     C_R   0.749326 0.609187 0.498742 0.776138
C20   C     C_R   0.750077 0.390646 0.499802 0.780954
C21   C     C_R   0.250515 0.391341 0.000287 0.737992
C22   C     C_R   0.250348 0.608630 0.999969 0.739738
C23   C     C_R   0.750242 0.891342 0.500258 0.729020
C24   C     C_R   0.749985 0.108627 0.499983 0.743798
C25   C     C_3   0.261257 0.470668 0.079390 -0.366954
C26   C     C_3   0.178313 0.529358 0.968900 -0.403088
C27   C     C_3   0.259999 0.530073 0.079232 -0.362909
C28   C     C_3   0.177667 0.469749 0.970851 -0.398594
C29   C     C_3   0.752601 0.970630 0.579916 -0.369275
C30   C     C_3   0.680280 0.029358 0.463396 -0.399243
C31   C     C_3   0.752713 0.030017 0.579715 -0.361490
C32   C     C_3   0.680466 0.969738 0.463337 -0.402454
H1    H     H_    0.314119 0.457148 0.102304 0.191076
H2    H     H_    0.171571 0.541895 0.911701 0.178468
H3    H     H_    0.311633 0.545050 0.103621 0.184291
H4    H     H_    0.167417 0.454185 0.915124 0.181587
H5    H     H_    0.802417 0.956657 0.608382 0.197771
H6    H     H_    0.677272 0.042760 0.406303 0.178506
H7    H     H_    0.802697 0.044399 0.607930 0.197544
H8    H     H_    0.677542 0.955450 0.406145 0.174715
H9    H     H_    0.216939 0.456264 0.115522 0.187212
H10   H     H_    0.131196 0.544707 0.000521 0.144685
H11   H     H_    0.214097 0.543748 0.114041 0.186892
H12   H     H_    0.132110 0.456709 0.006278 0.161236
H13   H     H_    0.704336 0.956610 0.611008 0.180023
H14   H     H_    0.630885 0.043826 0.492243 0.144096
H15   H     H_    0.704632 0.044238 0.610973 0.179835
H16   H     H_    0.631117 0.955507 0.492216 0.154262
H17   H     H_    0.170731 0.904472 0.884459 0.184535
H18   H     H_    0.165862 0.094153 0.888500 0.203817
H19   H     H_    0.667956 0.404736 0.386747 0.179112
H20   H     H_    0.636704 0.591230 0.409004 0.215550
H21   H     H_    0.367587 0.455399 0.973666 0.150593
H22   H     H_    0.310632 0.544017 0.896877 0.185835
H23   H     H_    0.367929 0.543981 0.976164 0.153012
H24   H     H_    0.308101 0.455978 0.896026 0.189871
H25   H     H_    0.868999 0.956031 0.485796 0.158266
H26   H     H_    0.817417 0.043574 0.401771 0.181855
H27   H     H_    0.868799 0.044581 0.484991 0.162263
H28   H     H_    0.818078 0.955432 0.402328 0.184055
C33   C     C_3   0.314361 0.470012 0.953104 -0.386507
C34   C     C_3   0.315019 0.529760 0.953764 -0.394668
C35   C     C_3   0.818060 0.970043 0.459458 -0.388237
C36   C     C_3   0.817845 0.029794 0.459065 -0.391641
C37   C     C_3   0.251022 0.449104 0.000897 0.186389
C38   C     C_3   0.250932 0.550813 0.000379 0.185458
C39   C     C_3   0.750362 0.949099 0.500792 0.189300
C40   C     C_3   0.750222 0.050804 0.500437 0.183054
H29   H     H_    0.191232 0.145565 0.658135 0.127016
H30   H     H_    0.125396 0.909990 0.279725 0.135316
H31   H     H_    0.177273 0.873040 0.674300 0.125229
H32   H     H_    0.874059 0.294568 0.031993 0.146200
H33   H     H_    0.605031 0.583395 0.239805 0.129220
H34   H     H_    0.632807 0.406059 0.786257 0.130575
H35   H     H_    0.666431 0.383411 0.185546 0.122815
H36   H     H_    0.706740 0.668940 0.861055 0.132776
C41   C     C_R   0.982123 0.323222 0.870076 0.223855
C42   C     C_R   0.003284 0.664620 0.149004 0.234500
C43   C     C_R   0.000689 0.662990 0.845065 0.195239
C44   C     C_R   0.143425 0.214452 0.288542 0.238948
C45   C     C_R   0.549838 0.849453 0.305476 0.273929
C46   C     C_R   0.501124 0.165226 0.647247 0.232265
C47   C     C_R   0.507512 0.160011 0.340814 0.195916
C48   C     C_R   0.471586 0.801912 0.618275 0.229755
C49   C     C_R   0.914582 0.348756 0.877970 -0.164144
C50   C     C_R   0.960347 0.620854 0.162236 -0.189729
C51   C     C_R   0.937641 0.632598 0.852320 -0.196111
C52   C     C_R   0.160510 0.205100 0.361560 -0.182562
C53   C     C_R   0.544108 0.893125 0.261297 -0.185152
C54   C     C_R   0.455559 0.122525 0.658746 -0.190909
C55   C     C_R   0.446786 0.127244 0.345968 -0.194722
C56   C     C_R   0.400466 0.817698 0.601699 -0.178382
C57   C     C_R   0.497226 0.892412 0.202639 -0.199424
C58   C     C_R   0.407732 0.121567 0.717080 -0.181177
C59   C     C_R   0.386793 0.134599 0.301334 -0.196181
C60   C     C_R   0.344226 0.809645 0.650831 -0.177713
C61   C     C_R   0.858172 0.340453 0.829025 -0.212183
C62   C     C_R   0.913881 0.619232 0.221643 -0.178034
C63   C     C_R   0.875607 0.643392 0.811782 -0.197426
C64   C     C_R   0.107940 0.210259 0.415015 -0.185355
C65   C     C_R   0.458054 0.847885 0.186773 -0.152346
C66   C     C_R   0.404023 0.163406 0.764435 -0.151848
C67   C     C_R   0.388534 0.173071 0.249069 -0.170120
C68   C     C_R   0.358824 0.787317 0.717879 -0.152768
C69   C     C_R   0.868251 0.308175 0.769558 -0.147074
C70   C     C_R   0.908577 0.661575 0.267988 -0.149771
C71   C     C_R   0.877279 0.682652 0.760560 -0.150228
C72   C     C_R   0.037257 0.223978 0.396343 -0.150005
C73   C     C_R   0.476722 0.799862 0.219155 0.033225
C74   C     C_R   0.451020 0.206551 0.756472 0.038217
C75   C     C_R   0.445338 0.210078 0.247789 0.053992
C76   C     C_R   0.429771 0.769313 0.735220 0.038297
C77   C     C_R   0.934476 0.281156 0.759450 0.059155
C78   C     C_R   0.953160 0.705798 0.258268 0.038157
C79   C     C_R   0.939740 0.714501 0.753030 0.054610
C80   C     C_R   0.018431 0.236185 0.323480 0.036476
C81   C     C_R   0.990706 0.285786 0.812429 -0.012249
C82   C     C_R   0.003935 0.706697 0.200049 0.036821
C83   C     C_R   0.998930 0.708444 0.801544 0.028900
C84   C     C_R   0.072683 0.233218 0.268641 0.037227
C85   C     C_R   0.526543 0.800282 0.278026 0.026775
C86   C     C_R   0.502443 0.207079 0.698730 0.035750
C87   C     C_R   0.503250 0.205985 0.298249 0.030916
C88   C     C_R   0.485942 0.773529 0.682856 0.044051
C89   C     C_R   0.448500 0.751837 0.193538 -0.144748
C90   C     C_R   0.446104 0.249399 0.804328 -0.134892
C91   C     C_R   0.446085 0.249940 0.195707 -0.134117
C92   C     C_R   0.446015 0.748878 0.804476 -0.137632
C93   C     C_R   0.945501 0.250516 0.696426 -0.124885
C94   C     C_R   0.946286 0.749415 0.304500 -0.136040
C95   C     C_R   0.945284 0.750659 0.696218 -0.127601
C96   C     C_R   0.946151 0.249988 0.304600 -0.142495
C97   C     C_R   0.483991 0.705225 0.211611 0.082470
C98   C     C_R   0.494442 0.291706 0.798605 0.082014
C99   C     C_R   0.503327 0.286531 0.193891 0.075553
C100  C     C_R   0.515746 0.728589 0.820406 0.078782
C101  C     C_R   0.010383 0.222241 0.686281 0.081951
C102  C     C_R   0.992633 0.792703 0.297037 0.082708
C103  C     C_R   0.006441 0.783702 0.690419 0.074136
C104  C     C_R   0.926950 0.262317 0.232326 0.083337
C105  C     C_R   0.065036 0.224058 0.740414 0.095444
C106  C     C_R   0.046654 0.792604 0.242235 0.060421
C107  C     C_R   0.061252 0.782269 0.744562 0.093600
C108  C     C_R   0.980821 0.260568 0.177544 0.059187
C109  C     C_R   0.539295 0.705931 0.265169 0.081605
C110  C     C_R   0.548516 0.291438 0.743865 0.062339
C111  C     C_R   0.558337 0.285069 0.247796 0.098580
C112  C     C_R   0.570226 0.728624 0.765987 0.059081
C113  C     C_R   0.053469 0.253539 0.804621 -0.151324
C114  C     C_R   0.052248 0.749738 0.194292 -0.163927
C115  C     C_R   0.055072 0.746635 0.802280 -0.150054
C116  C     C_R   0.053826 0.247827 0.196239 -0.171957
C117  C     C_R   0.554045 0.752285 0.303941 -0.166035
C118  C     C_R   0.552273 0.249403 0.694285 -0.161776
C119  C     C_R   0.555473 0.246774 0.302298 -0.149735
C120  C     C_R   0.554892 0.750626 0.697339 -0.163330
C121  C     C_R   0.470648 0.658781 0.172261 -0.158694
C122  C     C_R   0.491282 0.333927 0.847984 -0.148999
C123  C     C_R   0.507628 0.324192 0.138476 -0.136297
C124  C     C_R   0.531793 0.706805 0.889170 -0.147487
C125  C     C_R   0.021547 0.191369 0.623318 -0.137073
C126  C     C_R   0.987673 0.835748 0.344831 -0.150463
C127  C     C_R   0.014219 0.818257 0.631473 -0.139381
C128  C     C_R   0.854963 0.277711 0.213706 -0.144195
C129  C     C_R   0.513314 0.615167 0.183362 -0.096644
C130  C     C_R   0.540601 0.374788 0.843121 -0.145019
C131  C     C_R   0.566132 0.358651 0.135645 -0.076930
C132  C     C_R   0.600219 0.685744 0.903503 -0.139301
C133  C     C_R   0.085972 0.163655 0.613887 -0.128698
C134  C     C_R   0.034949 0.877658 0.338159 -0.146895
C135  C     C_R   0.075563 0.849938 0.625812 -0.070273
C136  C     C_R   0.836291 0.289016 0.142105 -0.142622
C137  C     C_R   0.140948 0.166786 0.665872 -0.083965
C138  C     C_R   0.088382 0.877525 0.284523 -0.128789
C139  C     C_R   0.129864 0.848204 0.678688 -0.073796
C140  C     C_R   0.888646 0.285884 0.087741 -0.140661
C141  C     C_R   0.570337 0.616786 0.233033 -0.076556
C142  C     C_R   0.594199 0.374434 0.789640 -0.133660
C143  C     C_R   0.620946 0.356687 0.187974 -0.086920
C144  C     C_R   0.653730 0.685518 0.849873 -0.129118
C145  C     C_R   0.130955 0.196567 0.728500 -0.071930
C146  C     C_R   0.094643 0.835553 0.237175 -0.143581
C147  C     C_R   0.122906 0.815055 0.737784 -0.100965
C148  C     C_R   0.960137 0.272291 0.104994 -0.161271
C149  C     C_R   0.582784 0.661187 0.274372 -0.099657
C150  C     C_R   0.598514 0.333333 0.740572 -0.143901
C151  C     C_R   0.617076 0.320690 0.243921 -0.101277
C152  C     C_R   0.639158 0.706490 0.781708 -0.145203
H37   H     H_    0.905458 0.377025 0.920491 0.146071
H38   H     H_    0.960462 0.588784 0.124108 0.128374
H39   H     H_    0.938180 0.598612 0.886369 0.128091
H40   H     H_    0.214538 0.191891 0.376560 0.143103
H41   H     H_    0.567617 0.929636 0.278555 0.134482
H42   H     H_    0.455081 0.090704 0.620202 0.130100
H43   H     H_    0.448707 0.093332 0.380118 0.127029
H44   H     H_    0.389527 0.838593 0.551968 0.136065
H45   H     H_    0.487254 0.927536 0.172686 0.165233
H46   H     H_    0.371634 0.088835 0.724417 0.149341
H47   H     H_    0.341220 0.107961 0.303418 0.139769
H48   H     H_    0.289666 0.822812 0.638223 0.141382
H49   H     H_    0.807033 0.360857 0.835632 0.144929
H50   H     H_    0.879664 0.585679 0.230333 0.145733
H51   H     H_    0.827621 0.619151 0.816679 0.136965
H52   H     H_    0.121605 0.202178 0.471060 0.150200
H53   H     H_    0.415672 0.852785 0.147109 0.174952
H54   H     H_    0.363705 0.161300 0.807331 0.137292
H55   H     H_    0.345452 0.173146 0.209155 0.127852
H56   H     H_    0.313766 0.784563 0.755697 0.137139
H57   H     H_    0.823335 0.304833 0.731463 0.122646
H58   H     H_    0.868891 0.658991 0.311381 0.139940
H59   H     H_    0.829418 0.687544 0.726685 0.113511
H60   H     H_    0.997948 0.224600 0.440156 0.146157
H61   H     H_    0.430213 0.656106 0.129547 0.136733
H62   H     H_    0.451308 0.335655 0.891300 0.118992
H63   H     H_    0.466516 0.326936 0.096302 0.108757
H64   H     H_    0.491628 0.705372 0.932320 0.122611
H65   H     H_    0.980583 0.188070 0.581007 0.108398
H66   H     H_    0.947897 0.837358 0.388326 0.122429
H67   H     H_    0.973351 0.820902 0.589044 0.110209
H68   H     H_    0.812318 0.281706 0.254040 0.127352
H69   H     H_    0.093327 0.139722 0.565951 0.127126
H70   H     H_    0.030418 0.910194 0.375141 0.131691
H71   H     H_    0.080922 0.876003 0.580257 0.131205
H72   H     H_    0.781010 0.300389 0.128857 0.134617
H73   H     H_    0.503457 0.580465 0.151664 0.144115
H74   H     H_    0.537500 0.406678 0.881359 0.127369
H75   H     H_    0.569016 0.386921 0.092563 0.124090
H76   H     H_    0.611594 0.669251 0.956330 0.133391
H77   H     H_    0.175157 0.197159 0.767638 0.107841
H78   H     H_    0.137681 0.837275 0.196932 0.119739
H79   H     H_    0.166667 0.815053 0.777447 0.095716
H80   H     H_    0.998495 0.271211 0.060454 0.161830
H81   H     H_    0.628726 0.660404 0.311315 0.109661
H82   H     H_    0.641690 0.334840 0.700443 0.114541
H83   H     H_    0.661120 0.320627 0.283261 0.094474
H84   H     H_    0.682524 0.705136 0.741750 0.111231
C153  C     C_R   0.322396 0.053302 0.113565 -0.145134
C154  C     C_R   0.311956 0.946432 0.118153 -0.148769
C155  C     C_R   0.826684 0.554495 0.610471 -0.136501
C156  C     C_R   0.828275 0.447387 0.610290 -0.145232
C157  C     C_R   0.352862 0.026332 0.171421 -0.148290
C158  C     C_R   0.345926 0.973166 0.174684 -0.174792
C159  C     C_R   0.865640 0.528229 0.663705 -0.150001
C160  C     C_R   0.866358 0.474746 0.663664 -0.147581
C161  C     C_R   0.283090 0.972824 0.057109 0.078182
C162  C     C_R   0.285879 0.027034 0.055897 0.070090
C163  C     C_R   0.789874 0.473260 0.553983 0.066807
C164  C     C_R   0.788983 0.527530 0.554074 0.071174
C165  C     C_R   0.248447 0.946209 0.999365 -0.115485
C166  C     C_R   0.249293 0.053512 0.999307 -0.116771
C167  C     C_R   0.749600 0.446219 0.499984 -0.120090
C168  C     C_R   0.746532 0.553438 0.501141 -0.122807
C169  C     C_R   0.208340 0.972525 0.945142 0.027426
C170  C     C_R   0.208010 0.026692 0.945531 0.021535
C171  C     C_R   0.702428 0.472000 0.451183 0.026963
C172  C     C_R   0.697697 0.525901 0.454353 0.028870
C173  C     C_R   0.167704 0.945878 0.890815 -0.289893
C174  C     C_R   0.165453 0.052694 0.892539 -0.296153
C175  C     C_R   0.658744 0.444961 0.399516 -0.281863
C176  C     C_R   0.642283 0.550174 0.412329 -0.303511
C177  C     C_R   0.120609 0.971847 0.843732 0.261861
C178  C     C_R   0.117532 0.025950 0.846129 0.257928
C179  C     C_R   0.599999 0.468693 0.364719 0.273128
C180  C     C_R   0.587853 0.521596 0.376397 0.219039
H85   H     H_    0.326926 0.094765 0.116054 0.144067
H86   H     H_    0.306792 0.905118 0.124115 0.119642
H87   H     H_    0.824597 0.595947 0.616367 0.145166
H88   H     H_    0.827941 0.405918 0.615616 0.144710
H89   H     H_    0.380865 0.046744 0.214638 0.144445
H90   H     H_    0.366699 0.952572 0.221378 0.140028
H91   H     H_    0.893916 0.549495 0.706182 0.147036
H92   H     H_    0.895231 0.454297 0.706077 0.142111
N1    N     N_R   0.063015 0.053947 0.805923 0.233501
O53   O     O_R   0.071815 0.102849 0.793249 -0.413746
O54   O     O_R   0.998835 0.033720 0.794527 -0.311877
N2    N     N_R   0.076648 0.942667 0.793564 0.226076
O55   O     O_R   0.072039 0.956341 0.725637 -0.378472
O56   O     O_R   0.042578 0.901417 0.815314 -0.370456
N3    N     N_R   0.519319 0.546194 0.358307 0.215341
O57   O     O_R   0.505489 0.592366 0.382947 -0.375812
O58   O     O_R   0.465506 0.520183 0.329730 -0.310927
N4    N     N_R   0.553533 0.438398 0.318379 0.233669
O59   O     O_R   0.541752 0.452609 0.251549 -0.390731
O60   O     O_R   0.528786 0.394068 0.340501 -0.362937
N5    N     N_2   0.043460 0.339417 0.913084 -0.310991
H93   H     H_    0.085527 0.353812 0.881876 0.244325
C181  C     C_3   0.032536 0.369673 0.978732 -0.874066
H94   H     H_    0.083062 0.368681 0.012123 0.240687
H95   H     H_    0.987417 0.353772 0.011810 0.248907
H96   H     H_    0.020255 0.410358 0.964549 0.233893
N6    N     N_2   0.038629 0.668047 0.080369 -0.322658
H97   H     H_    0.058583 0.633436 0.060788 0.198972
C182  C     C_3   0.996016 0.695243 0.026561 -0.761313
H98   H     H_    0.031488 0.705082 0.980046 0.243698
H99   H     H_    0.974105 0.731960 0.049157 0.261016
H100  H     H_    0.949886 0.670702 0.007438 0.226374
N7    N     N_2   0.067995 0.642155 0.869665 -0.310492
H101  H     H_    0.063839 0.620241 0.916216 0.200592
C183  C     C_3   0.108007 0.615656 0.812575 -0.705669
H102  H     H_    0.164543 0.608055 0.830879 0.252860
H103  H     H_    0.111693 0.639757 0.762810 0.250588
H104  H     H_    0.080807 0.578447 0.798791 0.211031
N8    N     N_2   0.197006 0.201930 0.235788 -0.307800
H105  H     H_    0.248850 0.212738 0.251267 0.226914
C184  C     C_3   0.192279 0.149579 0.208297 -0.796551
H106  H     H_    0.228171 0.145530 0.160067 0.219091
H107  H     H_    0.135551 0.140307 0.190910 0.261201
H108  H     H_    0.209788 0.121881 0.250794 0.227521
N9    N     N_2   0.564566 0.857940 0.380501 -0.308513
H109  H     H_    0.614972 0.874785 0.388601 0.242732
C185  C     C_3   0.507107 0.887405 0.416098 -0.895203
H110  H     H_    0.524830 0.899842 0.470728 0.243283
H111  H     H_    0.456648 0.863652 0.420284 0.259946
H112  H     H_    0.494463 0.923600 0.386544 0.244374
N10   N     N_2   0.539691 0.167457 0.580267 -0.322514
H113  H     H_    0.560448 0.132458 0.563053 0.200160
C186  C     C_3   0.499568 0.193345 0.523396 -0.763481
H114  H     H_    0.536951 0.201513 0.477735 0.239424
H115  H     H_    0.477430 0.230794 0.543168 0.263532
H116  H     H_    0.453860 0.168576 0.503819 0.225014
N11   N     N_2   0.575710 0.140707 0.365281 -0.303961
H117  H     H_    0.572587 0.118505 0.411637 0.198468
C187  C     C_3   0.616830 0.115475 0.307792 -0.699582
H118  H     H_    0.673820 0.109215 0.325718 0.253108
H119  H     H_    0.619099 0.139899 0.258250 0.248408
H120  H     H_    0.591462 0.077671 0.293741 0.206371
N12   N     N_2   0.529468 0.820541 0.574596 -0.314997
H121  H     H_    0.518894 0.819346 0.519681 0.241558
C188  C     C_3   0.560537 0.868589 0.601132 -0.782250
H122  H     H_    0.607982 0.879273 0.567034 0.236077
H123  H     H_    0.579714 0.864483 0.658223 0.265402
H124  H     H_    0.519302 0.899943 0.599039 0.220989

loop_
_geom_bond_atom_site_label_1
_geom_bond_atom_site_label_2
_geom_bond_distance
_ccdc_geom_bond_type
C162  C166  1.417526 A    
C187  H120  1.111637 S    
C53   H41   1.083682 S    
C87   C119  1.424620 A    
C94   C102  1.411778 A    
C109  C149  1.419168 A    
C148  H80   1.078576 S    
C176  C180  1.401956 A    
C149  H81   1.080519 S    
C99   C123  1.416081 A    
C75   C91   1.411827 A    
C97   C121  1.420263 A    
O26   C7    1.282419 A    
C154  C158  1.389917 A    
C73   C89   1.423151 A    
C66   C74   1.417000 A    
C130  H74   1.082638 S    
C99   C111  1.412350 A    
C188  H123  1.111097 S    
C48   N12   1.414898 S    
C4    C90   1.456614 S    
O30   C11   1.292291 A    
C22   C38   1.498149 S    
C30   H14   1.113110 S    
C91   C99   1.411667 A    
C136  C140  1.386495 A    
C89   C97   1.414213 A    
C157  H89   1.079340 S    
C70   H58   1.080880 S    
Zn12  O26   1.940618 S    
C110  C118  1.417049 A    
C51   C63   1.387561 A    
C19   C168  1.446099 S    
H34   C142  1.082655 S    
C20   C167  1.439907 S    
C173  C177  1.397489 A    
C92   C100  1.413140 A    
C43   C51   1.402256 A    
C76   C92   1.412219 A    
C32   C39   1.550397 S    
C29   H5    1.113392 S    
C49   H37   1.080673 S    
C96   C104  1.411296 A    
C34   C38   1.551168 S    
C31   H7    1.113413 S    
O11   C7    1.278098 A    
C154  H86   1.080557 S    
N5    C181  1.448158 S    
O34   C15   1.291425 A    
C136  H72   1.082860 S    
C182  H100  1.111114 S    
C167  C171  1.415820 A    
C62   C70   1.387970 A    
C171  C172  1.400358 A    
C137  C145  1.393366 A    
Zn14  O30   1.936409 S    
C184  H108  1.111063 S    
C25   H1    1.113374 S    
Zn2   O43   1.950032 S    
C18   C165  1.440411 S    
C108  C116  1.420064 A    
C141  C149  1.392516 A    
C153  C162  1.420912 A    
Zn5   O48   1.950034 S    
H32   C140  1.082808 S    
Zn6   O47   1.950032 S    
C112  C120  1.414825 A    
Zn7   O46   1.955663 S    
C46   C86   1.434369 A    
C74   C90   1.414723 A    
C11   C115  1.462579 S    
C181  H94   1.109860 S    
C42   C50   1.400428 A    
C104  C108  1.409774 A    
Zn12  O4    1.949144 S    
Zn1   O13   1.934633 S    
C98   C110  1.411223 A    
C26   C28   1.545084 S    
Zn4   O16   1.938093 S    
O41   C21   1.281468 A    
C104  C128  1.420233 A    
C33   C37   1.552936 S    
C6    C96   1.452745 S    
C28   H4    1.113135 S    
N11   H117  1.031699 S    
C125  C133  1.393020 A    
N10   H113  1.032119 S    
C168  C172  1.426270 A    
C13   C117  1.457316 S    
C71   C79   1.415559 A    
C72   C80   1.419080 A    
C71   H59   1.082414 S    
C14   C118  1.457924 S    
C44   C84   1.432661 A    
C135  H71   1.082535 S    
C45   C85   1.430982 A    
C30   H6    1.107681 S    
Zn10  O22   1.940618 S    
C105  C113  1.417204 A    
C184  H107  1.111513 S    
C132  H76   1.082624 S    
C48   C88   1.423817 A    
C133  H69   1.082260 S    
N7    H101  1.031705 S    
O25   C8    1.279982 A    
Zn13  O29   1.938652 S    
C60   H48   1.081849 S    
C129  C141  1.386165 A    
C15   C119  1.458970 S    
Zn10  O2    1.949144 S    
C31   C40   1.555821 S    
C183  H104  1.111539 S    
C171  C175  1.420574 A    
Zn15  O33   1.938652 S    
C151  H83   1.082241 S    
N4    O59   1.301287 A    
C152  H84   1.081871 S    
C67   H55   1.076341 S    
C75   C87   1.412222 A    
C26   H2    1.108124 S    
C169  C170  1.403433 A    
C41   C81   1.440284 A    
N6    H97   1.032019 S    
C135  C139  1.390120 A    
O48   C23   1.283457 A    
C156  H88   1.079480 S    
C130  C142  1.388661 A    
C179  N4    1.432064 S    
C186  H115  1.111625 S    
C44   N8    1.415987 S    
C175  C179  1.396698 A    
C132  C144  1.389467 A    
C101  C125  1.417077 A    
Zn16  O35   1.940884 S    
C9    C113  1.457431 S    
C70   C78   1.417103 A    
C82   C114  1.425808 A    
C46   N10   1.419888 S    
Zn7   O10   1.938049 S    
O33   C16   1.281792 A    
C25   C37   1.553580 S    
C86   C118  1.427153 A    
C78   C82   1.417312 A    
O40   C20   1.271814 A    
C52   C64   1.381252 A    
C1    C91   1.454883 S    
C102  C106  1.411347 A    
C153  H85   1.077932 S    
C80   C96   1.415234 A    
Zn5   O17   1.934633 S    
H33   C141  1.082487 S    
O29   C12   1.273721 A    
H31   C139  1.082315 S    
C50   H38   1.083274 S    
C57   C65   1.385993 A    
C25   C27   1.539413 S    
C103  C107  1.412784 A    
C67   C75   1.412766 A    
C109  C117  1.417587 A    
C65   C73   1.424660 A    
C27   H3    1.113508 S    
N1    O54   1.301476 A    
C32   H8    1.112513 S    
Zn8   O3    1.949662 S    
C21   C37   1.496576 S    
O38   C18   1.276128 A    
C185  H112  1.111206 S    
C146  H78   1.081559 S    
O5    C1    1.278294 A    
C47   C55   1.400467 A    
O32   C9    1.288785 A    
C177  N2    1.433484 S    
C156  C163  1.422218 A    
C51   H39   1.083073 S    
H25   C35   1.113065 S    
H26   C36   1.112987 S    
C36   C40   1.551204 S    
Zn15  O51   1.953905 S    
C111  C151  1.417187 A    
Zn11  O28   1.936156 S    
C181  H95   1.105718 S    
H23   C34   1.113009 S    
C60   C68   1.389507 A    
C29   C39   1.553512 S    
C159  H91   1.082805 S    
H28   C35   1.113004 S    
O8    C4    1.282891 A    
C63   C71   1.389852 A    
C33   C34   1.548014 S    
C64   C72   1.386368 A    
C49   C61   1.384063 A    
C123  H63   1.082338 S    
O50   C18   1.266363 A    
O37   C17   1.273157 A    
C161  C165  1.410533 A    
C107  C115  1.414121 A    
C100  C112  1.412258 A    
Zn1   O1    1.960889 S    
C122  C130  1.392757 A    
C133  C137  1.388526 A    
Zn2   O14   1.937367 S    
C26   H10   1.113185 S    
C188  H122  1.106568 S    
C170  C174  1.420450 A    
H29   C137  1.082677 S    
C153  C157  1.392258 A    
O9    C5    1.274474 A    
O39   C19   1.282906 A    
O36   C13   1.289554 A    
N9    C185  1.454684 S    
O13   C9    1.273527 A    
N2    O55   1.301381 A    
Zn1   O8    1.937323 S    
C55   H43   1.083161 S    
Zn2   O7    1.934590 S    
C56   H44   1.083195 S    
Zn3   O6    1.938049 S    
O18   C14   1.283422 A    
O31   C10   1.280867 A    
C106  C146  1.419318 A    
C156  C160  1.391701 A    
C25   H9    1.113405 S    
C110  C150  1.419474 A    
C93   C101  1.409287 A    
C32   H16   1.111058 S    
N5    H93   1.030573 S    
C134  H70   1.082653 S    
C185  H110  1.100125 S    
C98   C122  1.417895 A    
Zn15  O3    1.948845 S    
C182  H99   1.111628 S    
Zn11  O3    1.954526 S    
C61   H49   1.083043 S    
C56   C60   1.385541 A    
Zn16  O34   1.936409 S    
C72   H60   1.079811 S    
C31   H15   1.113548 S    
C74   C86   1.418427 A    
C3    C89   1.457387 S    
Zn2   O2    1.960888 S    
C47   N11   1.420051 S    
N8    H105  1.028203 S    
C90   C98   1.411230 A    
C187  H119  1.111971 S    
Zn8   O20   1.938093 S    
C41   N5    1.432741 S    
C174  C178  1.401541 A    
C121  H61   1.079909 S    
C108  C148  1.419531 A    
C59   C67   1.388142 A    
C68   C76   1.418067 A    
C7    C93   1.456829 S    
C69   C77   1.413573 A    
C163  C164  1.406234 A    
C112  C152  1.417961 A    
Zn8   O9    1.938521 S    
C127  H67   1.082414 S    
C24   C40   1.498237 S    
C128  H68   1.081204 S    
O15   C11   1.269868 A    
C68   H56   1.081075 S    
C69   H57   1.082166 S    
C84   C116  1.426882 A    
C166  C170  1.420088 A    
C138  C146  1.393161 A    
O7    C3    1.291052 A    
C65   H53   1.072166 S    
C88   C120  1.422027 A    
C95   C103  1.411949 A    
C16   C120  1.460578 S    
C188  H124  1.111418 S    
N3    O57   1.301992 A    
O19   C15   1.268822 A    
C83   C115  1.424666 A    
C142  C150  1.393151 A    
C43   C83   1.427634 A    
N1    O53   1.299188 A    
C58   H46   1.082745 S    
C27   C38   1.556326 S    
C147  H79   1.082346 S    
Zn6   O18   1.937367 S    
C111  C119  1.414373 A    
Zn10  O23   1.938401 S    
C179  C180  1.404437 A    
C79   C83   1.412021 A    
C58   C66   1.387358 A    
C172  C176  1.424335 A    
C183  H103  1.111828 S    
Zn15  O36   1.940871 S    
N4    O60   1.300901 A    
O42   C22   1.285925 A    
C97   C109  1.411002 A    
C28   C37   1.549477 S    
Zn4   O1    1.949662 S    
C30   C32   1.544719 S    
Zn1   O44   1.950034 S    
Zn9   O37   1.951168 S    
C35   C36   1.548196 S    
O12   C8    1.283506 A    
C53   C57   1.376766 A    
Zn11  O39   1.951168 S    
C186  H114  1.103685 S    
C46   C54   1.400770 A    
C59   H47   1.082104 S    
C154  C161  1.419065 A    
C42   C82   1.433376 A    
H21   C33   1.113050 S    
N12   H121  1.026863 S    
Zn5   O3    1.960889 S    
Zn13  O1    1.948845 S    
Zn6   O4    1.960888 S    
C163  C167  1.416032 A    
C164  C168  1.417477 A    
C121  C129  1.391536 A    
C139  C147  1.393600 A    
N7    C183  1.449812 S    
C8    C94   1.456574 S    
C10   C114  1.458256 S    
C161  C162  1.405642 A    
H19   C175  1.080596 S    
C129  H73   1.082708 S    
H24   C33   1.112931 S    
C155  C159  1.391825 A    
Zn9   O24   1.936156 S    
C178  N1    1.441225 S    
O28   C5    1.280755 A    
Zn3   O42   1.955663 S    
C165  C169  1.416149 A    
C23   C39   1.496423 S    
Zn7   O4    1.949663 S    
O21   C4    1.280463 A    
N11   C187  1.450457 S    
C50   C62   1.384482 A    
C44   C52   1.399230 A    
C45   C53   1.400377 A    
C105  C145  1.419549 A    
C143  C151  1.393365 A    
C145  H77   1.081926 S    
C159  C160  1.385794 A    
C48   C56   1.399782 A    
C102  C126  1.418098 A    
C177  C178  1.403491 A    
Zn14  O2    1.954227 S    
C183  H102  1.106622 S    
C78   C94   1.415205 A    
C122  H62   1.081962 S    
C187  H118  1.106560 S    
Zn13  O49   1.953905 S    
C157  C158  1.384633 A    
C28   H12   1.111155 S    
C81   C113  1.429433 A    
C63   H51   1.082563 S    
Zn12  O27   1.938401 S    
C35   C39   1.552062 S    
C42   N6    1.420155 S    
C64   H52   1.080716 S    
C45   N9    1.419208 S    
C85   C117  1.427233 A    
C185  H111  1.111504 S    
O16   C12   1.283098 A    
C61   C69   1.384102 A    
C30   C40   1.549554 S    
Zn3   O2    1.949663 S    
C127  C135  1.393437 A    
H27   C36   1.112974 S    
O10   C6    1.277305 A    
C17   C166  1.444157 S    
N8    C184  1.446703 S    
O46   C24   1.286169 A    
O47   C24   1.280014 A    
Zn16  O52   1.951209 S    
C100  C124  1.417077 A    
H30   C138  1.082663 S    
Zn16  O4    1.954227 S    
Zn8   O45   1.955665 S    
C186  H116  1.111313 S    
C41   C49   1.411227 A    
C124  H64   1.081990 S    
O27   C6    1.274480 A    
C47   C87   1.430922 A    
C125  H65   1.082279 S    
C62   H50   1.082717 S    
C131  C143  1.390136 A    
C29   C31   1.538715 S    
C160  H92   1.082913 S    
C131  H75   1.082531 S    
C73   C85   1.413863 A    
O24   C1    1.278110 A    
C76   C88   1.412713 A    
C57   H45   1.082090 S    
C77   C81   1.420192 A    
C54   H42   1.083312 S    
C79   C95   1.409800 A    
C80   C84   1.416704 A    
O43   C22   1.280216 A    
H18   C174  1.077191 S    
Zn4   O41   1.955665 S    
Zn3   O15   1.938566 S    
N10   C186  1.445761 S    
N3    O58   1.300497 A    
Zn5   O12   1.937323 S    
Zn6   O11   1.934590 S    
C101  C105  1.410363 A    
C126  H66   1.081812 S    
Zn9   O21   1.940634 S    
Zn14  O50   1.951209 S    
H17   C173  1.080000 S    
N6    C182  1.446342 S    
O35   C14   1.281614 A    
N9    H109  1.030011 S    
Zn12  O40   1.953863 S    
Zn9   O1    1.954526 S    
H20   C176  1.071029 S    
N2    O56   1.300927 A    
H35   C143  1.082559 S    
H36   C144  1.082503 S    
O52   C20   1.270702 A    
C55   C59   1.384301 A    
C126  C134  1.392647 A    
C29   H13   1.113539 S    
C66   H54   1.081287 S    
C158  H90   1.081992 S    
O44   C21   1.283932 A    
O22   C3    1.271789 A    
C140  C148  1.393199 A    
Zn7   O19   1.938566 S    
O20   C16   1.274844 A    
C150  H82   1.081740 S    
C12   C116  1.459970 S    
Zn13  O32   1.940871 S    
C144  C152  1.393382 A    
C2    C92   1.452683 S    
O49   C17   1.271938 A    
Zn14  O31   1.940884 S    
C123  C131  1.393599 A    
C182  H98   1.103876 S    
C134  C138  1.388537 A    
O51   C19   1.264101 A    
C106  C114  1.416966 A    
C43   N7    1.421249 S    
C27   H11   1.113512 S    
C184  H106  1.107695 S    
Zn4   O5    1.938521 S    
N12   C188  1.448734 S    
C103  C127  1.415790 A    
C77   C93   1.414249 A    
C169  C173  1.418752 A    
C5    C95   1.452302 S    
C26   C38   1.549654 S    
O23   C2    1.278361 A    
O6    C2    1.273526 A    
Zn11  O25   1.940634 S    
Zn10  O38   1.953863 S    
C155  H87   1.079588 S    
C124  C132  1.393453 A    
C54   C58   1.384156 A    
C180  N3    1.448280 S    
O14   C10   1.284277 A    
C181  H96   1.110945 S    
C128  C136  1.391291 A    
C155  C164  1.422755 A    
C107  C147  1.416706 A    
O17   C13   1.273536 A    
H22   C34   1.112947 S    
O45   C23   1.281922 A    
C52   H40   1.083572 S    
