data_mof_unit_67317.cif
_audit_creation_date              2013-03-05T16:05:15-0500
_audit_creation_method            fapswitch 2.2
_symmetry_space_group_name_H-M    P1
_symmetry_Int_Tables_number       1
_space_group_crystal_system       triclinic
_cell_length_a                    8.531543
_cell_length_b                    15.183869
_cell_length_c                    15.130017
_cell_angle_alpha                 99.289483
_cell_angle_beta                  99.246366
_cell_angle_gamma                 99.227087
_cell_volume                      1873.89464064

loop_
_atom_site_label
_atom_site_type_symbol
_atom_site_description
_atom_site_fract_x
_atom_site_fract_y
_atom_site_fract_z
_atom_type_partial_charge
P1    P     P_3+3 0.996570 0.418570 0.288410 0.437348
O1    O     O_2   0.826460 0.445380 0.275370 -0.386492
O2    O     O_3   0.098920 0.448470 0.388920 -0.359866
O3    O     O_3   0.628660 0.613390 0.338240 -0.388183
O4    O     O_2   0.664298 0.542580 0.174364 -0.414856
O5    O     O_3   0.943336 0.300065 0.281536 -0.633493
O6    O     O_3   0.643187 0.714198 0.200502 -0.546124
H1    H     H_    0.709129 0.780146 0.335577 0.153859
C1    C     C_3   0.659068 0.874491 0.248507 -1.124169
H2    H     H_    0.610893 0.923345 0.294450 0.236623
H3    H     H_    0.791475 0.898927 0.258209 0.275940
P2    P     P_3+3 0.693070 0.712070 0.580610 0.500622
P3    P     P_3+3 0.114570 0.777105 0.394147 0.450920
O7    O     O_2   0.863170 0.725020 0.553760 -0.343885
O8    O     O_3   0.060910 0.661460 0.386100 -0.338425
O9    O     O_2   0.009089 0.821142 0.455776 -0.412798
O10   O     O_3   0.730003 0.767270 0.694385 -0.557156
O11   O     O_3   0.042783 0.800538 0.286564 -0.533079
C2    C     C_3   0.124460 0.762322 0.220130 0.448237
H4    H     H_    0.191721 0.710149 0.242566 0.029276
C3    C     C_3   0.998874 0.714976 0.134094 -0.515419
H5    H     H_    0.908030 0.663194 0.151704 0.265611
C4    C     C_3   0.278490 0.778593 0.750073 1.492767
C5    C     C_3   0.329536 0.846934 0.847002 -0.499791
H6    H     H_    0.332784 0.917583 0.838305 0.142477
Ba1   Ba    Ba6+2 0.844900 0.542440 0.457470 1.574849
C6    C     C_3   0.827682 0.252990 0.203756 1.082641
H7    H     H_    0.760313 0.299831 0.172039 0.033858
C7    C     C_3   0.906622 0.205968 0.129126 -0.842526
H8    H     H_    0.965989 0.258415 0.095936 0.166045
H9    H     H_    0.000130 0.170616 0.158256 0.208928
C8    C     C_3   0.795166 0.714648 0.750961 0.496755
H10   H     H_    0.886530 0.682518 0.722035 0.073690
C9    C     C_3   0.888748 0.774912 0.839800 -0.649247
H11   H     H_    0.969546 0.829633 0.820113 0.262930
H12   H     H_    0.955568 0.732208 0.879305 0.161688
P4    P     P_3+3 0.193140 0.581510 0.711600 0.553733
O12   O     O_2   0.363260 0.554650 0.724690 -0.293873
O13   O     O_3   0.090800 0.551610 0.611090 -0.388864
O14   O     O_3   0.561050 0.386690 0.661770 -0.374586
O15   O     O_3   0.271629 0.693357 0.775925 -0.640758
P5    P     P_3+3 0.078086 0.219369 0.601155 0.495447
O16   O     O_3   0.598950 0.388690 0.448890 -0.383379
O17   O     O_3   0.128800 0.338610 0.613910 -0.306586
O18   O     O_2   0.210641 0.180272 0.557649 -0.422118
O19   O     O_3   0.113765 0.202753 0.714327 -0.498943
Ba2   Ba    Ba6+2 0.344940 0.457640 0.542540 1.604393
P6    P     P_3+3 0.566251 0.607104 0.221587 0.400407
C10   C     C_3   0.623380 0.780489 0.272154 0.565769
H13   H     H_    0.497700 0.768081 0.284747 -0.025703
H14   H     H_    0.601358 0.873128 0.176939 0.258933
O20   O     O_3   0.590770 0.611390 0.551120 -0.405597
C11   C     C_3   0.380636 0.286857 0.238668 0.288004
C12   C     C_3   0.342995 0.233576 0.137686 0.382940
H15   H     H_    0.233589 0.252903 0.100873 0.008723
P7    P     P_3+3 0.498001 0.274689 0.415188 0.470845
O21   O     O_2   0.326540 0.275010 0.446300 -0.380644
O22   O     O_3   0.476674 0.241751 0.294928 -0.534179
H16   H     H_    0.058894 0.679377 0.083613 0.159611
C13   C     C_3   0.072343 0.110197 0.719905 0.356534
H17   H     H_    0.957616 0.076158 0.674704 0.010868
H18   H     H_    0.166411 0.072718 0.701454 0.038829
C14   C     C_3   0.045577 0.103008 0.816436 -0.331431
H19   H     H_    0.927997 0.120965 0.820153 0.231796
P8    P     P_3+3 0.607515 0.395369 0.779262 0.467573
C15   C     C_3   0.688261 0.238048 0.761853 0.928765
O23   O     O_2   0.472617 0.436751 0.817485 -0.341448
O24   O     O_3   0.573136 0.283713 0.797168 -0.609565
H20   H     H_    0.702333 0.255712 0.694536 -0.067248
H21   H     H_    0.713678 0.105234 0.699361 0.069307
C16   C     C_3   0.627180 0.133204 0.738102 0.133801
C17   C     C_R   0.342846 0.564800 0.179987 0.181222
H22   H     H_    0.313713 0.528140 0.307932 0.154283
H23   H     H_    0.431703 0.672857 0.068856 0.199911
C18   C     C_R   0.101622 0.471096 0.205075 0.253170
C19   C     C_R   0.916124 0.490241 0.766350 -0.308997
C20   C     C_R   0.819579 0.457224 0.825771 0.249269
C21   C     C_R   0.882831 0.466324 0.918136 -0.293086
C22   C     C_R   0.045891 0.503180 0.955297 0.010244
C23   C     C_R   0.148753 0.538167 0.895968 -0.161225
C24   C     C_R   0.110160 0.507708 0.051521 0.076343
C25   C     C_R   0.263104 0.563293 0.089784 -0.008203
C26   C     C_R   0.332438 0.618116 0.036955 -0.502432
C27   C     C_R   0.305306 0.588420 0.941963 0.648936
C28   C     C_R   0.029152 0.461774 0.111908 -0.341170
C29   C     C_R   0.256654 0.523066 0.237597 -0.436749
C30   C     C_R   0.084880 0.526342 0.797342 0.258756
H24   H     H_    0.911257 0.418819 0.088635 0.117343
H25   H     H_    0.799900 0.445581 0.960944 0.121907
C31   C     C_R   0.334437 0.819127 0.440461 0.129538
H26   H     H_    0.366221 0.690193 0.474205 0.177817
H27   H     H_    0.188167 0.948033 0.384234 0.185918
C32   C     C_R   0.591154 0.785976 0.510056 0.344255
C33   C     C_R   0.765766 0.225718 0.511477 -0.427921
C34   C     C_R   0.869159 0.167964 0.536566 0.202046
C35   C     C_R   0.811847 0.073222 0.515813 -0.381288
C36   C     C_R   0.645881 0.035622 0.481135 0.056672
C37   C     C_R   0.543508 0.095684 0.449864 -0.062526
C38   C     C_R   0.577787 0.940680 0.476972 0.062540
C39   C     C_R   0.409014 0.909862 0.443733 -0.013858
C40   C     C_R   0.315770 0.969318 0.411539 -0.279352
C41   C     C_R   0.380902 0.057254 0.407692 0.070881
C42   C     C_R   0.667499 0.876372 0.509352 -0.383023
C43   C     C_R   0.426078 0.758333 0.473052 -0.398904
C44   C     C_R   0.606746 0.191631 0.465021 0.259908
H28   H     H_    0.793081 0.896886 0.540839 0.164295
H29   H     H_    0.812092 0.298233 0.525088 0.177197
H30   H     H_    0.898157 0.030036 0.528672 0.147725
N1    N     N_3   0.490860 0.841994 0.892359 -0.201277
H31   H     H_    0.485874 0.781595 0.917384 0.164666
H32   H     H_    0.528972 0.895347 0.948877 0.115514
N2    N     N_3   0.218976 0.829433 0.909227 -0.225575
H33   H     H_    0.248654 0.882266 0.966376 0.114443
H34   H     H_    0.231088 0.769304 0.932769 0.137328
O25   O     O_3   0.713164 0.188161 0.229389 -0.603263
C45   C     C_3   0.786816 0.130809 0.281214 -0.180045
H35   H     H_    0.863656 0.169543 0.346378 0.160243
H36   H     H_    0.857941 0.089147 0.242517 0.103869
H37   H     H_    0.689676 0.082676 0.298210 0.159974
N3    N     N_3   0.787628 0.138907 0.060290 -0.200039
H38   H     H_    0.749972 0.081743 0.087346 0.165950
H39   H     H_    0.686416 0.167130 0.041686 0.191140
N4    N     N_3   0.666112 0.647844 0.764965 -0.149833
H40   H     H_    0.721392 0.607499 0.803477 0.003415
H41   H     H_    0.591383 0.680956 0.801120 0.218921
N5    N     N_3   0.788013 0.817933 0.894720 -0.186928
H42   H     H_    0.860475 0.874622 0.939716 0.125197
H43   H     H_    0.749299 0.772985 0.935472 0.130102
N6    N     N_3   0.228243 0.288943 0.266715 -0.236872
H44   H     H_    0.185406 0.226838 0.283652 0.132811
H45   H     H_    0.247601 0.339435 0.324513 0.180758
N7    N     N_3   0.461660 0.379827 0.241475 -0.221867
H46   H     H_    0.486389 0.418259 0.307269 0.156060
H47   H     H_    0.570754 0.376762 0.221365 0.205418
N8    N     N_3   0.302148 0.135671 0.135596 -0.233132
H48   H     H_    0.261753 0.102214 0.067791 0.074236
H49   H     H_    0.407200 0.112324 0.158769 0.189428
O26   O     O_3   0.475700 0.251026 0.092981 -0.631686
C46   C     C_3   0.464407 0.322067 0.043064 -0.320171
H50   H     H_    0.587398 0.363379 0.050826 0.168587
H51   H     H_    0.385391 0.369572 0.065852 0.143365
H52   H     H_    0.421390 0.293224 0.969564 0.184928
N9    N     N_3   0.169693 0.165542 0.886681 -0.199589
H53   H     H_    0.138825 0.159361 0.949788 0.108846
H54   H     H_    0.161635 0.232260 0.880143 0.201244
N10   N     N_3   0.034558 0.009902 0.831733 -0.224604
H55   H     H_    0.148504 0.001746 0.862519 0.112637
H56   H     H_    0.961248 0.001667 0.880229 0.140032
O27   O     O_3   0.844542 0.264647 0.818178 -0.650616
C47   C     C_3   0.843157 0.263543 0.911330 -0.255365
H57   H     H_    0.743678 0.291735 0.937224 0.156047
H58   H     H_    0.959094 0.304392 0.952024 0.155680
H59   H     H_    0.838822 0.194647 0.924909 0.195039
N11   N     N_3   0.469646 0.108480 0.676278 -0.222651
H60   H     H_    0.485880 0.121934 0.612695 0.093488
H61   H     H_    0.396882 0.153080 0.698442 0.180214
O28   O     O_3   0.630251 0.089458 0.814525 -0.623515
C48   C     C_3   0.500668 0.099591 0.860080 -0.192449
H62   H     H_    0.382914 0.068555 0.815300 0.135693
H63   H     H_    0.503894 0.171399 0.889347 0.184502
H64   H     H_    0.511458 0.062539 0.917451 0.142212
N12   N     N_3   0.836493 0.492261 0.675123 -0.136369
H65   H     H_    0.726881 0.511606 0.678660 0.152840
H66   H     H_    0.872598 0.553818 0.658492 0.115904
O29   O     O_3   0.436516 0.600746 0.898508 -0.592723
C49   C     C_3   0.581356 0.593484 0.957291 -0.144525
H67   H     H_    0.561528 0.538305 0.997057 0.159288
H68   H     H_    0.637978 0.659421 0.002870 0.135911
H69   H     H_    0.671565 0.574186 0.919461 0.133343
N13   N     N_3   0.236951 0.834373 0.196925 -0.225513
H70   H     H_    0.301243 0.804445 0.150836 0.068270
H71   H     H_    0.321417 0.866258 0.255338 0.101808
N14   N     N_3   0.277458 0.104055 0.356835 -0.166426
H72   H     H_    0.171750 0.103933 0.383627 0.133369
H73   H     H_    0.244235 0.067891 0.289597 0.084457
N15   N     N_3   0.917598 0.779062 0.090894 -0.208644
H74   H     H_    0.873728 0.820543 0.139056 0.207810
H75   H     H_    0.001611 0.820955 0.065205 0.116101
O30   O     O_3   0.395587 0.788152 0.692384 -0.662945
C50   C     C_3   0.489821 0.877527 0.706431 -0.246542
H76   H     H_    0.594015 0.889322 0.763732 0.226781
H77   H     H_    0.421845 0.933029 0.714309 0.117460
H78   H     H_    0.541096 0.886492 0.646596 0.180302
O31   O     O_3   0.122805 0.782800 0.703348 -0.687380
C51   C     C_3   0.119347 0.863303 0.668125 -0.202565
H79   H     H_    0.180493 0.862411 0.608825 0.190213
H80   H     H_    0.170073 0.925116 0.719415 0.054979
H81   H     H_    0.992712 0.869718 0.646570 0.199930

loop_
_geom_bond_atom_site_label_1
_geom_bond_atom_site_label_2
_geom_bond_distance
_ccdc_geom_bond_type
O14   Ba2   2.830153 S    
C38   C42   1.432790 A    
C33   C44   1.397656 A    
C40   C41   1.375678 A    
C11   O22   1.417394 S    
P3    C31   1.861778 S    
C6    C7    1.541633 S    
C19   N12   1.444515 S    
C34   C35   1.409376 A    
C1    H14   1.110632 S    
C2    N13   1.461763 S    
H26   C43   1.082028 S    
C23   C27   1.433003 A    
C32   C42   1.424264 A    
N2    H34   1.046200 S    
C24   C25   1.412952 A    
N8    H48   1.044640 S    
C12   O26   1.420306 S    
C20   C21   1.390914 A    
P7    O21   1.607576 D    
C41   N14   1.426653 S    
O29   C49   1.432588 S    
C37   C44   1.437496 A    
P3    O11   1.757194 S    
C13   C14   1.532255 S    
O13   Ba2   3.008272 S    
C2    C3    1.536862 S    
P4    O12   1.560645 D    
C3    H16   1.104036 S    
C23   C30   1.475356 A    
N1    H32   1.046780 S    
C9    H11   1.102934 S    
C46   H52   1.105998 S    
Ba1   O13   2.838609 S    
N4    H41   1.041425 S    
C15   H20   1.113940 S    
N13   H70   1.046028 S    
N9    H53   1.044817 S    
C45   H35   1.108678 S    
C13   H18   1.101380 S    
P1    O1    1.560222 D    
P5    O19   1.756376 S    
C27   O29   1.389053 S    
C48   H64   1.107728 S    
C36   C38   1.452585 A    
C48   H63   1.102820 S    
O28   C48   1.409309 S    
C2    H4    1.114488 S    
C50   H77   1.098752 S    
N7    H46   1.039944 S    
P8    O23   1.543467 D    
C47   H59   1.094237 S    
C5    N2    1.460288 S    
P2    O10   1.743631 S    
C4    C5    1.604903 S    
H21   C16   1.108006 S    
P4    Ba2   3.471319 S    
C1    H2    1.107023 S    
H23   C26   1.074428 S    
C14   N10   1.459785 S    
N10   H56   1.047483 S    
O17   Ba2   2.834436 S    
P8    O24   1.745883 S    
N15   H75   1.045269 S    
C35   H30   1.077058 S    
N8    H49   1.045423 S    
C3    H5    1.108352 S    
C49   H68   1.107341 S    
C8    N4    1.439535 S    
C49   H67   1.114717 S    
P5    O17   1.763985 S    
P6    C17   1.879597 S    
C32   C43   1.397947 A    
C31   C39   1.411419 A    
N2    H33   1.046824 S    
P2    O20   1.588881 S    
N3    H39   1.043074 S    
Ba1   O16   2.848420 S    
C36   C37   1.442331 A    
N12   H66   1.019959 S    
N14   H73   1.045886 S    
C21   H25   1.077473 S    
C16   O28   1.422208 S    
O4    P6    1.548862 D    
C33   H29   1.082600 S    
P8    C20   1.866321 S    
C15   O24   1.413653 S    
N10   H55   1.043585 S    
P5    C34   1.867942 S    
P1    C18   1.867542 S    
C45   H37   1.105442 S    
N4    H40   1.028014 S    
C1    C10   1.522649 S    
C19   C20   1.410361 A    
O6    C10   1.406455 S    
C15   O27   1.420608 S    
C22   C24   1.457394 A    
C21   C22   1.400716 A    
O11   C2    1.413890 S    
C51   H81   1.101760 S    
N14   H72   1.046347 S    
C16   N11   1.463928 S    
O7    Ba1   2.883882 S    
O30   C50   1.426612 S    
P2    Ba1   3.475527 S    
C13   H17   1.096093 S    
P1    O2    1.582535 S    
P5    O18   1.546926 D    
C8    C9    1.518284 S    
C4    O30   1.433719 S    
C15   C16   1.556934 S    
C7    H8    1.106506 S    
Ba1   O20   3.006784 S    
Ba2   O21   2.884083 S    
C18   C29   1.394632 A    
C17   C29   1.391725 A    
O5    C6    1.413676 S    
C9    N5    1.445714 S    
C3    N15   1.459782 S    
C35   C36   1.418249 A    
O12   Ba2   2.875144 S    
O1    Ba1   2.874568 S    
C11   N7    1.459672 S    
C5    H6    1.098190 S    
C1    H3    1.109053 S    
C19   C30   1.428354 A    
C31   C43   1.400366 A    
N11   H60   1.040950 S    
Ba1   Ba2   4.695366 S    
C45   H36   1.108559 S    
H27   C40   1.076942 S    
N7    H47   1.030217 S    
N15   H74   1.040592 S    
P2    O7    1.559953 D    
C10   H13   1.110839 S    
O14   P8    1.736580 S    
P3    O8    1.721328 S    
P1    Ba1   3.470677 S    
C47   H58   1.107436 S    
P2    C32   1.885790 S    
C26   C27   1.404597 A    
C11   N6    1.434441 S    
C7    N3    1.462364 S    
C6    H7    1.104152 S    
C50   H76   1.106820 S    
C18   C28   1.420130 A    
N12   H65   1.030902 S    
O3    P6    1.742128 S    
C28   H24   1.078301 S    
N9    H54   1.045586 S    
C12   H15   1.114060 S    
N5    H43   1.041194 S    
O19   C13   1.412672 S    
C47   H57   1.107366 S    
N11   H61   1.041556 S    
P4    C30   1.930145 S    
O2    Ba1   3.007399 S    
C5    N1    1.455019 S    
C14   H19   1.088429 S    
O8    Ba1   2.833670 S    
O3    Ba1   2.830833 S    
C46   H50   1.110785 S    
C50   H78   1.085096 S    
C11   C12   1.565874 S    
Ba2   O20   2.847809 S    
C4    O15   1.406378 S    
C38   C39   1.421409 A    
O6    P6    1.751932 S    
N6    H44   1.042154 S    
C4    O31   1.417076 S    
C7    H9    1.104322 S    
C37   C41   1.416997 A    
N1    H31   1.044508 S    
C8    H10   1.095341 S    
C46   H51   1.115328 S    
C51   H79   1.107270 S    
C48   H62   1.103062 S    
N13   H71   1.039266 S    
N5    H42   1.044736 S    
C12   N8    1.465431 S    
O2    Ba2   2.839223 S    
C39   C40   1.390280 A    
P7    O22   1.778937 S    
C42   H28   1.073750 S    
C9    H12   1.112141 S    
P4    O15   1.781004 S    
C33   C34   1.392543 A    
C17   C25   1.418635 A    
P7    C44   1.864694 S    
C51   H80   1.094112 S    
O26   C46   1.419921 S    
C22   C23   1.454552 A    
O16   P7    1.758936 S    
C49   H69   1.079592 S    
P4    O13   1.582505 S    
C25   C26   1.374991 A    
P3    O9    1.545222 D    
P1    O5    1.765543 S    
O10   C8    1.374966 S    
C14   N9    1.463733 S    
N3    H38   1.044856 S    
O31   C51   1.412734 S    
H22   C29   1.081856 S    
O27   C47   1.414116 S    
O16   Ba2   3.005909 S    
H1    C10   1.110523 S    
C24   C28   1.432807 A    
O25   C45   1.416191 S    
N6    H45   1.037455 S    
C6    O25   1.417922 S    
