data_mof_unit_23360.cif
_audit_creation_date              2013-03-05T15:45:15-0500
_audit_creation_method            fapswitch 2.2
_symmetry_space_group_name_H-M    P1
_symmetry_Int_Tables_number       1
_space_group_crystal_system       triclinic
_cell_length_a                    18.885781
_cell_length_b                    18.772248
_cell_length_c                    18.310894
_cell_angle_alpha                 108.49431
_cell_angle_beta                  108.181065
_cell_angle_gamma                 109.610806
_cell_volume                      5123.68077511

loop_
_atom_site_label
_atom_site_type_symbol
_atom_site_description
_atom_site_fract_x
_atom_site_fract_y
_atom_site_fract_z
_atom_type_partial_charge
O1    O     O_R   0.408680 0.356690 0.448550 -0.558706
O2    O     O_R   0.408070 0.460080 0.551430 -0.637575
C1    C     C_R   0.381365 0.380530 0.502703 1.025894
O3    O     O_R   0.592400 0.448290 0.540670 -0.585323
O4    O     O_R   0.591790 0.551690 0.643550 -0.666899
C2    C     C_R   0.619077 0.498491 0.620912 0.900570
Zn1   Zn    Zn3+2 0.500410 0.430960 0.431310 1.172818
Zn2   Zn    Zn3+2 0.499590 0.569040 0.568690 1.001526
O5    O     O_R   0.591930 0.539920 0.448570 -0.566291
O6    O     O_R   0.591320 0.643310 0.551450 -0.655131
O7    O     O_R   0.408210 0.448310 0.356450 -0.551295
O8    O     O_R   0.407600 0.551710 0.459330 -0.627625
C3    C     C_R   0.617249 0.619962 0.495889 1.006468
C4    C     C_R   0.381867 0.502839 0.379313 0.933706
C5    C     C_3   0.707227 0.421387 0.643643 -0.256130
C6    C     C_3   0.775062 0.418068 0.720514 -0.225972
C7    C     C_3   0.773076 0.593159 0.738617 -0.132328
C8    C     C_3   0.656222 0.485770 0.759790 -0.231228
C9    C     C_3   0.687927 0.499420 0.689322 -0.207378
C10   C     C_3   0.810910 0.502228 0.810825 -0.209499
C11   C     C_3   0.850902 0.592436 0.807960 -0.216551
C12   C     C_3   0.734960 0.497571 0.835176 -0.247195
H1    H     H_    0.764254 0.563238 0.886946 0.219774
C13   C     C_R   0.250503 0.404595 0.557882 -0.115280
C14   C     C_R   0.173534 0.407600 0.526118 -0.135258
C15   C     C_R   0.098098 0.331835 0.458426 -0.066405
C16   C     C_R   0.097334 0.251461 0.435678 -0.066036
C17   C     C_R   0.173836 0.250633 0.479056 0.007112
C18   C     C_R   0.250090 0.326030 0.518396 0.108062
C19   C     C_R   0.318115 0.315441 0.507754 -0.086750
C20   C     C_R   0.314639 0.234265 0.487935 -0.201238
C21   C     C_R   0.260771 0.181292 0.506531 -0.133564
C22   C     C_R   0.182604 0.181733 0.490355 -0.159520
C23   C     C_R   0.408131 0.628008 0.307260 -0.078429
C24   C     C_R   0.429185 0.656434 0.249885 -0.127556
C25   C     C_R   0.374291 0.606259 0.158929 -0.092965
C26   C     C_R   0.291399 0.539782 0.128145 -0.078013
C27   C     C_R   0.266962 0.524297 0.189868 0.000571
C28   C     C_R   0.331032 0.551816 0.271885 0.026309
C29   C     C_R   0.313202 0.502099 0.314311 -0.073458
C30   C     C_R   0.228169 0.448065 0.290774 -0.063054
C31   C     C_R   0.162724 0.449014 0.228708 -0.099030
C32   C     C_R   0.181719 0.486031 0.175792 -0.232240
C33   C     C_R   0.762319 0.778366 0.653365 -0.166790
H2    H     H_    0.707459 0.768203 0.663737 0.185180
C34   C     C_R   0.841224 0.820484 0.726897 -0.262144
H3    H     H_    0.843692 0.838124 0.790360 0.208360
C35   C     C_R   0.913650 0.827431 0.717372 -0.026652
C36   C     C_R   0.908966 0.809569 0.633876 -0.039733
C37   C     C_R   0.830933 0.786144 0.564174 -0.061057
C38   C     C_R   0.756395 0.751053 0.569585 0.117257
C39   C     C_R   0.681873 0.685639 0.491285 -0.042017
C40   C     C_R   0.679224 0.673560 0.409341 -0.108165
C41   C     C_R   0.748572 0.732791 0.408770 -0.081879
C42   C     C_R   0.822214 0.794515 0.488426 -0.142136
O9    O     O_R   0.946070 0.356680 0.906240 -0.601932
O10   O     O_R   0.049530 0.460050 0.906180 -0.583996
C43   C     C_R   0.001226 0.381045 0.880246 0.786991
O11   O     O_R   0.853500 0.448330 0.905250 -0.618926
O12   O     O_R   0.956960 0.551700 0.905190 -0.581311
C44   C     C_R   0.877773 0.503050 0.879552 0.818662
Zn3   Zn    Zn3+2 0.928250 0.430980 0.997370 1.110439
Zn4   Zn    Zn3+2 0.066400 0.569030 0.997290 1.146767
O13   O     O_R   0.945120 0.539960 0.088480 -0.620529
O14   O     O_R   0.048580 0.643330 0.088420 -0.585921
O15   O     O_R   0.037690 0.448310 0.089470 -0.625038
O16   O     O_R   0.141150 0.551680 0.089410 -0.603091
C45   C     C_R   0.998624 0.618619 0.120900 0.948371
C46   C     C_R   0.117101 0.495086 0.114822 0.858965
O17   O     O_R   0.051440 0.091580 0.643120 -0.584173
O18   O     O_R   0.947460 0.091580 0.539110 -0.596723
C47   C     C_R   0.996516 0.116351 0.620210 0.828088
O19   O     O_R   0.143620 0.091630 0.552020 -0.572164
O20   O     O_R   0.039640 0.091620 0.448010 -0.634437
C48   C     C_R   0.118817 0.119402 0.497730 0.913341
Zn5   Zn    Zn3+2 0.069430 0.000010 0.569460 1.144394
Zn6   Zn    Zn3+2 0.930570 0.000010 0.430560 1.115921
O21   O     O_R   0.052540 0.908440 0.460910 -0.623274
O22   O     O_R   0.948560 0.908430 0.356900 -0.587796
O23   O     O_R   0.960360 0.908390 0.552000 -0.622638
O24   O     O_R   0.856380 0.908390 0.447990 -0.584014
C49   C     C_R   0.005796 0.885891 0.379246 0.920824
C50   C     C_R   0.882148 0.874102 0.495915 0.899030
C51   C     C_R   0.036844 0.254190 0.919569 -0.221110
C52   C     C_R   0.093359 0.224798 0.949053 -0.153043
C53   C     C_R   0.091125 0.156164 0.885891 -0.028523
C54   C     C_R   0.037416 0.126701 0.796679 -0.068312
C55   C     C_R   0.015504 0.184445 0.772155 -0.000048
C56   C     C_R   0.015892 0.250283 0.835998 0.149903
C57   C     C_R   0.009092 0.317307 0.819731 -0.128392
C58   C     C_R   0.013267 0.324809 0.746564 -0.133148
C59   C     C_R   0.998951 0.253514 0.677800 -0.081999
C60   C     C_R   0.998126 0.182429 0.689281 -0.178054
C61   C     C_R   0.845926 0.613571 0.154926 -0.031413
C62   C     C_R   0.774097 0.627721 0.135094 0.018529
C63   C     C_R   0.785423 0.708407 0.141115 -0.105912
C64   C     C_R   0.869010 0.778838 0.188144 0.032274
C65   C     C_R   0.937117 0.765807 0.229233 0.102745
C66   C     C_R   0.928055 0.684451 0.192071 -0.089215
C67   C     C_R   0.002903 0.680593 0.196867 -0.198892
C68   C     C_R   0.083401 0.748911 0.264747 -0.107489
C69   C     C_R   0.086980 0.820679 0.324905 -0.136228
C70   C     C_R   0.011943 0.827530 0.308488 -0.118136
C71   C     C_2   0.733852 0.429256 0.571848 1.111590
O25   O     O_2   0.806472 0.475176 0.589787 -0.627248
O26   O     O_R   0.674317 0.380011 0.482801 -0.723206
H4    H     H_    0.699457 0.390578 0.443340 0.361549
C72   C     C_2   0.752733 0.665138 0.778384 0.373200
H5    H     H_    0.721235 0.686687 0.736846 0.108165
O27   O     O_2   0.767199 0.698579 0.854123 -0.530281
C73   C     C_2   0.896928 0.672854 0.899443 1.109496
O28   O     O_2   0.930808 0.744470 0.905967 -0.553415
O29   O     O_R   0.904194 0.666430 0.975336 -0.833082
H6    H     H_    0.936158 0.724345 0.029288 0.355609
C74   C     C_2   0.357759 0.197176 0.444309 0.569430
H7    H     H_    0.323506 0.129165 0.398522 0.124649
O30   O     O_2   0.431140 0.238066 0.461186 -0.543638
C75   C     C_2   0.324687 0.476881 0.641437 0.560299
H8    H     H_    0.335070 0.541969 0.661714 0.066087
O31   O     O_2   0.374504 0.463870 0.689465 -0.524864
C76   C     C_2   0.172829 0.490268 0.559382 0.925763
O32   O     O_2   0.187700 0.527121 0.635031 -0.564368
O33   O     O_R   0.153736 0.524969 0.503448 -0.782920
H9    H     H_    0.154542 0.581102 0.533247 0.374524
C77   C     C_2   0.021100 0.337691 0.414238 0.991244
O34   O     O_2   0.986269 0.308401 0.335055 -0.579141
O35   O     O_R   0.989958 0.378900 0.463623 -0.746390
H10   H     H_    0.937802 0.379412 0.426310 0.372549
C78   C     C_2   0.024620 0.172408 0.356873 0.527053
H11   H     H_    0.036723 0.125434 0.317781 0.100189
O36   O     O_2   0.951096 0.156679 0.337214 -0.533843
C79   C     C_2   0.299208 0.147650 0.562465 1.018859
O37   O     O_2   0.332971 0.105652 0.539856 -0.581027
O38   O     O_R   0.305998 0.173291 0.646001 -0.734894
H12   H     H_    0.336049 0.149213 0.679239 0.364970
C80   C     C_2   0.207134 0.395284 0.334319 0.425999
H13   H     H_    0.157617 0.391129 0.353308 0.103145
O39   O     O_2   0.241888 0.352571 0.345154 -0.586634
C81   C     C_2   0.626376 0.334112 0.587954 0.614858
H14   H     H_    0.565603 0.328604 0.577545 0.127953
O40   O     O_2   0.628297 0.269168 0.548242 -0.434791
C82   C     C_2   0.457490 0.684339 0.403175 0.953454
O41   O     O_2   0.535179 0.722179 0.439449 -0.616512
O42   O     O_R   0.414199 0.696675 0.451550 -0.755490
H15   H     H_    0.454209 0.736871 0.515964 0.361239
C83   C     C_2   0.507394 0.737893 0.283954 0.998557
O43   O     O_2   0.519701 0.804931 0.338439 -0.539281
O44   O     O_R   0.565848 0.738178 0.252308 -0.810596
H16   H     H_    0.615996 0.797498 0.280053 0.367982
C84   C     C_2   0.402298 0.626098 0.097396 1.062417
O45   O     O_2   0.412942 0.693156 0.095139 -0.558632
O46   O     O_R   0.417030 0.568099 0.042623 -0.740947
H17   H     H_    0.436370 0.588780 0.003903 0.366251
C85   C     C_2   0.232746 0.480467 0.033296 0.539816
H18   H     H_    0.182021 0.418178 0.012997 -0.008324
O47   O     O_2   0.238414 0.500538 0.977360 -0.488376
C86   C     C_2   0.075957 0.410264 0.219833 0.931201
O48   O     O_2   0.046203 0.456269 0.243981 -0.545849
O49   O     O_R   0.029480 0.321532 0.185828 -0.806949
H19   H     H_    0.970496 0.302533 0.180949 0.387983
C87   C     C_2   0.606546 0.600278 0.324630 0.444328
H20   H     H_    0.616954 0.574669 0.269302 0.109603
O50   O     O_2   0.534236 0.568327 0.314778 -0.578398
C88   C     C_2   0.989224 0.847828 0.794290 1.030923
O51   O     O_2   0.009007 0.900871 0.866757 -0.558458
O52   O     O_R   0.034337 0.802715 0.785346 -0.739139
H21   H     H_    0.083347 0.821708 0.842985 0.388945
C89   C     C_2   0.977771 0.802268 0.614220 0.578723
H22   H     H_    0.961361 0.758381 0.548860 0.046235
O53   O     O_2   0.052746 0.847723 0.668059 -0.474369
C90   C     C_2   0.743461 0.336781 0.732756 0.633327
H23   H     H_    0.790114 0.321700 0.766974 0.079697
O54   O     O_2   0.669364 0.286436 0.705885 -0.451704
C91   C     C_2   0.747719 0.725806 0.325466 0.433319
H24   H     H_    0.688801 0.700323 0.267716 0.107867
O55   O     O_2   0.813608 0.745873 0.320111 -0.592200
C92   C     C_2   0.043579 0.408644 0.744845 0.942952
O56   O     O_2   0.112752 0.469299 0.802407 -0.502342
O57   O     O_R   0.998079 0.415532 0.673230 -0.729797
H25   H     H_    0.026916 0.474681 0.678763 0.379203
C93   C     C_2   0.976425 0.248669 0.955829 0.511951
H26   H     H_    0.999114 0.277284 0.025474 0.076312
O58   O     O_2   0.899767 0.207576 0.907406 -0.501272
C94   C     C_2   0.148964 0.263766 0.044514 0.471316
H27   H     H_    0.134608 0.300861 0.090734 0.057737
O59   O     O_2   0.214254 0.259506 0.072915 -0.500965
C95   C     C_2   0.136734 0.110756 0.912566 1.084123
O60   O     O_2   0.182338 0.097349 0.881272 -0.540251
O61   O     O_R   0.128174 0.084118 0.973936 -0.719182
H28   H     H_    0.163366 0.055065 0.987602 0.377891
C96   C     C_2   0.991941 0.034038 0.735084 0.464728
H29   H     H_    0.927400 0.004556 0.683703 0.039142
O62   O     O_2   0.027387 0.990864 0.738592 -0.529373
C97   C     C_2   0.996835 0.258646 0.598075 1.028351
O63   O     O_2   0.062319 0.282169 0.591827 -0.632273
O64   O     O_R   0.919654 0.235412 0.530503 -0.681098
H30   H     H_    0.925255 0.237872 0.478037 0.376126
C98   C     C_2   0.162212 0.743292 0.274080 1.004497
O65   O     O_2   0.224294 0.803843 0.286369 -0.559611
O66   O     O_R   0.165005 0.668417 0.268650 -0.777605
H31   H     H_    0.222232 0.672637 0.277151 0.359607
C99   C     C_2   0.838806 0.532187 0.154530 0.581579
H32   H     H_    0.890483 0.533802 0.203727 0.082438
O67   O     O_2   0.777884 0.462845 0.097706 -0.514901
C100  C     C_2   0.689896 0.564153 0.117773 0.458979
H33   H     H_    0.631381 0.556614 0.072689 0.082169
O68   O     O_2   0.684975 0.522566 0.157200 -0.536617
C101  C     C_2   0.845613 0.410497 0.700356 0.327903
H34   H     H_    0.911781 0.451527 0.748376 0.084397
O69   O     O_2   0.828312 0.351615 0.632767 -0.439258
C102  C     C_2   0.709975 0.719971 0.106679 0.370008
H35   H     H_    0.655467 0.670913 0.044242 0.135275
O70   O     O_2   0.706588 0.782493 0.149274 -0.545111
C103  C     C_2   0.887049 0.859907 0.181929 0.500042
H36   H     H_    0.836081 0.871375 0.150893 0.127937
O71   O     O_2   0.959940 0.913979 0.208522 -0.565172
C104  C     C_2   0.169019 0.891246 0.400277 1.009299
O72   O     O_2   0.187392 0.965141 0.415977 -0.624387
O73   O     O_R   0.224869 0.873576 0.452912 -0.749067
H37   H     H_    0.278608 0.927473 0.502156 0.383075
C105  C     C_2   0.799756 0.619562 0.676209 0.305651
H38   H     H_    0.864032 0.668475 0.700681 0.119121
O74   O     O_2   0.749797 0.592925 0.600641 -0.586511
C106  C     C_2   0.924655 0.602056 0.783784 0.344145
H39   H     H_    0.914193 0.563542 0.720794 0.158675
O75   O     O_2   0.999145 0.655389 0.835545 -0.498860
C107  C     C_2   0.625539 0.548128 0.799840 0.528206
H40   H     H_    0.572165 0.551132 0.759247 0.152075
O76   O     O_2   0.653277 0.589856 0.878344 -0.536661
C108  C     C_2   0.573493 0.400539 0.717425 0.812048
O77   O     O_2   0.570290 0.341985 0.734096 -0.501461
O78   O     O_R   0.497413 0.391210 0.661347 -0.827068
H41   H     H_    0.446596 0.337626 0.646639 0.369489
C109  C     C_2   0.709053 0.450412 0.885320 1.056044
O79   O     O_2   0.702575 0.379525 0.869389 -0.503244
O80   O     O_R   0.683169 0.485704 0.944455 -0.789202
H42   H     H_    0.655973 0.444135 0.964112 0.376237

loop_
_geom_bond_atom_site_label_1
_geom_bond_atom_site_label_2
_geom_bond_distance
_ccdc_geom_bond_type
C62   C100  1.491546 S    
C97   O64   1.396856 S    
C90   H23   1.088338 S    
Zn4   O14   2.008010 S    
C29   C30   1.411002 A    
C86   O48   1.222963 D    
C11   C106  1.560555 S    
C69   C70   1.412866 A    
C81   O40   1.224794 D    
C30   C31   1.403775 A    
C41   C42   1.408710 A    
C62   C63   1.419140 A    
C67   C68   1.414777 A    
C21   C79   1.492950 S    
C54   C55   1.428948 A    
C40   C87   1.494192 S    
C106  H39   1.060633 S    
C75   O31   1.221642 D    
C71   O26   1.406897 S    
C64   C65   1.415768 A    
C57   C58   1.413913 A    
O33   H9    1.013722 S    
C100  H33   1.083684 S    
C72   H5    1.081833 S    
Zn1   O7    2.047316 S    
C2    C9    1.488167 S    
C90   O54   1.217006 D    
C15   C16   1.425867 A    
C26   C27   1.420819 A    
C99   O67   1.220320 D    
O12   Zn4   2.060875 S    
O13   C45   1.273505 A    
C51   C56   1.426580 A    
C25   C26   1.420380 A    
Zn5   O21   2.018912 S    
C23   C24   1.421437 A    
C59   C97   1.482374 S    
O23   C50   1.283188 A    
O49   H19   1.013440 S    
C52   C53   1.409636 A    
O4    C2    1.284860 A    
C91   H24   1.082896 S    
O7    C4    1.292500 A    
C103  O71   1.221713 D    
O15   C46   1.287910 A    
O26   H4    1.014260 S    
C65   C70   1.414181 A    
C3    C39   1.461781 S    
C94   H27   1.082007 S    
C8    C9    1.636475 S    
C10   C44   1.470189 S    
O5    C3    1.292405 A    
C75   H8    1.084043 S    
O78   H41   1.012050 S    
Zn3   O13   2.033601 S    
C69   C104  1.479233 S    
C87   O50   1.218617 D    
C13   C18   1.417819 A    
C22   C48   1.447119 S    
C82   O41   1.221226 D    
C23   C82   1.486644 S    
C73   O28   1.226387 D    
C72   O27   1.219906 D    
O66   H31   1.014053 S    
C92   O57   1.397733 S    
O20   Zn6   2.040934 S    
O73   H37   1.013705 S    
C49   C70   1.473469 S    
C98   O65   1.223051 D    
C61   C99   1.485482 S    
C5    C71   1.577582 S    
C85   O47   1.220120 D    
C6    C10   1.617049 S    
C55   C56   1.402193 A    
C89   O53   1.220292 D    
C97   O63   1.221199 D    
C53   C95   1.483767 S    
C86   O49   1.397207 S    
C63   C102  1.486213 S    
C8    C12   1.571524 S    
O19   C48   1.296761 A    
C88   O51   1.222488 D    
O52   H21   1.013834 S    
C108  O77   1.218547 D    
C109  O80   1.393898 S    
O3    Zn1   2.042134 S    
C20   C74   1.489884 S    
C71   O25   1.215546 D    
C11   C73   1.564231 S    
C33   C34   1.392936 A    
O10   Zn4   2.033603 S    
C83   O44   1.397034 S    
Zn6   O22   2.024138 S    
C34   C35   1.400703 A    
O11   C44   1.269612 A    
C76   O33   1.397796 S    
C99   H32   1.085872 S    
Zn3   O15   2.060876 S    
C23   C28   1.418159 A    
C68   C69   1.408535 A    
C13   C14   1.415198 A    
C36   C89   1.488967 S    
O3    C2    1.281276 A    
O80   H42   1.013321 S    
O20   C48   1.289407 A    
C93   O58   1.221712 D    
C58   C59   1.387534 A    
C55   C60   1.434011 A    
C103  H36   1.082221 S    
C101  H34   1.080065 S    
C68   C98   1.487870 S    
C74   O30   1.213858 D    
C14   C15   1.417162 A    
C93   H26   1.080892 S    
O9    C43   1.283943 A    
C7    C11   1.622488 S    
C38   C39   1.417050 A    
Zn2   O6    2.010935 S    
O12   C44   1.289986 A    
O1    C1    1.281527 A    
C24   C83   1.487567 S    
C1    C19   1.445441 S    
C5    C9    1.658208 S    
C96   O62   1.216337 D    
Zn4   O16   2.028662 S    
C18   C19   1.425138 A    
O22   C49   1.286748 A    
C105  H38   1.081095 S    
O21   C49   1.310868 A    
C107  H40   1.081168 S    
Zn6   O24   2.008193 S    
C19   C20   1.423137 A    
Zn2   O8    2.042137 S    
O14   C45   1.300163 A    
C63   C64   1.417724 A    
C10   C11   1.631977 S    
C37   C38   1.389739 A    
C76   O32   1.222746 D    
O61   H28   1.013865 S    
C73   O29   1.401071 S    
C51   C52   1.399920 A    
C108  O78   1.394937 S    
C43   C57   1.436120 S    
C85   H18   1.083179 S    
O29   H6    1.014029 S    
C47   C60   1.447272 S    
C33   C38   1.408624 A    
C80   O39   1.219022 D    
C89   H22   1.085698 S    
C107  O76   1.222558 D    
C10   C12   1.613553 S    
C17   C22   1.426628 A    
C36   C37   1.424535 A    
C52   C94   1.490292 S    
C64   C103  1.493689 S    
C8    C108  1.543051 S    
C77   O34   1.222103 D    
C16   C78   1.485672 S    
O19   Zn5   2.008311 S    
C84   O46   1.397659 S    
C7    C72   1.549966 S    
C31   C86   1.483061 S    
C31   C32   1.423789 A    
C42   C50   1.473138 S    
O35   H10   1.013734 S    
O18   Zn6   2.018913 S    
C82   O42   1.398431 S    
C39   C40   1.426547 A    
C53   C54   1.421087 A    
C54   C96   1.477681 S    
C83   O43   1.222907 D    
C96   H29   1.085541 S    
Zn1   O5    2.036406 S    
C34   H3    1.083492 S    
C17   C18   1.390575 A    
O11   Zn3   2.028660 S    
C102  O70   1.220946 D    
O1    Zn1   2.010938 S    
C26   C85   1.492600 S    
C20   C21   1.375383 A    
O2    Zn2   2.036406 S    
C33   H2    1.076573 S    
Zn5   O23   2.040940 S    
O8    C4    1.275996 A    
O64   H30   1.012201 S    
C6    C101  1.527259 S    
O6    C3    1.280242 A    
C106  O75   1.224843 D    
O24   C50   1.312760 A    
O4    Zn2   2.047312 S    
O17   C47   1.282251 A    
C81   H14   1.065675 S    
C40   C41   1.410710 A    
O38   H12   1.013877 S    
C35   C88   1.484575 S    
O57   H25   1.013941 S    
C104  O73   1.398129 S    
C13   C75   1.487978 S    
C37   C42   1.410234 A    
C84   O45   1.222745 D    
C66   C67   1.416484 A    
O42   H15   1.013884 S    
C21   C22   1.415628 A    
C41   C91   1.483418 S    
C88   O52   1.397629 S    
O2    C1    1.284050 A    
C78   H11   1.085900 S    
C27   C32   1.421782 A    
C105  O74   1.218421 D    
C101  O69   1.223757 D    
C87   H20   1.083905 S    
O17   Zn5   2.024008 S    
C5    C81   1.531246 S    
C6    C90   1.556961 S    
C25   C84   1.481156 S    
O10   C43   1.277482 A    
C27   C28   1.393069 A    
C61   C66   1.421614 A    
C35   C36   1.424130 A    
C5    C6    1.615638 S    
C58   C92   1.497802 S    
C104  O72   1.220217 D    
C59   C60   1.411085 A    
C7    C9    1.638371 S    
C65   C66   1.384687 A    
C94   O59   1.220517 D    
C79   O37   1.222567 D    
O9    Zn3   2.008014 S    
O44   H16   1.013904 S    
C12   C109  1.539953 S    
C61   C62   1.427704 A    
C91   O55   1.218572 D    
C95   O61   1.398058 S    
C7    C105  1.535065 S    
C8    C107  1.555578 S    
C4    C29   1.453526 S    
C102  H35   1.084495 S    
C28   C29   1.414279 A    
O18   C47   1.301526 A    
O46   H17   1.013829 S    
C95   O60   1.222908 D    
C79   O38   1.398894 S    
C92   O56   1.222668 D    
C109  O79   1.221896 D    
C16   C17   1.423153 A    
C77   O35   1.398414 S    
C12   H1    1.094457 S    
C80   H13   1.082885 S    
C98   O66   1.397386 S    
C24   C25   1.416900 A    
O16   C46   1.293493 A    
C56   C57   1.417955 A    
C32   C46   1.474441 S    
C100  O68   1.220679 D    
C14   C76   1.482797 S    
C15   C77   1.486900 S    
C30   C80   1.486596 S    
C74   H7    1.086037 S    
C45   C67   1.461167 S    
C78   O36   1.220766 D    
C51   C93   1.480088 S    
