data_mof_unit_42774.cif
_audit_creation_date              2012-10-26T17:11:23-0400
_audit_creation_method            fapswitch 2.2
_symmetry_space_group_name_H-M    P1
_symmetry_Int_Tables_number       1
_space_group_crystal_system       triclinic
_cell_length_a                    27.980828
_cell_length_b                    18.686573
_cell_length_c                    16.862302
_cell_angle_alpha                 90.000014
_cell_angle_beta                  62.717543
_cell_angle_gamma                 90.000015
_cell_volume                      7835.92778539

loop_
_atom_site_label
_atom_site_type_symbol
_atom_type_description
_atom_site_fract_x
_atom_site_fract_y
_atom_site_fract_z
_atom_type_partial_charge
C1    C     C_R   0.294899 0.728228 0.329580 0.566127
C2    C     C_R   0.588556 1.000000 0.538847 -0.066013
C3    C     C_R   0.690469 0.714130 0.904455 0.045663
C4    C     C_R   0.926523 0.902969 0.066454 0.560188
C5    C     C_R   0.073477 0.097030 0.933546 0.560188
C6    C     C_R   0.073477 0.902969 0.933546 0.560189
C7    C     C_R   0.926523 0.097031 0.066454 0.560188
C8    C     C_R   0.426523 0.402970 0.066454 0.560188
C9    C     C_R   0.573477 0.597031 0.933546 0.560189
C10   C     C_R   0.573477 0.402969 0.933546 0.560189
C11   C     C_R   0.426523 0.597031 0.066454 0.560188
C12   C     C_R   0.040257 0.629887 0.528528 -0.025790
C13   C     C_R   0.911444 0.500000 0.461153 -0.066013
C14   C     C_R   0.959742 0.370113 0.471471 -0.025791
C15   C     C_R   0.959742 0.629887 0.471472 -0.025791
C16   C     C_R   0.040258 0.370113 0.528528 -0.025790
C17   C     C_R   0.540257 0.129887 0.528528 -0.025790
C18   C     C_R   0.459743 0.870113 0.471471 -0.025791
C19   C     C_R   0.459742 0.129887 0.471472 -0.025791
C20   C     C_R   0.540258 0.870113 0.528528 -0.025791
C21   C     C_R   0.019167 0.694808 0.515792 0.450336
C22   C     C_R   0.980833 0.305192 0.484208 0.450336
C23   C     C_R   0.980833 0.694807 0.484208 0.450336
C24   C     C_R   0.088556 0.500000 0.538847 -0.066013
C25   C     C_R   0.019167 0.305192 0.515792 0.450336
C26   C     C_R   0.519167 0.194808 0.515792 0.450336
C27   C     C_R   0.480833 0.805192 0.484208 0.450336
C28   C     C_R   0.480833 0.194807 0.484208 0.450336
C29   C     C_R   0.519167 0.805192 0.515792 0.450336
C30   C     C_R   0.978856 0.564942 0.488004 -0.070316
C31   C     C_R   0.021144 0.435058 0.511996 -0.070316
C32   C     C_R   0.021144 0.564942 0.511996 -0.070316
C33   C     C_R   0.978856 0.435058 0.488004 -0.070316
C34   C     C_R   0.478856 0.064942 0.488004 -0.070316
C35   C     C_R   0.580278 0.871329 0.556840 0.435278
C36   C     C_R   0.521144 0.935058 0.511996 -0.070316
C37   C     C_R   0.521144 0.064942 0.511996 -0.070316
C38   C     C_R   0.478856 0.935058 0.488004 -0.070316
C39   C     C_R   0.457003 0.000000 0.477417 0.021512
C40   C     C_R   0.542997 1.000000 0.522583 0.021512
C41   C     C_R   0.957003 0.500000 0.477417 0.021512
C42   C     C_R   0.042997 0.500000 0.522583 0.021512
C43   C     C_R   0.389037 0.934289 0.452564 0.005811
C44   C     C_R   0.610963 0.065711 0.547436 0.005811
C45   C     C_R   0.610963 0.934289 0.547436 0.005811
C46   C     C_R   0.419721 0.128671 0.443160 0.435278
C47   C     C_R   0.389037 0.065711 0.452564 0.005812
C48   C     C_R   0.889037 0.434289 0.452564 0.005811
C49   C     C_R   0.110963 0.565711 0.547436 0.005811
C50   C     C_R   0.110963 0.434289 0.547436 0.005812
C51   C     C_R   0.889037 0.565711 0.452564 0.005811
C52   C     C_R   0.337020 0.934391 0.455122 -0.007212
C53   C     C_R   0.662980 0.065609 0.544878 -0.007212
C54   C     C_R   0.662980 0.934391 0.544877 -0.007212
C55   C     C_R   0.337020 0.065609 0.455123 -0.007211
C56   C     C_R   0.837020 0.434391 0.455122 -0.007212
C57   C     C_R   0.419722 0.871329 0.443160 0.435278
C58   C     C_R   0.162980 0.565609 0.544878 -0.007212
C59   C     C_R   0.162980 0.434391 0.544877 -0.007212
C60   C     C_R   0.837020 0.565609 0.455123 -0.007212
C61   C     C_R   0.312636 0.000000 0.455581 -0.163657
C62   C     C_R   0.687363 1.000000 0.544419 -0.163658
C63   C     C_R   0.812636 0.500000 0.455581 -0.163658
C64   C     C_R   0.187363 0.500000 0.544419 -0.163657
C65   C     C_R   0.580278 0.128671 0.556840 0.435278
C66   C     C_R   0.080278 0.371329 0.556840 0.435278
C67   C     C_R   0.919721 0.628671 0.443160 0.435278
C68   C     C_R   0.919721 0.371329 0.443160 0.435278
C69   C     C_R   0.705101 0.271771 0.670420 0.566127
C70   C     C_R   0.080278 0.628671 0.556840 0.435278
C71   C     C_R   0.220871 0.767569 0.953592 0.035794
C72   C     C_R   0.779129 0.232431 0.046408 0.035796
C73   C     C_R   0.779129 0.767570 0.046408 0.035795
C74   C     C_R   0.220871 0.232430 0.953591 0.035804
C75   C     C_R   0.720871 0.267569 0.953592 0.035796
C76   C     C_R   0.279129 0.732431 0.046408 0.035794
C77   C     C_R   0.279129 0.267569 0.046409 0.035804
C78   C     C_R   0.720870 0.732431 0.953592 0.035794
C79   C     C_R   0.228947 0.695705 0.967985 -0.064009
C80   C     C_R   0.705101 0.728228 0.670420 0.566127
C81   C     C_R   0.771054 0.304295 0.032013 -0.064009
C82   C     C_R   0.771053 0.695705 0.032015 -0.064008
C83   C     C_R   0.228941 0.304294 0.967995 -0.064009
C84   C     C_R   0.728946 0.195705 0.967987 -0.064010
C85   C     C_R   0.271053 0.804295 0.032015 -0.064009
C86   C     C_R   0.271060 0.195705 0.032004 -0.064010
C87   C     C_R   0.728946 0.804295 0.967986 -0.064009
C88   C     C_R   0.257768 0.678090 0.014316 0.448075
C89   C     C_R   0.742233 0.321910 0.985682 0.448076
C90   C     C_R   0.742232 0.678090 0.985683 0.448075
C91   C     C_R   0.294899 0.271771 0.329580 0.566126
C92   C     C_R   0.257762 0.321910 0.014327 0.448076
C93   C     C_R   0.757767 0.178090 0.014318 0.448075
C94   C     C_R   0.242232 0.821910 0.985684 0.448075
C95   C     C_R   0.242238 0.178090 0.985673 0.448077
C96   C     C_R   0.757768 0.821911 0.014317 0.448076
C97   C     C_R   0.144343 0.828324 0.944915 0.394359
C98   C     C_R   0.855657 0.171676 0.055084 0.394358
C99   C     C_R   0.855657 0.828324 0.055084 0.394359
C100  C     C_R   0.144343 0.171675 0.944915 0.394354
C101  C     C_R   0.644343 0.328324 0.944915 0.394358
C102  C     C_R   0.794899 0.228229 0.329580 0.566127
C103  C     C_R   0.355657 0.671676 0.055085 0.394358
C104  C     C_R   0.355656 0.328325 0.055085 0.394354
C105  C     C_R   0.644343 0.671676 0.944916 0.394358
C106  C     C_R   0.117914 0.851486 0.895711 -0.019797
C107  C     C_R   0.882086 0.148514 0.104289 -0.019797
C108  C     C_R   0.882086 0.851486 0.104289 -0.019797
C109  C     C_R   0.117915 0.148513 0.895711 -0.019796
C110  C     C_R   0.617914 0.351486 0.895711 -0.019797
C111  C     C_R   0.382086 0.648514 0.104289 -0.019796
C112  C     C_R   0.382085 0.351486 0.104289 -0.019796
C113  C     C_R   0.205101 0.771771 0.670420 0.566127
C114  C     C_R   0.617914 0.648514 0.895711 -0.019797
C115  C     C_R   0.136912 0.829686 0.807224 -0.236749
C116  C     C_R   0.863088 0.170313 0.192776 -0.236749
C117  C     C_R   0.863088 0.829686 0.192776 -0.236749
C118  C     C_R   0.136912 0.170314 0.807224 -0.236749
C119  C     C_R   0.636912 0.329687 0.807224 -0.236749
C120  C     C_R   0.363088 0.670313 0.192776 -0.236749
C121  C     C_R   0.363088 0.329686 0.192776 -0.236749
C122  C     C_R   0.636912 0.670313 0.807224 -0.236749
C123  C     C_R   0.182787 0.787104 0.766245 -0.016715
C124  C     C_R   0.205100 0.228229 0.670420 0.566126
C125  C     C_R   0.817213 0.212896 0.233755 -0.016715
C126  C     C_R   0.817213 0.787104 0.233755 -0.016715
C127  C     C_R   0.182787 0.212896 0.766245 -0.016715
C128  C     C_R   0.682787 0.287104 0.766245 -0.016715
C129  C     C_R   0.317213 0.712896 0.233755 -0.016715
C130  C     C_R   0.317213 0.287104 0.233755 -0.016715
C131  C     C_R   0.682787 0.712896 0.766245 -0.016715
C132  C     C_R   0.209348 0.764425 0.815629 0.330263
C133  C     C_R   0.790652 0.235575 0.184371 0.330263
C134  C     C_R   0.790652 0.764425 0.184371 0.330263
C135  C     C_R   0.794899 0.771772 0.329580 0.566127
C136  C     C_R   0.209348 0.235575 0.815629 0.330269
C137  C     C_R   0.709348 0.264425 0.815629 0.330264
C138  C     C_R   0.290652 0.735575 0.184371 0.330263
C139  C     C_R   0.290652 0.264424 0.184371 0.330269
C140  C     C_R   0.709348 0.735575 0.815629 0.330263
C141  C     C_R   0.196301 0.631752 0.528267 0.542714
C142  C     C_R   0.803698 0.368248 0.471733 0.542715
C143  C     C_R   0.803698 0.631752 0.471733 0.542715
C144  C     C_R   0.196301 0.368248 0.528267 0.542714
C145  C     C_R   0.696301 0.131752 0.528267 0.542714
C146  C     C_R   0.411444 1.000000 0.461153 -0.066013
C147  C     C_R   0.303698 0.868248 0.471733 0.542715
C148  C     C_R   0.303698 0.131752 0.471733 0.542715
C149  C     C_R   0.696301 0.868248 0.528267 0.542714
C150  C     C_R   0.190469 0.785871 0.904455 0.045663
C151  C     C_R   0.809531 0.214130 0.095545 0.045663
C152  C     C_R   0.809531 0.785871 0.095545 0.045662
C153  C     C_R   0.190469 0.214129 0.904454 0.045664
C154  C     C_R   0.690469 0.285870 0.904455 0.045663
C155  C     C_R   0.309531 0.714130 0.095545 0.045663
C156  C     C_R   0.309531 0.285870 0.095546 0.045665
Cu1   Cu    Cu3+1 0.209920 0.785290 0.495070 1.213755
Cu2   Cu    Cu3+1 0.504760 0.500000 0.075850 1.202340
Cu3   Cu    Cu3+1 0.995240 0.000000 0.924150 1.202340
Cu4   Cu    Cu3+1 0.004760 0.000000 0.075850 1.202338
Cu5   Cu    Cu3+1 0.790080 0.214710 0.504930 1.213755
Cu6   Cu    Cu3+1 0.790080 0.785290 0.504930 1.213755
Cu7   Cu    Cu3+1 0.209920 0.214710 0.495070 1.213756
Cu8   Cu    Cu3+1 0.709920 0.285290 0.495070 1.213755
Cu9   Cu    Cu3+1 0.290080 0.714710 0.504930 1.213755
Cu10  Cu    Cu3+1 0.290080 0.285290 0.504930 1.213756
Cu11  Cu    Cu3+1 0.709920 0.714710 0.495070 1.213755
Cu12  Cu    Cu3+1 0.495240 0.500000 0.924150 1.202338
F1    F     F_    0.537581 0.741417 0.529273 -0.497588
F2    F     F_    0.416847 0.185266 0.394923 -0.549313
F3    F     F_    0.416847 0.814734 0.394923 -0.549313
F4    F     F_    0.583153 0.185266 0.605077 -0.549312
F5    F     F_    0.083153 0.314734 0.605077 -0.549313
F6    F     F_    0.916847 0.685266 0.394923 -0.549313
F7    F     F_    0.916847 0.314734 0.394923 -0.549313
F8    F     F_    0.083153 0.685266 0.605077 -0.549312
F9    F     F_    0.236004 0.891875 0.970731 -0.530171
F10   F     F_    0.763994 0.108126 0.029272 -0.530175
F11   F     F_    0.763997 0.891874 0.029267 -0.530173
F12   F     F_    0.462419 0.258583 0.470726 -0.497587
F13   F     F_    0.236015 0.108127 0.970711 -0.530182
F14   F     F_    0.736006 0.391874 0.970728 -0.530175
F15   F     F_    0.263996 0.608125 0.029268 -0.530171
F16   F     F_    0.263984 0.391873 0.029289 -0.530182
F17   F     F_    0.736004 0.608126 0.970731 -0.530173
F18   F     F_    0.126084 0.847394 0.031820 -0.542316
F19   F     F_    0.873916 0.152606 0.968180 -0.542316
F20   F     F_    0.873917 0.847394 0.968180 -0.542315
F21   F     F_    0.126086 0.152603 0.031818 -0.542320
F22   F     F_    0.626084 0.347394 0.031820 -0.542316
F23   F     F_    0.462419 0.741417 0.470726 -0.497588
F24   F     F_    0.373916 0.652606 0.968180 -0.542316
F25   F     F_    0.373914 0.347397 0.968182 -0.542320
F26   F     F_    0.626084 0.652606 0.031820 -0.542316
F27   F     F_    0.254898 0.724348 0.777034 -0.584151
F28   F     F_    0.745102 0.275652 0.222966 -0.584149
F29   F     F_    0.745102 0.724348 0.222966 -0.584151
F30   F     F_    0.254897 0.275654 0.777035 -0.584146
F31   F     F_    0.754898 0.224348 0.777034 -0.584150
F32   F     F_    0.245102 0.775652 0.222965 -0.584151
F33   F     F_    0.245103 0.224346 0.222965 -0.584145
F34   F     F_    0.537581 0.258583 0.529274 -0.497588
F35   F     F_    0.754897 0.775652 0.777035 -0.584150
F36   F     F_    0.037581 0.241417 0.529273 -0.497587
F37   F     F_    0.962419 0.758583 0.470726 -0.497587
F38   F     F_    0.962419 0.241417 0.470726 -0.497588
F39   F     F_    0.037581 0.758583 0.529274 -0.497587
F40   F     F_    0.583153 0.814734 0.605077 -0.549312
H1    H     H_    0.272621 1.000000 0.460639 0.172107
H2    H     H_    0.287552 0.846633 0.055998 0.186865
H3    H     H_    0.287562 0.153368 0.055980 0.186854
H4    H     H_    0.712448 0.846633 0.944003 0.186864
H5    H     H_    0.117032 0.848162 0.768967 0.195812
H6    H     H_    0.882968 0.151838 0.231033 0.195812
H7    H     H_    0.882968 0.848162 0.231033 0.195812
H8    H     H_    0.117032 0.151838 0.768967 0.195812
H9    H     H_    0.617032 0.348162 0.768967 0.195812
H10   H     H_    0.382968 0.651838 0.231033 0.195812
H11   H     H_    0.382968 0.348162 0.231033 0.195812
H12   H     H_    0.727379 0.000000 0.539361 0.172107
H13   H     H_    0.617032 0.651838 0.768967 0.195812
H14   H     H_    0.772621 0.500000 0.460639 0.172107
H15   H     H_    0.227379 0.500000 0.539361 0.172107
H16   H     H_    0.212448 0.653367 0.944002 0.186865
H17   H     H_    0.787553 0.346632 0.055995 0.186862
H18   H     H_    0.787552 0.653367 0.055997 0.186864
H19   H     H_    0.212438 0.346632 0.944020 0.186854
H20   H     H_    0.712447 0.153367 0.944005 0.186862
O1    O     O_R   0.255040 0.869590 0.478480 -0.529991
O2    O     O_R   0.817950 0.203450 0.375560 -0.505238
O3    O     O_R   0.817950 0.796550 0.375560 -0.505238
O4    O     O_R   0.182050 0.203450 0.624440 -0.505237
O5    O     O_R   0.682050 0.296550 0.624440 -0.505237
O6    O     O_R   0.317950 0.703450 0.375560 -0.505238
O7    O     O_R   0.317950 0.296550 0.375560 -0.505237
O8    O     O_R   0.682050 0.703450 0.624440 -0.505237
O9    O     O_R   0.250530 0.763330 0.367210 -0.431018
O10   O     O_R   0.749470 0.236670 0.632790 -0.431018
O11   O     O_R   0.749470 0.763330 0.632790 -0.431018
O12   O     O_R   0.744960 0.130410 0.521520 -0.529990
O13   O     O_R   0.250530 0.236670 0.367210 -0.431019
O14   O     O_R   0.750530 0.263330 0.367210 -0.431018
O15   O     O_R   0.249470 0.736670 0.632790 -0.431018
O16   O     O_R   0.249470 0.263330 0.632790 -0.431018
O17   O     O_R   0.750530 0.736670 0.367210 -0.431018
O18   O     O_R   0.177260 0.690030 0.513710 -0.432156
O19   O     O_R   0.822740 0.309970 0.486290 -0.432156
O20   O     O_R   0.822740 0.690030 0.486290 -0.432156
O21   O     O_R   0.177260 0.309970 0.513710 -0.432156
O22   O     O_R   0.677260 0.190030 0.513710 -0.432156
O23   O     O_R   0.744960 0.869590 0.521520 -0.529990
O24   O     O_R   0.322740 0.809970 0.486290 -0.432156
O25   O     O_R   0.322740 0.190030 0.486290 -0.432156
O26   O     O_R   0.677260 0.809970 0.513710 -0.432156
O27   O     O_R   0.051640 0.926880 0.885090 -0.533563
O28   O     O_R   0.948360 0.073120 0.114910 -0.533563
O29   O     O_R   0.948360 0.926880 0.114910 -0.533562
O30   O     O_R   0.051640 0.073120 0.885090 -0.533563
O31   O     O_R   0.551640 0.426880 0.885090 -0.533563
O32   O     O_R   0.448360 0.573120 0.114910 -0.533563
O33   O     O_R   0.448360 0.426880 0.114910 -0.533562
O34   O     O_R   0.255040 0.130410 0.478480 -0.529990
O35   O     O_R   0.551640 0.573120 0.885090 -0.533563
O36   O     O_R   0.940620 0.926560 0.986760 -0.418091
O37   O     O_R   0.059380 0.073440 0.013240 -0.418093
O38   O     O_R   0.059380 0.926560 0.013240 -0.418092
O39   O     O_R   0.940620 0.073440 0.986760 -0.418092
O40   O     O_R   0.440620 0.426560 0.986760 -0.418093
O41   O     O_R   0.559380 0.573440 0.013240 -0.418092
O42   O     O_R   0.559380 0.426560 0.013240 -0.418092
O43   O     O_R   0.440620 0.573440 0.986760 -0.418092
O44   O     O_R   0.755040 0.369590 0.478480 -0.529991
O45   O     O_R   0.244960 0.630410 0.521520 -0.529990
O46   O     O_R   0.244960 0.369590 0.521520 -0.529990
O47   O     O_R   0.755040 0.630410 0.478480 -0.529991
O48   O     O_R   0.182050 0.796550 0.624440 -0.505237

loop_
_geom_bond_atom_site_label_1
_geom_bond_atom_site_label_2
_ccdc_geom_bond_type
C100  C153  A    
C5    O37   A    
C31   C42   A    
C132  C150  A    
C87   H4    S    
C133  C151  A    
C74   C83   A    
C102  C125  S    
C14   C33   A    
C19   C46   A    
C79   H16   S    
C3    C105  A    
C16   C31   A    
C9    C114  S    
C1    C129  S    
C52   C61   A    
C77   C156  S    
Cu9   O24   S    
Cu10  O16   S    
C144  O46   A    
C131  C140  A    
C13   C51   A    
C44   C53   A    
C91   O13   A    
Cu3   O36   S    
C113  O15   A    
C97   C150  A    
C124  O16   A    
Cu1   O18   S    
C136  F30   S    
Cu6   O3    S    
C119  C128  A    
C25   F36   S    
C47   C146  A    
C100  C109  A    
C58   C64   A    
C63   H14   S    
Cu12  O40   S    
C113  O48   A    
C109  C118  A    
C147  O24   A    
C115  C123  A    
C127  C136  A    
Cu5   O10   S    
C101  C110  A    
C120  C129  A    
C64   H15   S    
Cu8   O22   S    
C98   F19   S    
C105  C114  A    
C36   C40   A    
C72   C151  S    
C6    C106  S    
C28   F12   S    
C124  O4    A    
C124  C127  S    
C50   C59   A    
C35   C45   A    
C15   C30   A    
C16   C25   A    
C82   C90   A    
C76   C155  S    
C106  C115  A    
C18   C38   A    
C11   O32   A    
C136  C153  A    
C147  O1    A    
C58   C141  S    
C133  F28   S    
Cu4   O29   S    
C6    O27   A    
C84   C93   A    
C86   C95   A    
C2    C40   A    
C35   F40   S    
C126  C134  A    
C102  O2    A    
C10   O31   A    
C148  O34   A    
C70   F8    S    
C76   C85   A    
C78   C87   A    
C144  O21   A    
Cu4   O38   S    
C123  C132  A    
C27   C29   A    
C80   O8    A    
C141  O45   A    
C121  C130  A    
Cu1   O48   S    
C71   C79   A    
Cu1   O1    S    
Cu5   O12   S    
C99   C108  A    
C82   H18   S    
Cu2   O41   S    
Cu12  O31   S    
C37   C40   A    
C60   C143  S    
C38   C39   A    
C75   C84   A    
C71   C150  S    
C67   F6    S    
C91   O7    A    
C143  O20   A    
C115  H5    S    
C85   C94   A    
C117  H7    S    
C69   O5    A    
Cu10  O46   S    
C20   C35   A    
C137  F31   S    
C69   C128  S    
C2    C44   A    
C22   C25   A    
C6    O38   A    
C104  F25   S    
C30   C41   A    
C102  O14   A    
C23   F37   S    
C44   C65   A    
C2    C45   A    
C24   C50   A    
C105  F26   S    
C65   F4    S    
C34   C39   A    
Cu7   O4    S    
C92   F16   S    
Cu12  O43   S    
Cu1   Cu9   S    
C104  C112  A    
C95   F13   S    
C1    O9    A    
C46   F2    S    
Cu6   O23   S    
C4    O36   A    
C15   C67   A    
C51   C67   A    
C7    O39   A    
C19   C28   A    
C116  C125  A    
C73   C152  S    
C7    C107  S    
C118  C127  A    
C122  C131  A    
C117  C126  A    
C9    O41   A    
C32   C42   A    
C11   O43   A    
C108  C117  A    
C110  C119  A    
C59   C144  S    
Cu3   O30   S    
C99   C152  A    
C29   F1    S    
C14   C22   A    
C81   C89   A    
C112  C121  A    
Cu6   O11   S    
C55   C148  S    
C101  C154  A    
Cu2   O32   S    
C55   C61   A    
Cu7   O13   S    
C107  C116  A    
C75   C89   A    
C120  H10   S    
C142  O19   A    
C118  H8    S    
C51   C60   A    
C8    O33   A    
C138  C155  A    
C134  F29   S    
C4    O29   A    
C34   C37   A    
C24   C42   A    
C135  O17   A    
Cu3   O27   S    
Cu8   O14   S    
C13   C41   A    
Cu2   Cu12  S    
C78   C90   A    
C4    C108  S    
C80   O11   A    
Cu5   O19   S    
C8    C112  S    
C7    O28   A    
C125  C133  A    
C145  O12   A    
Cu10  O7    S    
Cu10  O25   S    
C103  C111  A    
C99   F20   S    
C12   C70   A    
C132  F27   S    
C69   O10   A    
C72   C81   A    
C56   C142  S    
Cu9   O6    S    
C80   C131  S    
C135  O3    A    
C143  O47   A    
C121  H11   S    
Cu11  O8    S    
C130  C139  A    
C79   C88   A    
C68   F7    S    
C98   C151  A    
C97   F18   S    
C45   C54   A    
C11   C111  S    
Cu7   Cu10  S    
C101  F22   S    
C91   C130  S    
C54   C62   A    
C98   C107  A    
C94   F9    S    
C62   H12   S    
C18   C57   A    
Cu3   Cu4   S    
C113  C123  S    
C1    O6    A    
C134  C152  A    
C53   C145  S    
C61   H1    S    
C86   H3    S    
C72   C93   A    
C103  C155  A    
C126  C135  S    
C49   C70   A    
C21   C23   A    
C16   C66   A    
C73   C82   A    
Cu5   Cu8   S    
C46   C47   A    
C17   C65   A    
C90   F17   S    
Cu2   O42   S    
C33   C41   A    
C89   F14   S    
Cu4   O28   S    
C36   C38   A    
C43   C146  A    
C5    C109  S    
C39   C146  A    
C137  C154  A    
C10   C110  S    
C96   F11   S    
Cu6   O20   S    
C43   C52   A    
Cu5   O2    S    
C20   C36   A    
C10   O42   A    
C14   C68   A    
C73   C96   A    
C3    C78   S    
C138  F32   S    
C149  O23   A    
C77   C92   A    
C100  F21   S    
C8    O40   A    
C85   H2    S    
C71   C94   A    
C83   H19   S    
C83   C92   A    
C22   F38   S    
C59   C64   A    
C81   H17   S    
C60   C63   A    
C17   C26   A    
C26   F34   S    
Cu3   O39   S    
C129  C138  A    
C122  H13   S    
C31   C33   A    
C66   F5    S    
C76   C88   A    
C15   C23   A    
Cu8   O44   S    
Cu4   O37   S    
Cu11  O26   S    
C12   C32   A    
C27   F23   S    
C54   C149  S    
C20   C29   A    
C145  O22   A    
Cu7   O21   S    
C116  H6    S    
C139  F33   S    
C140  F35   S    
Cu11  O47   S    
C43   C57   A    
C88   F15   S    
C149  O26   A    
Cu11  O17   S    
C12   C21   A    
C48   C68   A    
C49   C58   A    
C74   C153  S    
C111  C120  A    
C128  C137  A    
C53   C62   A    
Cu2   O33   S    
C87   C96   A    
C141  O18   A    
C56   C63   A    
C17   C37   A    
C104  C156  A    
C50   C66   A    
Cu7   O34   S    
Cu9   O15   S    
C77   C86   A    
C52   C147  S    
C97   C106  A    
C84   H20   S    
C47   C55   A    
Cu1   O9    S    
C24   C49   A    
C48   C56   A    
Cu8   O5    S    
C74   C95   A    
C18   C27   A    
C19   C34   A    
C13   C48   A    
C93   F10   S    
C3    C140  A    
C26   C28   A    
C21   F39   S    
C30   C32   A    
C75   C154  S    
C139  C156  A    
C9    O35   A    
C5    O30   A    
Cu12  O35   S    
C142  O44   A    
Cu6   Cu11  S    
C114  C122  A    
C148  O25   A    
C119  H9    S    
C103  F24   S    
Cu9   O45   S    
C57   F3    S    
