data_mof_unit_48521.cif
_audit_creation_date              2013-03-05T15:58:06-0500
_audit_creation_method            fapswitch 2.2
_symmetry_space_group_name_H-M    P1
_symmetry_Int_Tables_number       1
_space_group_crystal_system       triclinic
_cell_length_a                    15.091215
_cell_length_b                    13.904643
_cell_length_c                    10.958145
_cell_angle_alpha                 89.672134
_cell_angle_beta                  84.681486
_cell_angle_gamma                 90.276471
_cell_volume                      2289.46462224

loop_
_atom_site_label
_atom_site_type_symbol
_atom_site_description
_atom_site_fract_x
_atom_site_fract_y
_atom_site_fract_z
_atom_type_partial_charge
O1    O     O_R   0.370250 0.582280 0.500040 -0.549501
O2    O     O_R   0.370250 0.417720 0.500040 -0.525103
C1    C     C_R   0.328911 0.500142 0.510645 0.874259
O3    O     O_R   0.499970 0.582270 0.317700 -0.507951
O4    O     O_R   0.499970 0.417730 0.317700 -0.507811
C2    C     C_R   0.494880 0.499680 0.259761 0.941922
Cu1   Cu    Cu3+1 0.499990 0.597420 0.500010 1.122651
Cu2   Cu    Cu3+1 0.499990 0.402580 0.500010 1.120534
O5    O     O_R   0.629730 0.582260 0.499980 -0.546268
O6    O     O_R   0.629730 0.417740 0.499980 -0.555169
O7    O     O_R   0.500000 0.582270 0.682320 -0.578366
O8    O     O_R   0.500000 0.417730 0.682320 -0.586175
C3    C     C_R   0.671697 0.499950 0.502783 0.859792
C4    C     C_R   0.495274 0.500222 0.739397 0.815188
C5    C     C_3   0.477465 0.608526 0.067729 0.456968
C6    C     C_3   0.408118 0.434918 0.075574 0.481700
C7    C     C_3   0.495688 0.605305 0.924569 -0.419571
C8    C     C_3   0.405438 0.453515 0.933646 -0.417121
H1    H     H_    0.450250 0.653215 0.879814 0.260722
H2    H     H_    0.350094 0.501998 0.914320 0.231166
H3    H     H_    0.562183 0.634118 0.890759 0.223893
H4    H     H_    0.390936 0.387108 0.884393 0.256675
H5    H     H_    0.632676 0.475526 0.857550 0.204216
H6    H     H_    0.567401 0.370719 0.886412 0.237984
C9    C     C_3   0.583825 0.455586 0.052609 0.458527
C10   C     C_3   0.491123 0.498531 0.119485 -0.414832
C11   C     C_3   0.491782 0.501367 0.876079 -0.139189
C12   C     C_3   0.573278 0.447450 0.913278 -0.449297
C13   C     C_R   0.825939 0.552664 0.429078 0.290081
C14   C     C_R   0.769179 0.500269 0.515536 -0.167719
C15   C     C_R   0.806827 0.449067 0.611537 0.106934
C16   C     C_R   0.900072 0.452512 0.618433 0.102964
C17   C     C_R   0.953012 0.514437 0.539076 -0.014118
C18   C     C_R   0.914026 0.571332 0.452212 -0.007624
C19   C     C_R   0.942217 0.394576 0.701964 -0.109526
C20   C     C_R   0.035015 0.392753 0.699836 -0.149355
C21   C     C_R   0.087674 0.450772 0.616932 0.093041
C22   C     C_R   0.046328 0.514677 0.539864 0.096221
C23   C     C_R   0.098647 0.576198 0.459392 0.079556
C24   C     C_R   0.058344 0.640651 0.384420 -0.147165
C25   C     C_R   0.966915 0.638136 0.380506 -0.083062
C26   C     C_R   0.180868 0.445170 0.607587 -0.162675
C27   C     C_R   0.231968 0.503146 0.522362 -0.031447
C28   C     C_R   0.190665 0.570874 0.452536 -0.060162
H7    H     H_    0.904250 0.347854 0.766791 0.192070
H8    H     H_    0.065604 0.344726 0.761693 0.182527
H9    H     H_    0.213383 0.397247 0.667280 0.206511
H10   H     H_    0.230403 0.617828 0.389782 0.218600
H11   H     H_    0.097780 0.690623 0.325340 0.185547
H12   H     H_    0.938805 0.689228 0.320777 0.209484
C29   C     C_R   0.428102 0.794142 0.554265 0.424942
C30   C     C_R   0.427410 0.204431 0.551579 0.455516
N1    N     N_R   0.499930 0.743810 0.499950 -0.302286
N2    N     N_R   0.499930 0.256190 0.499950 -0.307021
C31   C     C_R   0.571416 0.795436 0.444998 0.468269
C32   C     C_R   0.572409 0.205580 0.446541 0.467947
C33   C     C_R   0.569408 0.897817 0.431961 -0.073646
C34   C     C_R   0.568888 0.103657 0.431463 -0.073658
C35   C     C_R   0.497966 0.948569 0.491791 -0.004041
C36   C     C_R   0.497659 0.051436 0.491187 -0.009832
C37   C     C_R   0.427371 0.896632 0.554542 -0.067100
C38   C     C_R   0.426950 0.102014 0.553128 -0.064291
C39   C     C_R   0.636315 0.950847 0.359701 0.134160
C40   C     C_R   0.635722 0.052655 0.359265 0.134558
C41   C     C_R   0.357264 0.048972 0.616596 -0.084053
C42   C     C_R   0.357580 0.948525 0.617535 -0.094895
H13   H     H_    0.302354 0.084476 0.668180 0.203209
H14   H     H_    0.302958 0.912176 0.669963 0.205403
N3    N     N_R   0.537616 0.683250 0.113750 0.169501
O9    O     O_R   0.615071 0.703105 0.056313 -0.279213
O10   O     O_R   0.504554 0.748746 0.189159 -0.279582
N4    N     N_R   0.417267 0.330481 0.098254 0.167988
O11   O     O_R   0.443686 0.271262 0.010671 -0.317877
O12   O     O_R   0.388215 0.293613 0.204139 -0.238107
N5    N     N_R   0.352322 0.743821 0.611350 0.133434
O13   O     O_R   0.355590 0.704949 0.718834 -0.353671
O14   O     O_R   0.275585 0.752921 0.567365 -0.366541
N6    N     N_R   0.351166 0.253112 0.606573 0.121020
O15   O     O_R   0.351121 0.283737 0.718253 -0.390433
O16   O     O_R   0.275904 0.244408 0.558385 -0.353652
N7    N     N_R   0.651695 0.746867 0.407761 0.157823
O17   O     O_R   0.661723 0.709208 0.299688 -0.196633
O18   O     O_R   0.720645 0.758278 0.469430 -0.371214
N8    N     N_R   0.658075 0.250634 0.428434 0.156383
O19   O     O_R   0.718712 0.226527 0.499684 -0.388780
O20   O     O_R   0.681940 0.298647 0.328624 -0.219820
N9    N     N_3   0.702857 0.901879 0.281413 -0.467612
H15   H     H_    0.696693 0.920837 0.190198 0.251486
H16   H     H_    0.765989 0.921541 0.304850 0.241317
N10   N     N_3   0.700355 0.104221 0.279180 -0.467739
H17   H     H_    0.764256 0.086554 0.301006 0.247999
H18   H     H_    0.693304 0.085328 0.188425 0.248687
N11   N     N_R   0.384345 0.640651 0.102504 0.146837
O21   O     O_R   0.356597 0.653237 0.217308 -0.300020
O22   O     O_R   0.330204 0.663869 0.021338 -0.306814
N12   N     N_R   0.321164 0.462616 0.138951 0.158911
O23   O     O_R   0.249056 0.456452 0.082562 -0.291618
O24   O     O_R   0.311301 0.464060 0.257768 -0.354959
N13   N     N_R   0.656783 0.521679 0.073381 0.169586
O25   O     O_R   0.726348 0.531251 0.994374 -0.254279
O26   O     O_R   0.664833 0.546616 0.185230 -0.257708
N14   N     N_R   0.614170 0.359529 0.091186 0.168234
O27   O     O_R   0.690540 0.328274 0.042266 -0.263362
O28   O     O_R   0.568832 0.302739 0.167736 -0.263391
N15   N     N_R   0.807724 0.550454 0.303426 0.168740
O29   O     O_R   0.810433 0.467163 0.249557 -0.233374
O30   O     O_R   0.816551 0.627579 0.235562 -0.242503
N16   N     N_3   0.753458 0.391068 0.699859 -0.543927
H19   H     H_    0.769054 0.319016 0.682735 0.274670
H20   H     H_    0.685803 0.397547 0.691535 0.226508

loop_
_geom_bond_atom_site_label_1
_geom_bond_atom_site_label_2
_geom_bond_distance
_ccdc_geom_bond_type
C42   H14   1.081612 S    
N9    H15   1.044835 S    
N11   O21   1.301616 A    
C15   N16   1.440853 S    
C19   C20   1.398823 A    
C29   C37   1.425197 A    
C40   N10   1.436313 S    
C27   C28   1.395239 A    
C6    N4    1.481126 S    
N7    O17   1.293926 A    
Cu1   Cu2   2.709179 S    
C2    C10   1.543621 S    
C9    C12   1.554391 S    
Cu1   O7    2.007670 S    
N15   O30   1.300750 A    
C1    C27   1.457532 S    
C21   C22   1.409452 A    
C20   C21   1.399733 A    
N8    O20   1.299212 A    
O4    C2    1.307303 A    
O7    C4    1.296378 A    
N6    O16   1.301586 A    
C9    N14   1.485825 S    
C33   C35   1.404220 A    
C34   C36   1.402736 A    
C24   H11   1.084238 S    
N16   H19   1.044312 S    
C36   C38   1.404428 A    
C21   C26   1.403221 A    
N3    O10   1.302963 A    
O5    C3    1.312297 A    
C37   C42   1.408779 A    
C9    N13   1.465499 S    
C15   C16   1.416785 A    
N16   H20   1.037741 S    
C41   H13   1.081767 S    
N12   O24   1.297003 A    
C20   H8    1.083652 S    
C4    C11   1.493990 S    
C31   N7    1.417657 S    
C35   C36   1.430340 A    
N11   O22   1.302632 A    
O1    Cu1   1.968178 S    
C34   C40   1.418283 A    
C13   N15   1.429318 S    
N14   O27   1.302879 A    
C18   C25   1.409095 A    
O3    Cu1   2.010081 S    
C30   N6    1.424390 S    
N7    O18   1.301756 A    
C30   N2    1.381574 A    
C33   C39   1.424136 A    
N1    C31   1.381623 A    
C6    C10   1.639807 S    
C22   C23   1.410147 A    
C5    N3    1.496553 S    
N2    C32   1.388387 A    
C6    N12   1.480418 S    
C35   C37   1.407285 A    
C7    C11   1.545396 S    
C16   C19   1.412708 A    
C3    C14   1.490571 S    
N8    O19   1.300675 A    
N4    O12   1.303089 A    
Cu2   N2    2.035500 S    
C23   C24   1.391947 A    
N6    O15   1.298016 A    
C5    C10   1.648667 S    
C9    C10   1.635176 S    
C13   C18   1.399526 A    
C7    H3    1.109171 S    
C29   N1    1.382579 A    
N5    O13   1.298296 A    
C13   C14   1.413416 A    
N10   H18   1.044851 S    
N13   O25   1.303166 A    
Cu2   O8    2.010067 S    
N12   O23   1.302964 A    
C17   C18   1.406321 A    
H5    C12   1.105107 S    
N14   O28   1.294660 A    
N5    O14   1.301395 A    
O3    C2    1.320725 A    
C24   C25   1.384686 A    
N13   O26   1.292011 A    
O8    C4    1.308697 A    
C41   C42   1.396690 A    
N9    H16   1.045016 S    
C26   C27   1.403065 A    
Cu1   N1    2.035502 S    
C19   H7    1.081975 S    
C25   H12   1.078005 S    
C5    C7    1.568318 S    
C38   C41   1.408786 A    
C39   N9    1.435817 S    
C8    H4    1.103381 S    
Cu2   O6    1.968208 S    
O2    Cu2   1.970198 S    
C8    C11   1.540462 S    
H6    C12   1.113719 S    
C29   N5    1.429467 S    
N4    O11   1.303594 A    
O6    C3    1.306041 A    
C5    N11   1.492758 S    
O4    Cu2   2.007684 S    
C23   C28   1.386086 A    
N15   O29   1.302008 A    
C17   C22   1.409069 A    
C16   C17   1.411353 A    
C31   C33   1.430649 A    
O2    C1    1.308095 A    
C30   C38   1.424047 A    
N10   H17   1.044937 S    
C14   C15   1.429146 A    
C7    H1    1.103423 S    
C32   C34   1.429042 A    
C8    H2    1.110612 S    
C26   H9    1.081823 S    
N3    O9    1.302748 A    
C39   C40   1.415656 A    
Cu1   O5    1.970231 S    
C6    C8    1.579402 S    
C32   N8    1.430512 S    
C11   C12   1.529427 S    
O1    C1    1.298173 A    
C28   H10   1.083241 S    
