data_mof_unit_5158.cif
_audit_creation_date              2013-03-05T16:14:29-0500
_audit_creation_method            fapswitch 2.2
_symmetry_space_group_name_H-M    P1
_symmetry_Int_Tables_number       1
_space_group_crystal_system       triclinic
_cell_length_a                    10.647544
_cell_length_b                    10.634073
_cell_length_c                    9.50641
_cell_angle_alpha                 89.998042
_cell_angle_beta                  90.209244
_cell_angle_gamma                 90.514362
_cell_volume                      1076.32945396

loop_
_atom_site_label
_atom_site_type_symbol
_atom_site_description
_atom_site_fract_x
_atom_site_fract_y
_atom_site_fract_z
_atom_type_partial_charge
O1    O     O_R   0.500060 0.316850 0.620870 -0.599167
O2    O     O_R   0.499940 0.683150 0.379130 -0.599167
O3    O     O_R   0.500000 0.316860 0.379090 -0.537049
O4    O     O_R   0.500000 0.683140 0.620910 -0.537049
C1    C     C_R   0.499499 0.259984 0.500113 0.866396
C2    C     C_R   0.500501 0.740016 0.499887 0.866396
O5    O     O_R   0.316880 0.499960 0.620870 -0.563685
O6    O     O_R   0.683120 0.500040 0.379130 -0.563686
O7    O     O_R   0.316830 0.499970 0.379090 -0.568017
O8    O     O_R   0.683170 0.500030 0.620910 -0.568017
C3    C     C_R   0.260176 0.499193 0.499588 0.864468
C4    C     C_R   0.739824 0.500807 0.500412 0.864468
Cu1   Cu    Cu3+1 0.500030 0.499990 0.643150 1.024378
Cu2   Cu    Cu3+1 0.499970 0.500010 0.356850 1.024378
C5    C     C_3   0.040003 0.401958 0.572420 0.113856
C6    C     C_3   0.959997 0.598042 0.427580 0.113856
C7    C     C_3   0.956518 0.395575 0.441508 0.155543
C8    C     C_3   0.043482 0.604425 0.558492 0.155543
C9    C     C_3   0.875994 0.501186 0.501913 -0.074186
C10   C     C_3   0.124006 0.498814 0.498086 -0.074186
C11   C     C_3   0.959589 0.507724 0.636307 -0.204827
C12   C     C_3   0.040411 0.492276 0.363693 -0.204827
H1    H     H_    0.927666 0.512868 0.747024 0.207847
H2    H     H_    0.072333 0.487132 0.252976 0.207847
C13   C     C_3   0.522019 0.041921 0.632485 -0.207219
C14   C     C_3   0.477980 0.958079 0.367515 -0.207219
C15   C     C_3   0.610428 0.961636 0.543052 0.408863
C16   C     C_3   0.389572 0.038364 0.456948 0.408863
H3    H     H_    0.542103 0.077033 0.740300 0.191217
H4    H     H_    0.457897 0.922967 0.259700 0.191217
C17   C     C_3   0.500961 0.876596 0.499342 -0.142446
C18   C     C_3   0.499039 0.123404 0.500658 -0.142445
C19   C     C_3   0.409768 0.955802 0.587503 -0.274097
C20   C     C_3   0.590232 0.044198 0.412496 -0.274097
H5    H     H_    0.334823 0.918151 0.657105 0.186185
H6    H     H_    0.665177 0.081849 0.342894 0.186186
C21   C     C_3   0.469734 0.610650 0.051420 -0.236688
C22   C     C_3   0.530266 0.389350 0.948580 -0.236688
C23   C     C_3   0.391844 0.527839 0.950906 0.143577
C24   C     C_3   0.608155 0.472161 0.049094 0.143577
H7    H     H_    0.444042 0.702801 0.097492 0.168417
H8    H     H_    0.555958 0.297199 0.902508 0.168417
N1    N     N_3   0.500090 0.499970 0.858290 -0.230731
N2    N     N_3   0.499910 0.500030 0.141710 -0.230732
C25   C     C_3   0.578610 0.580509 0.951525 0.431752
C26   C     C_3   0.421390 0.419491 0.048475 0.431752
N3    N     N_3   0.905776 0.280641 0.379329 -0.561944
H9    H     H_    0.981658 0.223286 0.354431 0.310942
H10   H     H_    0.854237 0.234027 0.457133 0.223974
N4    N     N_3   0.094224 0.719359 0.620670 -0.561944
H11   H     H_    0.018341 0.776714 0.645569 0.310942
H12   H     H_    0.145763 0.765973 0.542867 0.223974
N5    N     N_3   0.085608 0.292885 0.649124 -0.499311
H13   H     H_    0.007133 0.245339 0.688952 0.245662
H14   H     H_    0.136610 0.326211 0.735756 0.258287
N6    N     N_3   0.914392 0.707115 0.350876 -0.499311
H15   H     H_    0.992867 0.754661 0.311048 0.245662
H16   H     H_    0.863390 0.673789 0.264244 0.258287
N7    N     N_R   0.734007 0.921081 0.590012 0.156902
O9    O     O_R   0.818353 0.004463 0.625575 -0.365511
O10   O     O_R   0.761839 0.802398 0.593750 -0.323887
N8    N     N_R   0.265993 0.078918 0.409988 0.156902
O11   O     O_R   0.181647 0.995537 0.374425 -0.365511
O12   O     O_R   0.238161 0.197602 0.406250 -0.323887
N9    N     N_3   0.269107 0.560203 0.894312 -0.508309
H17   H     H_    0.209666 0.575986 0.979607 0.226884
H18   H     H_    0.279202 0.646675 0.843129 0.246854
N10   N     N_3   0.730893 0.439797 0.105688 -0.508309
H19   H     H_    0.790334 0.424014 0.020393 0.226884
H20   H     H_    0.720798 0.353324 0.156871 0.246854
N11   N     N_R   0.665642 0.674045 0.895446 0.158380
O13   O     O_R   0.786051 0.657529 0.907002 -0.365039
O14   O     O_R   0.623833 0.784324 0.860716 -0.328271
N12   N     N_R   0.334358 0.325955 0.104554 0.158380
O15   O     O_R   0.213949 0.342471 0.092998 -0.365039
O16   O     O_R   0.376167 0.215675 0.139284 -0.328271

loop_
_geom_bond_atom_site_label_1
_geom_bond_atom_site_label_2
_geom_bond_distance
_ccdc_geom_bond_type
O5    Cu1   1.960795 S    
C25   N11   1.455792 S    
C8    C11   1.546244 S    
Cu1   N1    2.045206 S    
N3    H10   1.044971 S    
N5    H13   1.044933 S    
O5    C3    1.299510 A    
N12   O16   1.300272 A    
O1    C1    1.297483 A    
C5    N5    1.456125 S    
C12   H2    1.108728 S    
C9    C11   1.555612 S    
C22   H8    1.110248 S    
N6    H15   1.044933 S    
O4    Cu1   1.959068 S    
N8    O12   1.299462 A    
C7    C9    1.532023 S    
C14   C20   1.557787 S    
N10   H19   1.044929 S    
N9    H18   1.045206 S    
N4    H12   1.044972 S    
C17   C19   1.541205 S    
C20   H6    1.110398 S    
C1    C18   1.452381 S    
C13   C18   1.543595 S    
C2    C17   1.452381 S    
N7    O9    1.300216 A    
Cu1   Cu2   2.721683 S    
C23   N9    1.455571 S    
O2    C2    1.297483 A    
N2    C26   1.483192 S    
N5    H14   1.045003 S    
C15   C20   1.535844 S    
C13   H3    1.110233 S    
C5    C10   1.532389 S    
C3    C10   1.449861 S    
N7    O10   1.299462 A    
N12   O15   1.299853 A    
C15   C17   1.525299 S    
C16   C18   1.525299 S    
O4    C2    1.299779 A    
N11   O14   1.300272 A    
C23   N1    1.484907 S    
C18   C20   1.541205 S    
O7    Cu2   1.962182 S    
C6    N6    1.456125 S    
N8    O11   1.300216 A    
N1    C25   1.483193 S    
N3    H9    1.044550 S    
C24   N2    1.484906 S    
O6    C4    1.299509 A    
N4    H11   1.044550 S    
O7    C3    1.296570 A    
O3    Cu2   1.959068 S    
O8    C4    1.296571 A    
C23   C26   1.513637 S    
N10   H20   1.045206 S    
C10   C12   1.555612 S    
C16   C19   1.535844 S    
C14   H4    1.110233 S    
C11   H1    1.108728 S    
O6    Cu2   1.960795 S    
O1    Cu1   1.959018 S    
C21   C25   1.537259 S    
C26   N12   1.455792 S    
C8    N4    1.456358 S    
Cu2   N2    2.045208 S    
C5    C7    1.527872 S    
C6    C12   1.545342 S    
C14   C17   1.543595 S    
C7    N3    1.456358 S    
O3    C1    1.299777 A    
O8    Cu1   1.962183 S    
C13   C15   1.535626 S    
C14   C16   1.535626 S    
C7    C12   1.546244 S    
C21   N2    1.492804 S    
C22   N1    1.492803 S    
C21   C23   1.535405 S    
C15   N7    1.456888 S    
C22   C24   1.535405 S    
C6    C9    1.532389 S    
C4    C9    1.449861 S    
C19   H5    1.110399 S    
N6    H16   1.045003 S    
C8    C10   1.532023 S    
C21   H7    1.110248 S    
O2    Cu2   1.959018 S    
C22   C26   1.537259 S    
C5    C11   1.545342 S    
N11   O13   1.299853 A    
C24   C25   1.513637 S    
C6    C8    1.527872 S    
N9    H17   1.044929 S    
C24   N10   1.455571 S    
C13   C19   1.557787 S    
C16   N8    1.456888 S    
