data_mof_unit_26443.cif
_audit_creation_date              2012-12-10T16:56:10-0500
_audit_creation_method            fapswitch 2.2
_symmetry_space_group_name_H-M    P1
_symmetry_Int_Tables_number       1
_space_group_crystal_system       triclinic
_cell_length_a                    9.759378
_cell_length_b                    10.965109
_cell_length_c                    13.905733
_cell_angle_alpha                 91.508474
_cell_angle_beta                  86.099859
_cell_angle_gamma                 90.100391
_cell_volume                      1484.1284846

loop_
_atom_site_label
_atom_site_type_symbol
_atom_type_description
_atom_site_fract_x
_atom_site_fract_y
_atom_site_fract_z
_atom_type_partial_charge
C1    C     C_R   0.499429 0.734692 0.505734 0.709813
C2    C     C_1   0.469068 0.505378 0.785079 -0.136438
C3    C     C_2   0.609753 0.064366 0.490385 0.495194
C4    C     C_2   0.503431 0.134769 0.468870 0.145419
C5    C     C_2   0.601053 0.932781 0.469313 0.315021
C6    C     C_2   0.500915 0.868307 0.517958 0.180202
C7    C     C_2   0.070445 0.542710 0.571741 0.527840
C8    C     C_2   0.917199 0.504398 0.577908 0.580724
C9    C     C_R   0.479064 0.500717 0.682497 0.813986
C10   C     C_R   0.500904 0.265819 0.492518 0.721609
C11   C     C_R   0.521231 0.500759 0.317452 0.798623
C12   C     C_1   0.533382 0.503343 0.214846 -0.181792
C13   C     C_2   0.563390 0.507363 0.024060 0.428153
C14   C     C_2   0.449607 0.516942 0.975445 0.327856
C15   C     C_1   0.460439 0.510566 0.871506 -0.038634
C16   C     C_1   0.546707 0.505495 0.128447 -0.057161
Cu1   Cu    Cu3+1 0.361370 0.499980 0.499980 1.000465
Cu2   Cu    Cu3+1 0.638630 0.500020 0.500020 1.024458
N1    N     N_2   0.152970 0.501340 0.501040 0.009243
N2    N     N_2   0.846830 0.501370 0.501060 -0.009162
O1    O     O_R   0.382960 0.678040 0.499980 -0.573230
O2    O     O_R   0.617100 0.678080 0.500020 -0.587182
O3    O     O_R   0.366380 0.499950 0.637830 -0.535183
O4    O     O_R   0.600520 0.499990 0.637860 -0.524781
O5    O     O_R   0.382900 0.321920 0.499980 -0.593507
O6    O     O_R   0.617040 0.321960 0.500020 -0.526110
O7    O     O_R   0.399480 0.500010 0.362140 -0.598178
O8    O     O_R   0.633620 0.500050 0.362170 -0.597376
O9    O     O_3   0.323004 0.534142 0.024678 -0.772971
H1    H     H_    0.252409 0.538775 0.976801 0.320103
O10   O     O_3   0.904628 0.572234 0.431976 -0.717527
H2    H     H_    0.829430 0.603464 0.395892 0.380125
O11   O     O_3   0.690761 0.493341 0.972053 -0.626851
C17   C     C_3   0.804650 0.520011 0.027103 0.060014
H3    H     H_    0.898148 0.486351 0.984599 0.171542
H4    H     H_    0.801004 0.469629 0.095666 0.145486
C18   C     C_3   0.820599 0.658163 0.044339 -0.379673
H5    H     H_    0.832275 0.703628 0.973743 0.229597
H6    H     H_    0.727825 0.696016 0.085142 0.221176
C19   C     C_3   0.945406 0.687292 0.101187 -0.868794
H7    H     H_    0.935414 0.643182 0.172349 0.262138
H8    H     H_    0.953018 0.787479 0.113386 0.267130
H9    H     H_    0.040765 0.655021 0.060354 0.261063
O12   O     O_3   0.728788 0.114685 0.524038 -0.603571
C20   C     C_3   0.747761 0.075385 0.618346 0.047709
H10   H     H_    0.857453 0.090468 0.631798 0.182837
H11   H     H_    0.728292 0.975969 0.627040 0.141081
C21   C     C_3   0.659963 0.151157 0.693693 -0.351387
H12   H     H_    0.683264 0.249582 0.684646 0.269063
H13   H     H_    0.549229 0.136444 0.683303 0.216383
C22   C     C_3   0.688206 0.116386 0.795973 -0.869048
H14   H     H_    0.663395 0.018657 0.807293 0.255842
H15   H     H_    0.623302 0.172814 0.848584 0.265262
H16   H     H_    0.797805 0.132857 0.809117 0.255898
O13   O     O_3   0.398835 0.081939 0.419572 -0.783631
H17   H     H_    0.334307 0.145825 0.402104 0.319564
O14   O     O_3   0.691762 0.884424 0.397453 -0.726494
H18   H     H_    0.647257 0.815100 0.364726 0.314065
O15   O     O_3   0.426571 0.929332 0.594762 -0.660669
C23   C     C_3   0.289857 0.888987 0.613512 0.078281
H19   H     H_    0.250766 0.934519 0.682234 0.153238
H20   H     H_    0.283645 0.790874 0.628811 0.210940
C24   C     C_3   0.196446 0.928489 0.535261 -0.295318
H21   H     H_    0.195013 0.029747 0.534395 0.245215
H22   H     H_    0.236471 0.892750 0.463322 0.251876
C25   C     C_3   0.048941 0.884528 0.553957 -0.878672
H23   H     H_    0.042142 0.785631 0.537314 0.285240
H24   H     H_    0.981517 0.932173 0.505834 0.285735
H25   H     H_    0.011284 0.903576 0.630028 0.231111
O16   O     O_3   0.122310 0.614839 0.643213 -0.781510
H26   H     H_    0.044035 0.643822 0.686940 0.283306
O17   O     O_3   0.099976 0.394574 0.466865 -0.552809
C26   C     C_3   0.147975 0.362225 0.371539 0.235550
H27   H     H_    0.099846 0.272682 0.355589 0.122006
H28   H     H_    0.257405 0.340379 0.363881 0.154990
C27   C     C_3   0.102903 0.449032 0.295129 -0.358303
H29   H     H_    0.989208 0.450210 0.296411 0.246926
H30   H     H_    0.141663 0.542758 0.308856 0.256349
C28   C     C_3   0.154774 0.404414 0.194469 -0.892134
H31   H     H_    0.268599 0.402680 0.187875 0.292170
H32   H     H_    0.117104 0.466232 0.140278 0.284239
H33   H     H_    0.115464 0.311235 0.179243 0.243993
O18   O     O_3   0.855886 0.465587 0.663929 -0.743412
H34   H     H_    0.927258 0.461533 0.711096 0.295658

loop_
_geom_bond_atom_site_label_1
_geom_bond_atom_site_label_2
_ccdc_geom_bond_type
C25   H24   S    
O13   H17   S    
C24   H22   S    
C1    O1    A    
C17   C18   S    
C26   H27   S    
Cu2   O6    S    
C27   C28   S    
C7    O16   S    
C7    C8    S    
C20   H10   S    
C8    N2    D    
C23   C24   S    
Cu2   O4    S    
C27   H30   S    
C18   C19   S    
C5    C6    D    
C25   H25   S    
C8    O18   S    
C23   H20   S    
C17   H3    S    
C21   C22   S    
O18   H34   S    
O16   H26   S    
O9    H1    S    
Cu2   N2    S    
C10   O6    A    
C21   H13   S    
C25   H23   S    
C24   C25   S    
O15   C23   S    
C13   C14   D    
C26   H28   S    
N1    O17   S    
Cu1   Cu2   S    
C20   H11   S    
C3    O12   S    
C22   H14   S    
Cu1   O7    S    
C12   C16   T    
Cu2   O8    S    
C27   H29   S    
C28   H32   S    
C9    O3    A    
Cu1   O1    S    
C28   H31   S    
C23   H19   S    
C22   H15   S    
C13   O11   S    
C18   H5    S    
O10   H2    S    
C11   O7    A    
C19   H9    S    
O11   C17   S    
Cu1   O3    S    
C2    C15   T    
C10   O5    A    
C21   H12   S    
C7    N1    D    
C4    O13   S    
C26   C27   S    
C14   O9    S    
C4    C10   S    
C3    C4    D    
O12   C20   S    
C20   C21   S    
C19   H7    S    
Cu2   O2    S    
C6    O15   S    
O17   C26   S    
C3    C5    S    
C28   H33   S    
C11   C12   S    
C9    O4    A    
C5    O14   S    
C22   H16   S    
Cu1   O5    S    
C18   H6    S    
O14   H18   S    
C11   O8    A    
C19   H8    S    
Cu1   N1    S    
C17   H4    S    
C24   H21   S    
C1    O2    A    
C13   C16   S    
C1    C6    S    
C14   C15   S    
C2    C9    S    
N2    O10   S    
