data_mof_unit_42496.cif
_audit_creation_date              2012-12-10T17:55:06-0500
_audit_creation_method            fapswitch 2.2
_symmetry_space_group_name_H-M    P1
_symmetry_Int_Tables_number       1
_space_group_crystal_system       triclinic
_cell_length_a                    8.745414
_cell_length_b                    10.756244
_cell_length_c                    9.670953
_cell_angle_alpha                 89.43985
_cell_angle_beta                  97.693312
_cell_angle_gamma                 91.157826
_cell_volume                      901.329724571

loop_
_atom_site_label
_atom_site_type_symbol
_atom_type_description
_atom_site_fract_x
_atom_site_fract_y
_atom_site_fract_z
_atom_type_partial_charge
C1    C     C_R   0.500620 0.262903 0.500645 0.821232
C2    C     C_R   0.498217 0.737197 0.499304 0.807925
C3    C     C_R   0.204435 0.497990 0.464439 0.873877
C4    C     C_R   0.795640 0.501693 0.535730 0.863494
C5    C     C_2   0.038727 0.490474 0.446373 -0.369992
C6    C     C_2   0.961526 0.508635 0.554440 -0.379027
C7    C     C_R   0.620873 0.066009 0.448857 0.277911
C8    C     C_R   0.377333 0.934380 0.552009 0.274512
C9    C     C_R   0.615425 0.936829 0.446519 -0.335288
C10   C     C_R   0.382693 0.063828 0.554298 -0.329346
C11   C     C_R   0.495326 0.871278 0.497973 -0.074251
C12   C     C_R   0.502761 0.129053 0.502316 -0.069367
C13   C     C_R   0.371937 0.464141 0.057112 0.259093
C14   C     C_R   0.619275 0.553693 0.938930 0.241085
C15   C     C_R   0.381007 0.447313 0.912061 0.259964
C16   C     C_R   0.623817 0.546092 0.087359 0.241673
Cu1   Cu    Cu3+1 0.500000 0.500020 0.640660 0.980428
Cu2   Cu    Cu3+1 0.500000 0.499980 0.359340 0.978991
H1    H     H_    0.708315 0.887963 0.409521 0.135639
H2    H     H_    0.290360 0.113674 0.591885 0.149258
N1    N     N_R   0.500040 0.500030 0.852080 -0.206754
N2    N     N_R   0.499960 0.499970 0.147920 -0.202552
O1    O     O_R   0.499990 0.319660 0.618740 -0.575623
O2    O     O_R   0.500010 0.680340 0.381260 -0.584512
O3    O     O_R   0.499990 0.319630 0.381170 -0.559469
O4    O     O_R   0.500010 0.680370 0.618830 -0.551075
O5    O     O_R   0.274840 0.500010 0.591370 -0.542249
O6    O     O_R   0.725160 0.499990 0.408630 -0.532979
O7    O     O_R   0.274830 0.499980 0.353800 -0.550629
O8    O     O_R   0.725170 0.500020 0.646200 -0.568497
H3    H     H_    0.980266 0.466004 0.344291 0.184463
H4    H     H_    0.020110 0.532359 0.657027 0.170735
N3    N     N_2   0.746658 0.131675 0.400436 -0.421007
H5    H     H_    0.788933 0.088250 0.319139 0.245656
C17   C     C_3   0.868834 0.166653 0.509973 -0.711414
H6    H     H_    0.921475 0.082342 0.562296 0.216772
H7    H     H_    0.823692 0.225553 0.588468 0.231585
H8    H     H_    0.959734 0.220571 0.464447 0.230199
N4    N     N_2   0.252268 0.868584 0.601432 -0.420532
H9    H     H_    0.209756 0.912526 0.682273 0.244022
C18   C     C_3   0.130220 0.831807 0.492594 -0.720525
H10   H     H_    0.040080 0.777822 0.539102 0.223652
H11   H     H_    0.175725 0.772442 0.414711 0.232523
H12   H     H_    0.076464 0.915264 0.439255 0.219965
N5    N     N_2   0.223889 0.478672 0.097377 -0.385054
H13   H     H_    0.140579 0.413469 0.061157 0.224085
C19   C     C_3   0.172602 0.606160 0.081496 -0.692656
H14   H     H_    0.089071 0.624100 0.154458 0.225100
H15   H     H_    0.119780 0.623943 0.972383 0.191073
H16   H     H_    0.269981 0.673606 0.108617 0.238798
N6    N     N_2   0.741813 0.614449 0.880564 -0.376416
H17   H     H_    0.851393 0.585117 0.916323 0.222091
C20   C     C_3   0.729340 0.747234 0.856351 -0.601184
H18   H     H_    0.753533 0.769128 0.748976 0.221985
H19   H     H_    0.816880 0.798370 0.928806 0.183129
H20   H     H_    0.612684 0.781009 0.869154 0.224553
N7    N     N_2   0.260993 0.382124 0.827580 -0.365868
H21   H     H_    0.153483 0.418510 0.830136 0.232475
C21   C     C_3   0.261151 0.248981 0.849696 -0.721630
H22   H     H_    0.373929 0.210548 0.832430 0.250473
H23   H     H_    0.168721 0.204884 0.775238 0.217437
H24   H     H_    0.238821 0.225749 0.957471 0.204084
N8    N     N_2   0.760213 0.584670 0.172064 -0.376232
H25   H     H_    0.858278 0.545696 0.145549 0.213637
C22   C     C_3   0.775426 0.714452 0.210043 -0.622009
H26   H     H_    0.868333 0.760330 0.159572 0.182080
H27   H     H_    0.810422 0.720451 0.324113 0.224049
H28   H     H_    0.665917 0.764881 0.180788 0.226433

loop_
_geom_bond_atom_site_label_1
_geom_bond_atom_site_label_2
_ccdc_geom_bond_type
Cu1   Cu2   S    
C5    H3    S    
C6    H4    S    
N8    C22   S    
C16   N8    S    
N5    C19   S    
N4    C18   S    
C15   N7    S    
C18   H10   S    
C18   H11   S    
C17   H6    S    
C13   C15   A    
C3    C5    S    
C22   H28   S    
C3    O5    A    
N3    H5    S    
C21   H22   S    
C19   H15   S    
Cu2   O7    S    
Cu2   N2    S    
C20   H18   S    
C2    C11   S    
C13   N5    S    
Cu1   O8    S    
C9    C11   A    
N7    H21   S    
Cu1   O1    S    
Cu2   O3    S    
C10   C12   A    
C8    C11   A    
Cu2   O2    S    
Cu1   O4    S    
C14   N1    A    
C8    C10   A    
C8    N4    S    
C9    H1    S    
C13   N2    A    
C1    O1    A    
C19   H16   S    
C20   H19   S    
C14   N6    S    
C2    O2    A    
C5    C6    D    
C18   H12   S    
C14   C16   A    
C7    C12   A    
C21   H23   S    
C4    C6    S    
N7    C21   S    
C7    N3    S    
N6    C20   S    
N6    H17   S    
Cu1   O5    S    
C19   H14   S    
C7    C9    A    
C1    C12   S    
C15   N1    A    
C17   H8    S    
Cu2   O6    S    
C17   H7    S    
C2    O4    A    
C22   H26   S    
C4    O6    A    
C20   H20   S    
N4    H9    S    
C3    O7    A    
C21   H24   S    
C16   N2    A    
N3    C17   S    
N5    H13   S    
C1    O3    A    
C4    O8    A    
N8    H25   S    
C10   H2    S    
C22   H27   S    
Cu1   N1    S    
