data_mof_unit_46539.cif
_audit_creation_date              2012-12-10T20:35:51-0500
_audit_creation_method            fapswitch 2.2
_symmetry_space_group_name_H-M    P1
_symmetry_Int_Tables_number       1
_space_group_crystal_system       triclinic
_cell_length_a                    15.790546
_cell_length_b                    10.773227
_cell_length_c                    9.941942
_cell_angle_alpha                 89.573144
_cell_angle_beta                  88.817474
_cell_angle_gamma                 89.655626
_cell_volume                      1690.83868108

loop_
_atom_site_label
_atom_site_type_symbol
_atom_type_description
_atom_site_fract_x
_atom_site_fract_y
_atom_site_fract_z
_atom_type_partial_charge
C1    C     C_R   0.499423 0.260047 0.500549 0.930645
C2    C     C_R   0.497219 0.127225 0.499149 -0.266810
C3    C     C_R   0.536354 0.063936 0.390024 0.520561
C4    C     C_R   0.338624 0.502150 0.501336 0.875836
C5    C     C_R   0.536202 0.935126 0.389727 -0.297785
C6    C     C_R   0.500213 0.870578 0.498225 -0.182774
C7    C     C_R   0.459192 0.932789 0.602330 -0.097514
C8    C     C_3   0.481588 0.931778 0.748398 0.300727
C9    C     C_3   0.459103 0.069664 0.751544 0.232387
C10   C     C_R   0.449320 0.420496 0.072983 0.174032
C11   C     C_R   0.549749 0.578833 0.069526 -0.246984
C12   C     C_3   0.953215 0.398578 0.600621 0.719982
C13   C     C_R   0.549260 0.580119 0.924805 0.602017
C14   C     C_R   0.449733 0.420355 0.930663 0.108739
C15   C     C_3   0.355727 0.419921 0.926322 -0.513018
C16   C     C_R   0.501628 0.739215 0.499558 0.900682
C17   C     C_3   0.354622 0.420155 0.078979 -0.495069
C18   C     C_R   0.661741 0.500347 0.498700 0.882164
C19   C     C_3   0.052445 0.420710 0.619810 0.779998
C20   C     C_3   0.056897 0.482139 0.370825 -0.646219
C21   C     C_3   0.958191 0.476539 0.359327 0.332575
C22   C     C_1   0.750971 0.502027 0.496246 -0.191129
C23   C     C_3   0.918529 0.507033 0.502205 -0.254650
C24   C     C_3   0.083209 0.523931 0.514071 -0.127483
C25   C     C_3   0.860096 0.236189 0.525191 -0.351742
C26   C     C_3   0.151794 0.467491 0.794550 -0.318828
C27   C     C_3   0.919842 0.299591 0.814106 -0.311244
C28   C     C_3   0.901753 0.845437 0.433925 -0.130092
C29   C     C_3   0.546358 0.122463 0.170218 -0.303567
C30   C     C_3   0.356853 0.813151 0.801560 0.204490
C31   C     C_3   0.314023 0.754035 0.924592 -0.915555
C32   C     C_3   0.379232 0.098360 0.948549 0.124546
C33   C     C_3   0.288739 0.100951 0.005718 -0.889135
C34   C     C_3   0.943969 0.649087 0.534129 0.743543
C35   C     C_3   0.100237 0.211328 0.679641 0.132251
C36   C     C_3   0.183411 0.140476 0.660731 -0.851151
C37   C     C_3   0.673737 0.683862 0.885069 -0.366824
C38   C     C_3   0.967100 0.614473 0.165909 0.205558
C39   C     C_3   0.003278 0.533612 0.054171 -0.935837
C40   C     C_3   0.059606 0.829931 0.697338 0.140693
C41   C     C_3   0.099016 0.861369 0.830960 -0.956221
C42   C     C_3   0.159904 0.774705 0.430719 -0.362140
C43   C     C_3   0.893232 0.650259 0.769525 0.108506
C44   C     C_3   0.874153 0.751031 0.873085 -0.958210
C45   C     C_3   0.045396 0.659988 0.542447 0.753549
C46   C     C_1   0.826418 0.503468 0.497095 0.182341
C47   C     C_1   0.175236 0.521304 0.509710 0.116722
C48   C     C_1   0.250261 0.512528 0.504868 -0.246727
C49   C     C_R   0.453241 0.060766 0.600717 -0.021703
H1    H     H_    0.569365 0.885854 0.309681 0.173628
H2    H     H_    0.082201 0.387059 0.351178 0.223746
H3    H     H_    0.944371 0.379159 0.333056 0.171725
H4    H     H_    0.814682 0.270675 0.603166 0.203429
H5    H     H_    0.860772 0.133447 0.533455 0.169692
H6    H     H_    0.836443 0.259618 0.423816 0.174877
H7    H     H_    0.175000 0.563359 0.780401 0.217377
H8    H     H_    0.195756 0.402651 0.742602 0.191591
H9    H     H_    0.155232 0.445319 0.903343 0.174042
H10   H     H_    0.924533 0.208312 0.764314 0.175764
H11   H     H_    0.864133 0.294210 0.883624 0.174421
H12   H     H_    0.551005 0.917753 0.759824 0.101882
H13   H     H_    0.975274 0.313879 0.877977 0.195295
H14   H     H_    0.952528 0.893366 0.487898 0.151133
H15   H     H_    0.839451 0.859712 0.485674 0.170615
H16   H     H_    0.897797 0.889515 0.333066 0.142926
H17   H     H_    0.579393 0.187196 0.099793 0.180111
H18   H     H_    0.479116 0.153241 0.178884 0.152582
H19   H     H_    0.550840 0.027942 0.126456 0.149403
H20   H     H_    0.363457 0.741720 0.722362 0.160358
H21   H     H_    0.316573 0.890156 0.763978 0.167351
H22   H     H_    0.358816 0.689530 0.974105 0.273564
H23   H     H_    0.510365 0.131589 0.786317 0.048938
H24   H     H_    0.295882 0.825225 0.999579 0.255441
H25   H     H_    0.256758 0.702788 0.895726 0.207283
H26   H     H_    0.413188 0.181624 0.980840 0.125961
H27   H     H_    0.411839 0.016916 0.992987 0.185824
H28   H     H_    0.252601 0.020682 0.969254 0.258765
H29   H     H_    0.289798 0.097606 0.117329 0.212657
H30   H     H_    0.254413 0.185793 0.973927 0.248076
H31   H     H_    0.048145 0.145920 0.659629 0.171577
H32   H     H_    0.095689 0.241020 0.785750 0.150535
H33   H     H_    0.238006 0.204540 0.666301 0.283168
H34   H     H_    0.587195 0.645242 0.123052 0.162270
H35   H     H_    0.189981 0.069275 0.740542 0.229271
H36   H     H_    0.185368 0.094368 0.561154 0.247518
H37   H     H_    0.707188 0.728318 0.798601 0.220024
H38   H     H_    0.679602 0.745588 0.973322 0.164909
H39   H     H_    0.704840 0.592282 0.903565 0.159747
H40   H     H_    0.015028 0.672510 0.214330 0.193182
H41   H     H_    0.925548 0.685102 0.121243 0.163848
H42   H     H_    0.950099 0.493696 0.998417 0.287460
H43   H     H_    0.043050 0.591203 0.985600 0.256771
H44   H     H_    0.042304 0.456476 0.094269 0.247915
H45   H     H_    0.329525 0.505135 0.880264 0.213804
H46   H     H_    0.992310 0.856626 0.704235 0.192260
H47   H     H_    0.089285 0.891139 0.620400 0.163458
H48   H     H_    0.168678 0.861641 0.818750 0.254006
H49   H     H_    0.077628 0.954842 0.864206 0.212707
H50   H     H_    0.081139 0.792381 0.909565 0.272065
H51   H     H_    0.193376 0.761882 0.527095 0.183473
H52   H     H_    0.165831 0.874028 0.402031 0.179292
H53   H     H_    0.191822 0.720732 0.349477 0.182286
H54   H     H_    0.953102 0.604556 0.795057 0.251801
H55   H     H_    0.838715 0.586141 0.773563 0.212760
H56   H     H_    0.331494 0.335064 0.879518 0.234408
H57   H     H_    0.836564 0.827963 0.828636 0.270317
H58   H     H_    0.837129 0.711432 0.958626 0.225657
H59   H     H_    0.933213 0.790619 0.911838 0.252786
H60   H     H_    0.327398 0.506788 0.122394 0.220054
H61   H     H_    0.329309 0.333614 0.125200 0.205682
H62   H     H_    0.091367 0.537926 0.294405 0.221146
N1    N     N_R   0.499430 0.499140 0.142800 -0.122814
N2    N     N_R   0.499430 0.499180 0.857150 -0.149561
O1    O     O_R   0.500010 0.316790 0.614690 -0.630607
O2    O     O_3   0.066109 0.459171 0.755438 -0.652465
O3    O     O_3   0.907178 0.401949 0.725998 -0.671539
O4    O     O_3   0.918761 0.717085 0.416457 -0.566988
O5    O     O_3   0.585850 0.127128 0.295779 -0.593678
O6    O     O_3   0.437042 0.854086 0.841499 -0.581674
O7    O     O_3   0.377419 0.095091 0.806671 -0.594822
O8    O     O_3   0.099586 0.310047 0.584810 -0.615017
O9    O     O_3   0.588594 0.672560 0.850200 -0.557530
O10   O     O_3   0.916051 0.544127 0.255599 -0.565502
O11   O     O_3   0.071459 0.700860 0.671957 -0.647050
O12   O     O_R   0.500000 0.316760 0.385350 -0.574086
O13   O     O_3   0.072651 0.744549 0.437238 -0.632240
O14   O     O_3   0.896582 0.705883 0.642359 -0.677449
O15   O     O_R   0.377150 0.500020 0.614720 -0.631362
O16   O     O_R   0.377140 0.499990 0.385380 -0.615223
O17   O     O_R   0.500000 0.683240 0.614650 -0.563946
O18   O     O_R   0.499990 0.683210 0.385310 -0.628639
O19   O     O_R   0.622860 0.500010 0.614620 -0.595719
O20   O     O_R   0.622850 0.499980 0.385280 -0.600029
O21   O     O_3   0.944362 0.278925 0.538793 -0.642099
Zn1   Zn    Zn3+2 0.500010 0.500020 0.653130 0.985580
Zn2   Zn    Zn3+2 0.499990 0.499980 0.346870 0.965707

loop_
_geom_bond_atom_site_label_1
_geom_bond_atom_site_label_2
_ccdc_geom_bond_type
C34   O14   S    
C37   H39   S    
C18   O19   A    
O17   Zn1   S    
C9    H23   S    
C17   H61   S    
C15   H45   S    
C35   H32   S    
C7    C8    S    
C38   H40   S    
C24   C45   S    
C2    C49   A    
N1    Zn2   S    
C20   H2    S    
C27   H11   S    
C30   C31   S    
C33   H29   S    
C31   H24   S    
C30   O6    S    
C10   C17   S    
C29   H19   S    
C35   H31   S    
C18   O20   A    
C1    C2    S    
C16   O18   A    
C43   H55   S    
C39   H44   S    
C1    O12   A    
C29   H18   S    
C35   C36   S    
C3    O5    S    
C36   H33   S    
C8    C9    S    
O20   Zn2   S    
O1    Zn1   S    
C41   H50   S    
C10   N1    A    
C16   O17   A    
C38   O10   S    
C8    H12   S    
C27   O3    S    
C34   O4    S    
C31   H22   S    
C23   C46   S    
C12   O21   S    
C40   H47   S    
C42   H53   S    
C39   H42   S    
C30   H21   S    
C44   H59   S    
C45   O11   S    
C38   C39   S    
C40   O11   S    
C4    O15   A    
C20   C24   S    
C37   H37   S    
C35   O8    S    
C9    C49   S    
C25   H5    S    
C7    C49   A    
O18   Zn2   S    
C10   C14   A    
O15   Zn1   S    
C43   O14   S    
C33   H30   S    
C31   H25   S    
C11   H34   S    
C37   O9    S    
C17   H60   S    
C21   O10   S    
C43   C44   S    
C27   H13   S    
C42   H51   S    
C20   H62   S    
C47   C48   T    
C12   C23   S    
C19   O2    S    
C45   O13   S    
C23   C34   S    
C14   C15   S    
C34   C45   S    
C25   O21   S    
C26   H9    S    
C4    O16   A    
C28   H15   S    
O12   Zn2   S    
C40   C41   S    
C22   C46   T    
C32   H26   S    
C21   C23   S    
C41   H48   S    
C5    H1    S    
C1    O1    A    
C40   H46   S    
C42   H52   S    
C39   H43   S    
C30   H20   S    
C4    C48   S    
C44   H58   S    
C26   O2    S    
C15   C17   S    
C19   O8    S    
C11   N1    A    
C18   C22   S    
C24   C47   S    
C19   C24   S    
C37   H38   S    
C25   H6    S    
C25   H4    S    
C3    C5    A    
C26   H7    S    
C32   H27   S    
C6    C7    A    
C44   H57   S    
C36   H36   S    
C14   N2    A    
C29   O5    S    
C38   H41   S    
C28   O4    S    
C32   C33   S    
C15   H56   S    
C28   H16   S    
C27   H10   S    
C13   O9    S    
C11   C13   A    
C33   H28   S    
C5    C6    A    
C36   H35   S    
O19   Zn1   S    
C12   C19   S    
C2    C3    A    
C26   H8    S    
C43   H54   S    
C42   O13   S    
C6    C16   S    
C29   H17   S    
C28   H14   S    
C20   C21   S    
N2    Zn1   S    
C9    O7    S    
C41   H49   S    
C32   O7    S    
O16   Zn2   S    
C21   H3    S    
C13   N2    A    
C8    O6    S    
C12   O3    S    
