data_mof_unit_54156.cif
_audit_creation_date              2012-10-26T19:18:48-0400
_audit_creation_method            fapswitch 2.2
_symmetry_space_group_name_H-M    P1
_symmetry_Int_Tables_number       1
_space_group_crystal_system       triclinic
_cell_length_a                    9.721548
_cell_length_b                    10.936367
_cell_length_c                    15.382424
_cell_angle_alpha                 89.687046
_cell_angle_beta                  74.294575
_cell_angle_gamma                 89.7504
_cell_volume                      1574.34731338

loop_
_atom_site_label
_atom_site_type_symbol
_atom_type_description
_atom_site_fract_x
_atom_site_fract_y
_atom_site_fract_z
_atom_type_partial_charge
C1    C     C_R   0.000670 0.265433 0.499029 0.558409
C2    C     C_R   0.225582 0.481401 0.037527 -0.005955
C3    C     C_R   0.321945 0.513704 0.088195 -0.027651
C4    C     C_R   0.917583 0.505490 0.672383 0.532602
C5    C     C_R   0.078521 0.474564 0.081398 -0.083248
C6    C     C_R   0.027521 0.491246 0.174358 0.220519
C7    C     C_R   0.271855 0.509826 0.182839 -0.170014
C8    C     C_2   0.887869 0.933472 0.497907 -0.152530
C9    C     C_2   0.999490 0.866455 0.505865 -0.112521
C10   C     C_2   0.886488 0.067411 0.501956 -0.151489
C11   C     C_2   0.005015 0.133408 0.494719 -0.109488
C12   C     C_R   0.669483 0.526989 0.907031 0.005993
C13   C     C_2   0.395978 0.444972 0.561628 0.221148
C14   C     C_2   0.553983 0.431179 0.552257 0.112560
C15   C     C_R   0.999416 0.734535 0.501116 0.540932
C16   C     C_R   0.082283 0.500876 0.327174 0.546069
C17   C     C_R   0.872034 0.524452 0.771081 -0.003535
C18   C     C_R   0.125870 0.501627 0.227069 -0.012526
C19   C     C_R   0.903964 0.601657 0.911804 -0.069121
C20   C     C_R   0.959122 0.581232 0.819503 0.267540
C21   C     C_R   0.731114 0.493465 0.816584 -0.153361
C22   C     C_R   0.759982 0.578224 0.955191 -0.056140
C23   C     C_R   0.520747 0.512771 0.950285 -0.031681
C24   C     C_R   0.467014 0.542326 0.043387 0.017150
C25   C     C_R   0.559400 0.603693 0.087121 0.248973
C26   C     C_R   0.704407 0.614185 0.044464 -0.044460
C27   C     C_R   0.423066 0.475255 0.902307 -0.058054
C28   C     C_R   0.278447 0.459623 0.944108 0.247739
Cu1   Cu    Cu3+1 0.138640 0.500020 0.499980 1.011714
Cu2   Cu    Cu3+1 0.861360 0.499980 0.500020 0.994144
H1    H     H_    0.772448 0.659516 0.079706 0.151664
H2    H     H_    0.971797 0.644502 0.948327 0.142153
H3    H     H_    0.671150 0.443896 0.778953 0.119923
H4    H     H_    0.454478 0.459341 0.830630 0.131958
H5    H     H_    0.321014 0.298338 0.639700 0.197244
H6    H     H_    0.317892 0.430419 0.696487 0.261548
H7    H     H_    0.696738 0.637350 0.427791 0.366434
H8    H     H_    0.859246 0.565931 0.249951 0.340308
H9    H     H_    0.119376 0.365062 0.927046 0.319855
H10   H     H_    0.096041 0.659516 0.720594 0.335983
H11   H     H_    0.418913 0.706639 0.165901 0.325877
H12   H     H_    0.000216 0.461136 0.044145 0.140476
H13   H     H_    0.792473 0.889330 0.489409 0.163792
H14   H     H_    0.093937 0.906937 0.517907 0.111853
H15   H     H_    0.784087 0.112486 0.509690 0.152148
H16   H     H_    0.109642 0.092118 0.483430 0.107217
H17   H     H_    0.416135 0.515058 0.438806 0.262822
H18   H     H_    0.586350 0.361764 0.593452 0.069470
H19   H     H_    0.347353 0.510692 0.222983 0.197860
N1    N     N_2   0.346430 0.498660 0.500980 -0.275815
N2    N     N_2   0.652550 0.498630 0.501000 -0.078852
N3    N     N_3   0.298163 0.391768 0.639052 -0.528274
O1    O     O_R   0.117050 0.321960 0.499980 -0.483131
O2    O     O_3   0.881786 0.492779 0.210904 -0.674832
O3    O     O_3   0.194090 0.419839 0.890801 -0.682738
O4    O     O_3   0.095456 0.622321 0.779472 -0.651774
O5    O     O_3   0.510876 0.667616 0.166558 -0.705541
O6    O     O_R   0.882890 0.321920 0.500020 -0.506882
O7    O     O_R   0.052910 0.500040 0.629810 -0.446938
O8    O     O_R   0.818750 0.499990 0.629840 -0.514316
O9    O     O_R   0.117110 0.678080 0.499980 -0.491322
O10   O     O_R   0.882950 0.678040 0.500020 -0.507184
O11   O     O_R   0.181250 0.500010 0.370160 -0.514316
O12   O     O_R   0.947090 0.499960 0.370190 -0.485968
O13   O     O_3   0.609011 0.600344 0.466960 -0.634420

loop_
_geom_bond_atom_site_label_1
_geom_bond_atom_site_label_2
_ccdc_geom_bond_type
C2    C28   A    
Cu2   N2    S    
Cu1   O11   S    
Cu1   Cu2   S    
C16   O11   A    
C23   C27   A    
C17   C21   A    
C13   N3    S    
Cu1   O7    S    
C14   N2    D    
H6    N3    S    
C8    H13   S    
C20   O4    S    
C7    C18   A    
N2    O13   S    
C4    O8    A    
C10   H15   S    
C2    C3    A    
C15   O9    A    
H11   O5    S    
C26   H1    S    
C13   C14   S    
C12   C23   A    
C3    C24   A    
C25   O5    S    
C6    O2    S    
Cu2   O12   S    
C19   H2    S    
Cu2   O6    S    
C4    O7    A    
C8    C10   S    
C15   O10   A    
Cu1   O1    S    
H17   N1    S    
C3    C7    A    
Cu1   N1    S    
Cu2   O10   S    
C27   H4    S    
C9    C15   S    
C5    C6    A    
C6    C18   A    
Cu1   O9    S    
C2    C5    A    
C21   H3    S    
C10   C11   D    
C4    C17   S    
C23   C24   A    
C13   N1    D    
C12   C22   A    
C27   C28   A    
C17   C20   A    
Cu2   O8    S    
C24   C25   A    
C7    H19   S    
C5    H12   S    
C16   C18   S    
C19   C22   A    
C22   C26   A    
H5    N3    S    
C1    O1    A    
C9    H14   S    
C14   H18   S    
C1    C11   S    
C16   O12   A    
H10   O4    S    
C25   C26   A    
C1    O6    A    
C12   C21   A    
C28   O3    S    
H9    O3    S    
C19   C20   A    
H7    O13   S    
C8    C9    D    
C11   H16   S    
H8    O2    S    
