data_mof_unit_31155.cif
_audit_creation_date              2012-12-10T18:05:58-0500
_audit_creation_method            fapswitch 2.2
_symmetry_space_group_name_H-M    P1
_symmetry_Int_Tables_number       1
_space_group_crystal_system       triclinic
_cell_length_a                    12.590443
_cell_length_b                    13.125897
_cell_length_c                    14.994215
_cell_angle_alpha                 90.546321
_cell_angle_beta                  102.584089
_cell_angle_gamma                 82.236114
_cell_volume                      2395.75302593

loop_
_atom_site_label
_atom_site_type_symbol
_atom_type_description
_atom_site_fract_x
_atom_site_fract_y
_atom_site_fract_z
_atom_type_partial_charge
C1    C     C_R   0.438700 0.691325 0.492622 0.857259
C2    C     C_R   0.600216 0.498447 0.833268 -0.263772
C3    C     C_R   0.500775 0.501750 0.769199 -0.072719
C4    C     C_R   0.500407 0.500686 0.673080 0.881523
C5    C     C_R   0.401132 0.504842 0.796805 -0.251663
C6    C     C_R   0.702020 0.066397 0.635797 -0.198318
C7    C     C_R   0.597456 0.200350 0.531000 -0.054162
C8    C     C_R   0.299948 0.837176 0.426784 -0.206181
C9    C     C_R   0.272085 0.941519 0.406145 -0.120060
C10   C     C_R   0.345893 0.009413 0.441144 -0.169373
C11   C     C_R   0.447316 0.973926 0.501689 0.071288
C12   C     C_R   0.399799 0.500649 0.074360 0.117620
C13   C     C_R   0.466794 0.871010 0.533217 0.096301
C14   C     C_R   0.530080 0.036940 0.532168 0.083971
C15   C     C_R   0.621973 0.002135 0.603511 0.181038
C16   C     C_R   0.561191 0.308780 0.511265 0.863870
C17   C     C_R   0.631153 0.904801 0.642850 -0.251728
C18   C     C_R   0.554245 0.840010 0.608341 -0.203801
C19   C     C_R   0.524508 0.133469 0.492719 -0.248468
C20   C     C_R   0.688658 0.166390 0.600729 -0.192263
C21   C     C_R   0.398998 0.801115 0.487747 -0.114343
C22   C     C_R   0.088321 0.347614 0.368289 -0.093237
C23   C     C_R   0.699772 0.491156 0.083211 -0.216015
C24   C     C_R   0.800810 0.628737 0.609300 0.023906
C25   C     C_R   0.905472 0.657134 0.630746 -0.249833
C26   C     C_R   0.986032 0.608799 0.588286 -0.200501
C27   C     C_R   0.962245 0.530620 0.524180 0.031158
C28   C     C_R   0.499678 0.499117 0.326942 0.888424
C29   C     C_R   0.854222 0.504643 0.505079 0.235176
C30   C     C_R   0.040916 0.477367 0.478786 -0.006899
C31   C     C_R   0.010133 0.399973 0.414160 0.088973
C32   C     C_R   0.903036 0.375402 0.399017 -0.303888
C33   C     C_R   0.827285 0.426739 0.443617 -0.201165
C34   C     C_R   0.699961 0.492743 0.990570 -0.216637
C35   C     C_R   0.150001 0.497457 0.495874 -0.067555
C36   C     C_R   0.195208 0.371966 0.390350 0.007282
C37   C     C_R   0.400268 0.499961 0.166792 -0.249651
C38   C     C_R   0.499605 0.497185 0.230883 -0.072556
C39   C     C_R   0.599358 0.493526 0.203334 -0.258736
C40   C     C_R   0.600403 0.494015 0.111302 0.118582
C41   C     C_R   0.500218 0.497981 0.046449 0.061132
C42   C     C_2   0.061772 0.269886 0.296712 0.354557
C43   C     C_R   0.600812 0.497057 0.925738 0.119748
C44   C     C_R   0.500424 0.499546 0.953670 0.062109
C45   C     C_R   0.400213 0.503648 0.888836 0.116525
C46   C     C_R   0.300887 0.506195 0.916930 -0.216010
C47   C     C_R   0.300689 0.504660 0.009549 -0.209645
H1    H     H_    0.323281 0.502970 0.188665 0.163655
H2    H     H_    0.875898 0.315009 0.353974 0.143034
H3    H     H_    0.676325 0.490362 0.253355 0.166239
H4    H     H_    0.180954 0.553775 0.543605 0.130023
H5    H     H_    0.738088 0.665610 0.642320 0.128704
H6    H     H_    0.065493 0.634374 0.607247 0.136061
H7    H     H_    0.924111 0.716533 0.680042 0.147352
H8    H     H_    0.747837 0.402830 0.428910 0.212070
H9    H     H_    0.777026 0.487938 0.132801 0.147858
H10   H     H_    0.777349 0.490626 0.969625 0.146869
H11   H     H_    0.677138 0.495710 0.811337 0.161356
H12   H     H_    0.698603 0.878145 0.699438 0.140842
H13   H     H_    0.324101 0.508310 0.746786 0.159598
H14   H     H_    0.223639 0.509337 0.867358 0.147914
H15   H     H_    0.223301 0.506768 0.030494 0.148642
H16   H     H_    0.745542 0.218447 0.631317 0.159307
H17   H     H_    0.978059 0.265046 0.261320 0.071272
H18   H     H_    0.771897 0.040943 0.690743 0.138530
H19   H     H_    0.460569 0.160935 0.434351 0.148435
H20   H     H_    0.245925 0.784386 0.392648 0.162053
H21   H     H_    0.320219 0.089290 0.421500 0.164132
H22   H     H_    0.195163 0.969383 0.359675 0.171279
H23   H     H_    0.562942 0.765686 0.641669 0.153207
H24   H     H_    0.257881 0.334202 0.357395 0.170983
N1    N     N_R   0.222190 0.444670 0.452360 -0.123755
N2    N     N_R   0.776970 0.554790 0.547140 -0.131962
O1    O     O_R   0.366740 0.627160 0.477250 -0.617744
O2    O     O_R   0.544830 0.662520 0.507680 -0.607741
O3    O     O_R   0.410940 0.482340 0.616930 -0.619217
O4    O     O_R   0.589030 0.517700 0.647360 -0.635699
O5    O     O_R   0.455170 0.337480 0.492320 -0.609285
O6    O     O_R   0.633260 0.372840 0.522750 -0.641841
O7    O     O_R   0.410970 0.482300 0.352640 -0.624829
O8    O     O_R   0.589060 0.517660 0.383070 -0.636375
O9    O     O_2   0.134698 0.210431 0.274839 -0.593765
Zn1   Zn    Zn3+2 0.381090 0.476390 0.479680 0.941606
Zn2   Zn    Zn3+2 0.618910 0.523610 0.520320 0.929928

loop_
_geom_bond_atom_site_label_1
_geom_bond_atom_site_label_2
_ccdc_geom_bond_type
C18   H23   S    
C1    C21   S    
C27   C29   A    
C42   O9    D    
O1    Zn1   S    
C47   H15   S    
C23   H9    S    
C22   C42   S    
C45   C46   A    
C26   C27   A    
C37   C38   A    
C13   C18   A    
C1    O1    A    
C9    H22   S    
C24   H5    S    
C12   C47   A    
O6    Zn2   S    
C11   C14   A    
O2    Zn2   S    
C29   N2    A    
C23   C40   A    
C29   C33   A    
C19   H19   S    
C12   C37   A    
C6    C15   A    
O5    Zn1   S    
C6    H18   S    
C8    C9    A    
C34   H10   S    
C9    C10   A    
N2    Zn2   S    
C36   H24   S    
C27   C30   A    
O7    Zn1   S    
C28   O7    A    
O3    Zn1   S    
C8    C21   A    
C38   C39   A    
C22   C31   A    
C46   H14   S    
C1    O2    A    
C25   H7    S    
C39   C40   A    
O4    Zn2   S    
C25   C26   A    
C5    C45   A    
C43   C44   A    
C12   C41   A    
C31   C32   A    
C28   C38   S    
C2    C43   A    
C23   C34   A    
C17   C18   A    
C13   C21   A    
C33   H8    S    
C24   C25   A    
C37   H1    S    
C17   H12   S    
C30   C35   A    
C7    C16   S    
C35   N1    A    
C7    C19   A    
C35   H4    S    
C41   C44   A    
C3    C4    S    
C26   H6    S    
C42   H17   S    
O8    Zn2   S    
C6    C20   A    
C44   C45   A    
C15   C17   A    
C46   C47   A    
C40   C41   A    
C5    H13   S    
C28   O8    A    
C14   C19   A    
C34   C43   A    
C3    C5    A    
C2    H11   S    
C10   H21   S    
C22   C36   A    
C16   O6    A    
C32   C33   A    
C20   H16   S    
C2    C3    A    
C4    O4    A    
C11   C13   A    
C30   C31   A    
C16   O5    A    
C24   N2    A    
C32   H2    S    
C4    O3    A    
N1    Zn1   S    
C10   C11   A    
C39   H3    S    
C8    H20   S    
C7    C20   A    
C14   C15   A    
C36   N1    A    
