data_mof_unit_55808.cif
_audit_creation_date              2012-12-10T19:09:29-0500
_audit_creation_method            fapswitch 2.2
_symmetry_space_group_name_H-M    P1
_symmetry_Int_Tables_number       1
_space_group_crystal_system       triclinic
_cell_length_a                    15.892412
_cell_length_b                    14.53675
_cell_length_c                    10.297098
_cell_angle_alpha                 91.906764
_cell_angle_beta                  89.999884
_cell_angle_gamma                 89.999982
_cell_volume                      2377.55977936

loop_
_atom_site_label
_atom_site_type_symbol
_atom_type_description
_atom_site_fract_x
_atom_site_fract_y
_atom_site_fract_z
_atom_type_partial_charge
C1    C     C_R   0.127877 0.389297 0.499704 0.813828
C2    C     C_R   0.889309 0.629187 0.501635 0.838377
C3    C     C_R   0.389310 0.870813 0.498365 0.838380
C4    C     C_R   0.389309 0.129187 0.501635 0.838378
C5    C     C_3   0.844872 0.223331 0.608292 -0.167136
C6    C     C_3   0.827537 0.235756 0.364336 -0.160215
C7    C     C_3   0.844871 0.776669 0.391706 -0.167134
C8    C     C_3   0.827537 0.764245 0.635663 -0.160216
C9    C     C_3   0.344876 0.723327 0.608290 -0.167133
C10   C     C_3   0.327534 0.735760 0.364336 -0.160213
C11   C     C_3   0.344873 0.276670 0.391708 -0.167133
C12   C     C_R   0.127877 0.610703 0.500297 0.813822
C13   C     C_3   0.327536 0.264243 0.635664 -0.160213
C14   C     C_3   0.265864 0.660512 0.621273 -0.037520
C15   C     C_3   0.267638 0.651918 0.378879 -0.029135
C16   C     C_3   0.265860 0.339484 0.378725 -0.037528
C17   C     C_3   0.267641 0.348086 0.621119 -0.029135
C18   C     C_3   0.765858 0.160519 0.621277 -0.037527
C19   C     C_3   0.767641 0.151913 0.378882 -0.029134
C20   C     C_3   0.765857 0.839480 0.378723 -0.037528
C21   C     C_3   0.767642 0.848088 0.621117 -0.029135
C22   C     C_3   0.742382 0.339548 0.515497 -0.425495
C23   C     C_R   0.627877 0.889296 0.499704 0.813831
C24   C     C_3   0.742382 0.660451 0.484506 -0.425495
C25   C     C_3   0.242383 0.839548 0.515507 -0.425492
C26   C     C_3   0.242382 0.160452 0.484501 -0.425495
C27   C     C_3   0.829351 0.292371 0.495824 -0.059522
C28   C     C_3   0.829351 0.707630 0.504176 -0.059523
C29   C     C_3   0.329351 0.792370 0.495826 -0.059522
C30   C     C_3   0.329351 0.207630 0.504175 -0.059523
C31   C     C_3   0.205463 0.671215 0.499401 0.081251
C32   C     C_3   0.205463 0.328785 0.500601 0.081244
C33   C     C_3   0.705462 0.171216 0.499398 0.081241
C34   C     C_R   0.627877 0.110704 0.500296 0.813827
C35   C     C_3   0.705462 0.828785 0.500603 0.081238
C36   C     C_3   0.171309 0.770526 0.495444 -0.375629
C37   C     C_3   0.171309 0.229474 0.504569 -0.375621
C38   C     C_3   0.671309 0.270527 0.495426 -0.375619
C39   C     C_3   0.671309 0.729474 0.504578 -0.375613
C40   C     C_3   0.048079 0.420746 0.071047 0.028742
C41   C     C_3   0.039468 0.416547 0.915529 -0.026991
C42   C     C_3   0.048078 0.579255 0.928951 0.028729
C43   C     C_3   0.039467 0.583454 0.084470 -0.026992
C44   C     C_3   0.548079 0.920745 0.071047 0.028745
C45   C     C_3   0.908651 0.489462 0.078380 0.482360
C46   C     C_3   0.539468 0.916547 0.915528 -0.026990
C47   C     C_3   0.548078 0.079255 0.928952 0.028742
C48   C     C_3   0.539467 0.083453 0.084471 -0.026994
C49   C     C_2   0.922688 0.162688 0.594916 0.304852
C50   C     C_2   0.914180 0.205374 0.317531 0.308112
C51   C     C_2   0.922687 0.837311 0.405080 0.304850
C52   C     C_2   0.914181 0.794628 0.682466 0.308113
C53   C     C_2   0.422693 0.662687 0.594907 0.304851
C54   C     C_2   0.414176 0.705377 0.317525 0.308109
C55   C     C_2   0.422690 0.337312 0.405086 0.304850
C56   C     C_3   0.908651 0.510536 0.921621 0.482362
C57   C     C_2   0.414179 0.294625 0.682470 0.308112
C58   C     C_3   0.228215 0.680305 0.754916 -0.910060
C59   C     C_3   0.230091 0.627521 0.246285 -0.863209
C60   C     C_3   0.228205 0.319686 0.245088 -0.909990
C61   C     C_3   0.230095 0.372487 0.753713 -0.863215
C62   C     C_3   0.728200 0.180320 0.754912 -0.909964
C63   C     C_3   0.730096 0.127512 0.246287 -0.863214
C64   C     C_3   0.728198 0.819677 0.245089 -0.909968
C65   C     C_3   0.730097 0.872491 0.753712 -0.863216
C66   C     C_3   0.041626 0.322973 0.126264 -0.806852
C67   C     C_3   0.408651 0.989463 0.078380 0.482357
C68   C     C_3   0.014174 0.323311 0.849330 -0.730448
C69   C     C_3   0.041622 0.677026 0.873730 -0.806835
C70   C     C_3   0.014173 0.676689 0.150668 -0.730451
C71   C     C_3   0.541625 0.822972 0.126261 -0.806864
C72   C     C_3   0.514174 0.823312 0.849329 -0.730450
C73   C     C_3   0.541624 0.177027 0.873736 -0.806854
C74   C     C_3   0.514174 0.176688 0.150670 -0.730448
C75   C     C_3   0.868815 0.391400 0.099248 -0.877877
C76   C     C_3   0.840969 0.450989 0.847768 -0.792992
C77   C     C_3   0.868813 0.608597 0.900754 -0.877880
C78   C     C_3   0.408651 0.010536 0.921621 0.482361
C79   C     C_3   0.840969 0.549009 0.152233 -0.792988
C80   C     C_3   0.368814 0.891402 0.099248 -0.877871
C81   C     C_3   0.340969 0.950989 0.847767 -0.792997
C82   C     C_3   0.368814 0.108598 0.900753 -0.877875
C83   C     C_3   0.340969 0.049010 0.152233 -0.792993
C84   C     C_R   0.889309 0.370813 0.498365 0.838379
H1    H     H_    0.854239 0.264718 0.698518 0.195476
H2    H     H_    0.305733 0.590070 0.400959 0.138492
H3    H     H_    0.781501 0.448227 0.904103 0.201536
H4    H     H_    0.819990 0.481759 0.756117 0.273036
H5    H     H_    0.859709 0.380286 0.828061 0.227106
H6    H     H_    0.878294 0.659740 0.977789 0.217682
H7    H     H_    0.892769 0.640066 0.815938 0.280153
H8    H     H_    0.798956 0.608895 0.891039 0.215220
H9    H     H_    0.859707 0.619712 0.171939 0.227106
H10   H     H_    0.781500 0.551769 0.095899 0.201535
H11   H     H_    0.819991 0.518238 0.243885 0.273036
H12   H     H_    0.378294 0.840260 0.022211 0.217683
H13   H     H_    0.285162 0.413308 0.378142 0.124723
H14   H     H_    0.392774 0.859933 0.184061 0.280158
H15   H     H_    0.298958 0.891103 0.108967 0.215220
H16   H     H_    0.319990 0.981760 0.756117 0.273035
H17   H     H_    0.359708 0.880286 0.828060 0.227108
H18   H     H_    0.281501 0.948227 0.904103 0.201536
H19   H     H_    0.392772 0.140066 0.815939 0.280156
H20   H     H_    0.298957 0.108895 0.891035 0.215220
H21   H     H_    0.378294 0.159740 0.977789 0.217681
H22   H     H_    0.319990 0.018239 0.243884 0.273036
H23   H     H_    0.359708 0.119713 0.171940 0.227106
H24   H     H_    0.305735 0.409933 0.599033 0.138489
H25   H     H_    0.281501 0.051771 0.095898 0.201536
H26   H     H_    0.785160 0.086695 0.621863 0.124725
H27   H     H_    0.805734 0.090066 0.400969 0.138486
H28   H     H_    0.785159 0.913304 0.378134 0.124727
H29   H     H_    0.805735 0.909935 0.599028 0.138485
H30   H     H_    0.737972 0.371186 0.615176 0.193464
H31   H     H_    0.733517 0.396130 0.446253 0.177184
H32   H     H_    0.737971 0.628814 0.384827 0.193464
H33   H     H_    0.800409 0.280894 0.290280 0.178157
H34   H     H_    0.733518 0.603870 0.553750 0.177185
H35   H     H_    0.237977 0.871185 0.615186 0.193460
H36   H     H_    0.233516 0.896129 0.446264 0.177183
H37   H     H_    0.237974 0.128815 0.384822 0.193463
H38   H     H_    0.233517 0.103871 0.553744 0.177184
H39   H     H_    0.122187 0.783696 0.570780 0.175398
H40   H     H_    0.140930 0.781370 0.399851 0.216865
H41   H     H_    0.122181 0.216301 0.429242 0.175385
H42   H     H_    0.140936 0.218633 0.600168 0.216870
H43   H     H_    0.622178 0.283702 0.570749 0.175381
H44   H     H_    0.854237 0.735280 0.301481 0.195476
H45   H     H_    0.640938 0.281367 0.399824 0.216871
H46   H     H_    0.622177 0.716297 0.429257 0.175379
H47   H     H_    0.640940 0.718634 0.600181 0.216877
H48   H     H_    0.115345 0.436461 0.086863 0.105678
H49   H     H_    0.104704 0.419509 0.883848 0.150763
H50   H     H_    0.115344 0.563540 0.913135 0.105681
H51   H     H_    0.104703 0.580493 0.116150 0.150763
H52   H     H_    0.615344 0.936461 0.086863 0.105677
H53   H     H_    0.604704 0.919509 0.883846 0.150762
H54   H     H_    0.615344 0.063540 0.913136 0.105678
H55   H     H_    0.800410 0.719108 0.709720 0.178157
H56   H     H_    0.604704 0.080491 0.116152 0.150762
H57   H     H_    0.926247 0.108375 0.520589 0.089678
H58   H     H_    0.970051 0.228472 0.369268 0.065411
H59   H     H_    0.926246 0.891624 0.479408 0.089677
H60   H     H_    0.970052 0.771531 0.630727 0.065408
H61   H     H_    0.426251 0.608374 0.520579 0.089678
H62   H     H_    0.470049 0.728474 0.369260 0.065413
H63   H     H_    0.426249 0.391624 0.479414 0.089676
H64   H     H_    0.470051 0.271527 0.630734 0.065409
H65   H     H_    0.189378 0.621940 0.778102 0.272077
H66   H     H_    0.354243 0.764713 0.698518 0.195481
H67   H     H_    0.277407 0.682235 0.831763 0.242746
H68   H     H_    0.194286 0.746808 0.758330 0.258858
H69   H     H_    0.206827 0.555549 0.245642 0.244082
H70   H     H_    0.182241 0.679470 0.223988 0.247031
H71   H     H_    0.277232 0.628680 0.167190 0.282297
H72   H     H_    0.189385 0.378066 0.221892 0.272059
H73   H     H_    0.277395 0.317728 0.168233 0.242727
H74   H     H_    0.194254 0.253195 0.241696 0.258858
H75   H     H_    0.206827 0.444457 0.754351 0.244086
H76   H     H_    0.182249 0.320536 0.776020 0.247025
H77   H     H_    0.300406 0.780900 0.290284 0.178157
H78   H     H_    0.277238 0.371335 0.832805 0.282301
H79   H     H_    0.689387 0.121937 0.778114 0.272051
H80   H     H_    0.777389 0.182290 0.831770 0.242717
H81   H     H_    0.694242 0.246808 0.758295 0.258856
H82   H     H_    0.706828 0.055542 0.245649 0.244082
H83   H     H_    0.682250 0.179463 0.223978 0.247023
H84   H     H_    0.777240 0.128663 0.167196 0.282301
H85   H     H_    0.689386 0.878063 0.221886 0.272051
H86   H     H_    0.777385 0.817703 0.168230 0.242719
H87   H     H_    0.694235 0.753193 0.241711 0.258860
H88   H     H_    0.354240 0.235283 0.301481 0.195477
H89   H     H_    0.706828 0.944461 0.754348 0.244082
H90   H     H_    0.682253 0.820540 0.776024 0.247021
H91   H     H_    0.777242 0.871343 0.832802 0.282303
H92   H     H_    0.098211 0.283105 0.097623 0.221920
H93   H     H_    0.032387 0.322970 0.230473 0.282087
H94   H     H_    0.991878 0.278680 0.085522 0.266443
H95   H     H_    0.005003 0.329589 0.745250 0.311015
H96   H     H_    0.064385 0.271528 0.863170 0.231286
H97   H     H_    0.957376 0.289886 0.883773 0.220243
H98   H     H_    0.098210 0.716895 0.902355 0.221920
H99   H     H_    0.300408 0.219105 0.709719 0.178156
H100  H     H_    0.032373 0.677023 0.769523 0.282089
H101  H     H_    0.991877 0.721320 0.914480 0.266443
H102  H     H_    0.005005 0.670413 0.254749 0.311013
H103  H     H_    0.064381 0.728474 0.136822 0.231290
H104  H     H_    0.957372 0.710113 0.116228 0.220243
H105  H     H_    0.598209 0.783103 0.097611 0.221920
H106  H     H_    0.532392 0.822968 0.230471 0.282086
H107  H     H_    0.491876 0.778681 0.085522 0.266446
H108  H     H_    0.505001 0.829589 0.745249 0.311016
H109  H     H_    0.564385 0.771528 0.863166 0.231285
H110  H     H_    0.285165 0.586688 0.621850 0.124726
H111  H     H_    0.457376 0.789885 0.883774 0.220240
H112  H     H_    0.598208 0.216897 0.902380 0.221919
H113  H     H_    0.532387 0.177030 0.769527 0.282087
H114  H     H_    0.491876 0.221319 0.914478 0.266444
H115  H     H_    0.505002 0.170411 0.254750 0.311015
H116  H     H_    0.564384 0.228472 0.136831 0.231286
H117  H     H_    0.457375 0.210114 0.116227 0.220243
H118  H     H_    0.892773 0.359932 0.184061 0.280156
H119  H     H_    0.798958 0.391102 0.108965 0.215219
H120  H     H_    0.878295 0.340259 0.022212 0.217681
N1    N     N_3   0.998760 0.500000 0.138610 -0.100101
N2    N     N_3   0.998760 0.500000 0.861390 -0.100104
N3    N     N_3   0.498760 1.000000 0.138610 -0.100101
N4    N     N_3   0.498760 1.000000 0.861390 -0.100102
O1    O     O_R   0.092530 0.407440 0.616040 -0.625751
O2    O     O_R   0.907330 0.407420 0.383960 -0.636202
O3    O     O_R   0.907330 0.592580 0.383960 -0.629606
O4    O     O_R   0.907330 0.592580 0.616040 -0.636205
O5    O     O_R   0.407330 0.907420 0.616040 -0.629610
O6    O     O_R   0.407330 0.907420 0.383960 -0.636201
O7    O     O_R   0.407330 0.092580 0.383960 -0.629609
O8    O     O_R   0.407330 0.092580 0.616040 -0.636201
O9    O     O_2   0.980027 0.168701 0.673164 -0.600781
O10   O     O_2   0.922790 0.155009 0.221276 -0.568776
O11   O     O_2   0.980024 0.831301 0.326828 -0.600777
O12   O     O_R   0.092530 0.407440 0.383960 -0.636222
O13   O     O_2   0.922791 0.844991 0.778722 -0.568775
O14   O     O_2   0.480034 0.668701 0.673152 -0.600787
O15   O     O_2   0.422783 0.655012 0.221270 -0.568780
O16   O     O_2   0.480029 0.331300 0.326836 -0.600782
O17   O     O_2   0.422788 0.344990 0.778726 -0.568779
O18   O     O_R   0.092530 0.592560 0.383960 -0.625752
O19   O     O_R   0.092530 0.592560 0.616040 -0.636226
O20   O     O_R   0.592530 0.907440 0.616040 -0.625750
O21   O     O_R   0.592530 0.907440 0.383960 -0.636222
O22   O     O_R   0.592530 0.092560 0.383960 -0.625751
O23   O     O_R   0.592530 0.092560 0.616040 -0.636222
O24   O     O_R   0.907330 0.407420 0.616040 -0.629608
Zn1   Zn    Zn3+2 0.999890 0.500000 0.654960 0.896887
Zn2   Zn    Zn3+2 0.999890 0.500000 0.345040 0.896889
Zn3   Zn    Zn3+2 0.499890 1.000000 0.654960 0.896890
Zn4   Zn    Zn3+2 0.499890 0.000000 0.345040 0.896890

loop_
_geom_bond_atom_site_label_1
_geom_bond_atom_site_label_2
_ccdc_geom_bond_type
C44   H52   S    
C77   H8    S    
C67   C83   S    
C4    O8    A    
C65   H90   S    
C43   N1    S    
C34   O23   A    
C10   C29   S    
C14   C31   S    
C5    C49   S    
C72   H111  S    
C41   H49   S    
O4    Zn1   S    
C59   H69   S    
C67   N3    S    
C77   H7    S    
C81   H17   S    
C3    O6    A    
C46   N4    S    
C6    C19   S    
C66   H94   S    
C2    O3    A    
C52   H60   S    
C47   N4    S    
C8    H55   S    
C56   C76   S    
C15   H2    S    
O12   Zn2   S    
C27   C84   S    
C36   H40   S    
C60   H74   S    
C79   H9    S    
C10   C15   S    
C61   H75   S    
C84   O2    A    
C16   H13   S    
C13   C57   S    
C22   C38   S    
C41   N2    S    
C24   C39   S    
C48   N3    S    
C44   C71   S    
C16   C60   S    
C82   H21   S    
C64   H85   S    
C3    C29   S    
C62   H79   S    
O24   Zn1   S    
O20   Zn3   S    
C17   C61   S    
C5    C27   S    
C20   C35   S    
C55   H63   S    
C75   H118  S    
C63   H82   S    
C62   H80   S    
C6    C27   S    
C45   C56   S    
C19   C63   S    
C13   H99   S    
C73   H113  S    
C45   N1    S    
C82   H19   S    
C83   H25   S    
O22   Zn4   S    
C26   H37   S    
C7    H44   S    
C80   H12   S    
C8    C52   S    
C6    H33   S    
C46   C72   S    
C58   H65   S    
C70   H104  S    
C69   H98   S    
C54   H62   S    
C57   O17   D    
C19   H27   S    
C63   H83   S    
C40   H48   S    
C52   O13   D    
C4    O7    A    
C20   H28   S    
C65   H91   S    
C64   H86   S    
C66   H92   S    
C34   O22   A    
C67   C78   S    
C65   H89   S    
O19   Zn1   S    
C25   H35   S    
C21   C65   S    
C59   H70   S    
C58   H68   S    
N3    Zn4   S    
C23   O20   A    
C41   C68   S    
C37   H41   S    
C81   H18   S    
C25   C29   S    
C77   H6    S    
C66   H93   S    
C68   H97   S    
C48   H56   S    
C1    O1    A    
C61   H78   S    
C38   H45   S    
C48   C74   S    
C13   C30   S    
C36   H39   S    
C60   H73   S    
C11   C30   S    
C79   H10   S    
C21   H29   S    
C19   C33   S    
C61   H76   S    
C72   H109  S    
C40   C41   S    
C59   H71   S    
C23   C35   S    
C18   C62   S    
C12   O19   A    
C5    C18   S    
C44   C46   S    
C51   O11   D    
C53   O14   D    
C15   C31   S    
C68   H96   S    
C42   C69   S    
C71   H105  S    
C7    C28   S    
C49   O9    D    
C20   C64   S    
C35   C39   S    
C9    C14   S    
C60   H72   S    
C79   H11   S    
C11   C16   S    
C78   C82   S    
C12   O18   A    
C47   C48   S    
C76   H3    S    
C73   H114  S    
C53   H61   S    
C33   C34   S    
C84   O24   A    
C45   C79   S    
C32   C37   S    
C6    C50   S    
C43   H51   S    
N4    Zn3   S    
C47   C73   S    
C23   O21   A    
C70   H103  S    
C46   H53   S    
C22   H31   S    
C81   H16   S    
C74   H116  S    
C24   H32   S    
C43   C70   S    
C51   H59   S    
C22   C27   S    
N2    Zn1   S    
C12   C31   S    
C63   H84   S    
C8    C28   S    
C57   H64   S    
O1    Zn1   S    
C9    C53   S    
C42   C43   S    
C1    C32   S    
C9    H66   S    
C25   H36   S    
C69   H101  S    
C11   C55   S    
C58   H67   S    
C37   H42   S    
O8    Zn3   S    
C76   H4    S    
C40   N1    S    
N1    Zn2   S    
C75   H119  S    
C56   C77   S    
C69   H100  S    
C80   H14   S    
C15   C59   S    
O6    Zn4   S    
C67   C80   S    
C24   C28   S    
C74   H117  S    
C8    C21   S    
C2    C28   S    
C75   H120  S    
C83   H22   S    
C26   C37   S    
C26   C30   S    
C44   N3    S    
C21   C35   S    
C39   H46   S    
C49   H57   S    
C16   C32   S    
C76   H5    S    
C68   H95   S    
C2    O4    A    
C33   C38   S    
O18   Zn2   S    
O3    Zn2   S    
C42   H50   S    
C45   C75   S    
O21   Zn4   S    
C5    H1    S    
C80   H15   S    
O5    Zn3   S    
C9    C29   S    
C78   C81   S    
C54   O15   D    
C39   H47   S    
C64   H87   S    
C38   H43   S    
C47   H54   S    
C24   H34   S    
C40   C66   S    
C83   H23   S    
C42   N2    S    
C1    O12   A    
O2    Zn2   S    
C71   H106  S    
C14   H110  S    
C10   C54   S    
C18   C33   S    
C78   N4    S    
C70   H102  S    
C25   C36   S    
C7    C51   S    
C13   C17   S    
C3    O5    A    
C22   H30   S    
C62   H81   S    
C56   N2    S    
C74   H115  S    
C18   H26   S    
C7    C20   S    
C73   H112  S    
C11   H88   S    
C17   C32   S    
C82   H20   S    
C31   C36   S    
O23   Zn3   S    
C10   H77   S    
C26   H38   S    
C71   H107  S    
C17   H24   S    
O7    Zn4   S    
C50   O10   D    
C72   H108  S    
C4    C30   S    
C50   H58   S    
C14   C58   S    
C55   O16   D    
