data_mof_unit_10602.cif
_audit_creation_date              2012-10-26T20:36:06-0400
_audit_creation_method            fapswitch 2.2
_symmetry_space_group_name_H-M    P1
_symmetry_Int_Tables_number       1
_space_group_crystal_system       triclinic
_cell_length_a                    10.686542
_cell_length_b                    15.861228
_cell_length_c                    17.057451
_cell_angle_alpha                 95.329805
_cell_angle_beta                  92.82417
_cell_angle_gamma                 90.977611
_cell_volume                      2874.5890797

loop_
_atom_site_label
_atom_site_type_symbol
_atom_type_description
_atom_site_fract_x
_atom_site_fract_y
_atom_site_fract_z
_atom_type_partial_charge
C1    C     C_R   0.499548 0.489959 0.348822 0.584215
C2    C     C_R   0.508985 0.526442 0.902023 0.217008
C3    C     C_R   0.431877 0.409913 0.136426 0.269478
C4    C     C_R   0.565680 0.590745 0.863685 0.213045
C5    C     C_R   0.436148 0.415628 0.218688 -0.109198
C6    C     C_R   0.561781 0.585011 0.781437 -0.098556
C7    C     C_R   0.446421 0.756583 0.455595 0.378050
C8    C     C_R   0.553620 0.243321 0.544301 0.383679
C9    C     C_R   0.454626 0.845129 0.460372 -0.028794
C10   C     C_R   0.545008 0.154904 0.539949 -0.025896
C11   C     C_R   0.526802 0.891728 0.519697 0.186033
C12   C     C_R   0.500552 0.510029 0.651191 0.597383
C13   C     C_R   0.472070 0.108289 0.481019 0.182489
C14   C     C_R   0.595049 0.846366 0.573810 -0.103541
C15   C     C_R   0.403602 0.153624 0.426953 -0.104382
C16   C     C_R   0.263144 0.501490 0.511145 0.592905
C17   C     C_R   0.736833 0.498497 0.488832 0.574226
C18   C     C_R   0.588522 0.756818 0.567583 0.027324
C19   C     C_R   0.410651 0.243173 0.432850 0.028045
C20   C     C_R   0.108268 0.352703 0.547911 -0.143848
C21   C     C_R   0.891611 0.647217 0.451799 -0.132329
C22   C     C_R   0.048676 0.274339 0.529929 -0.113017
C23   C     C_R   0.498315 0.484055 0.262985 -0.007361
C24   C     C_R   0.951169 0.725585 0.469865 -0.104898
C25   C     C_R   0.943913 0.265465 0.477248 0.290453
C26   C     C_R   0.055850 0.734394 0.522616 0.282140
C27   C     C_R   0.890723 0.339063 0.448663 0.270688
C28   C     C_R   0.108958 0.660756 0.551171 0.234903
C29   C     C_R   0.938141 0.420247 0.481158 -0.018394
C30   C     C_R   0.061726 0.579636 0.518543 -0.035873
C31   C     C_R   0.058690 0.425593 0.518253 -0.039620
C32   C     C_R   0.941222 0.574302 0.481406 -0.030645
C33   C     C_R   0.872994 0.496506 0.475434 0.029954
C34   C     C_R   0.501453 0.515909 0.737043 0.022096
C35   C     C_R   0.126902 0.503412 0.524268 0.014642
C36   C     C_R   0.560112 0.545651 0.224985 -0.096797
C37   C     C_R   0.441060 0.453621 0.774967 -0.092273
C38   C     C_R   0.555969 0.540870 0.143213 -0.084766
C39   C     C_R   0.444824 0.458442 0.856736 -0.084784
C40   C     C_R   0.490013 0.473596 0.098020 0.225087
Cu1   Cu    Cu3+1 0.493970 0.415220 0.496180 1.104171
Cu2   Cu    Cu3+1 0.506030 0.584780 0.503820 1.102051
H1    H     H_    0.595481 0.121906 0.583864 0.203404
H2    H     H_    0.909658 0.780617 0.446861 0.184371
H3    H     H_    0.390040 0.401599 0.741342 0.172023
H4    H     H_    0.612543 0.597069 0.258554 0.180653
H5    H     H_    0.397480 0.408866 0.884214 0.193428
H6    H     H_    0.604508 0.589862 0.115644 0.209499
H7    H     H_    0.389170 0.367574 0.248372 0.171677
H8    H     H_    0.607630 0.633634 0.751861 0.168897
H9    H     H_    0.115893 0.957676 0.500165 0.385861
H10   H     H_    0.881399 0.042931 0.501440 0.386208
H11   H     H_    0.810811 0.256730 0.245043 0.391425
H12   H     H_    0.404634 0.878322 0.416405 0.196265
H13   H     H_    0.123836 0.562122 0.696570 0.350831
H14   H     H_    0.391377 0.236629 0.981770 0.384977
H15   H     H_    0.473688 0.737005 0.955077 0.363452
H16   H     H_    0.797623 0.238001 0.701089 0.387970
H17   H     H_    0.242139 0.605232 0.319777 0.364948
H18   H     H_    0.653439 0.880057 0.620589 0.166563
H19   H     H_    0.344661 0.119915 0.380465 0.169091
H20   H     H_    0.642339 0.723224 0.609629 0.151443
H21   H     H_    0.356588 0.276747 0.390902 0.154198
H22   H     H_    0.192742 0.356184 0.585961 0.159455
H23   H     H_    0.807094 0.643757 0.413787 0.162326
H24   H     H_    0.090148 0.219337 0.553019 0.180576
N1    N     N_2   0.480468 0.467807 0.014461 -0.164259
N2    N     N_2   0.518397 0.532258 0.985589 -0.174454
N3    N     N_R   0.515100 0.712130 0.509560 -0.243719
N4    N     N_R   0.484900 0.287870 0.490440 -0.244712
N5    N     N_2   0.533125 0.982872 0.525519 -0.203542
N6    N     N_2   0.465567 0.017162 0.475339 -0.201905
O1    O     O_R   0.494360 0.420530 0.382500 -0.482224
O2    O     O_2   0.246210 0.843367 0.576562 -0.224573
O3    O     O_3   0.081652 0.901001 0.479675 -0.504244
O4    O     O_2   0.753798 0.156310 0.422682 -0.222412
O5    O     O_2   0.964423 0.126300 0.378442 -0.208234
O6    O     O_3   0.916108 0.099610 0.521500 -0.502796
O7    O     O_2   0.670511 0.297692 0.368641 -0.232485
O8    O     O_2   0.791652 0.414848 0.323990 -0.322221
O9    O     O_3   0.869275 0.262755 0.292222 -0.431923
O10   O     O_2   0.328759 0.701691 0.631683 -0.195971
O11   O     O_2   0.138096 0.729783 0.701172 -0.189791
O12   O     O_R   0.505640 0.579470 0.617500 -0.483851
O13   O     O_3   0.209306 0.574818 0.680271 -0.560332
O14   O     O_2   0.309550 0.259586 0.135090 -0.235031
O15   O     O_2   0.237808 0.356794 0.039253 -0.238498
O16   O     O_3   0.445622 0.278183 0.015261 -0.475089
O17   O     O_2   0.758859 0.646493 0.960483 -0.188675
O18   O     O_2   0.683518 0.743052 0.865413 -0.233934
O19   O     O_3   0.549901 0.722147 0.985819 -0.447782
O20   O     O_2   0.715392 0.368655 0.621665 -0.269396
O21   O     O_2   0.565566 0.296536 0.697496 -0.305253
O22   O     O_3   0.758716 0.216143 0.649084 -0.503126
O23   O     O_R   0.504550 0.563720 0.388950 -0.456156
O24   O     O_2   0.256521 0.776093 0.350182 -0.243377
O25   O     O_2   0.440362 0.703915 0.302765 -0.294934
O26   O     O_3   0.277265 0.621051 0.374085 -0.504201
O27   O     O_R   0.495450 0.436280 0.611050 -0.458824
O28   O     O_R   0.314560 0.428400 0.496770 -0.545150
O29   O     O_R   0.685440 0.571600 0.503230 -0.546854
O30   O     O_R   0.324750 0.571590 0.503220 -0.409799
O31   O     O_R   0.675250 0.428410 0.496780 -0.424459
O32   O     O_2   0.036557 0.872510 0.622872 -0.215177
S1    S     S_3+6 0.108781 0.839364 0.553558 0.084785
S2    S     S_3+6 0.890828 0.160398 0.446785 0.090083
S3    S     S_3+6 0.800166 0.330598 0.357426 0.074425
S4    S     S_3+6 0.198969 0.668939 0.642604 0.079713
S5    S     S_3+6 0.350731 0.323953 0.081766 0.072303
S6    S     S_3+6 0.644408 0.677747 0.918387 0.088191
S7    S     S_3+6 0.648192 0.286437 0.628706 0.043691
S8    S     S_3+6 0.354349 0.713221 0.369879 0.061534

loop_
_geom_bond_atom_site_label_1
_geom_bond_atom_site_label_2
_ccdc_geom_bond_type
C30   C32   A    
O9    S3    S    
H13   O13   S    
C27   C29   A    
C34   C37   A    
Cu1   Cu2   S    
C14   C18   A    
Cu1   O31   S    
O11   S4    D    
C15   C19   A    
O24   S8    D    
O8    S3    D    
C30   C35   A    
O19   S6    S    
O5    S2    D    
C24   C26   A    
C2    N2    S    
C16   C35   S    
C11   C14   A    
C11   N5    S    
H14   O16   S    
C29   C33   A    
O22   S7    S    
C7    S8    S    
C12   O12   A    
H11   O9    S    
C17   O29   A    
C22   H24   S    
C12   O27   A    
C2    C39   A    
C19   H21   S    
C22   C25   A    
Cu1   O27   S    
C36   H4    S    
O10   S4    D    
O13   S4    S    
C38   H6    S    
C18   N3    A    
C5    H7    S    
C17   C33   S    
H10   O6    S    
Cu2   O30   S    
C26   S1    S    
O32   S1    D    
C25   S2    S    
C21   C32   A    
O26   S8    S    
N1    N2    D    
O14   S5    D    
Cu2   O12   S    
C4    C6    A    
C8    S7    S    
O25   S8    D    
C16   O28   A    
O17   S6    D    
C40   N1    S    
Cu2   N3    S    
Cu2   O23   S    
C3    S5    S    
C20   H22   S    
C2    C4    A    
C5    C23   A    
C27   S3    S    
C1    O23   A    
C15   H19   S    
Cu1   O28   S    
O7    S3    D    
C6    H8    S    
C9    C11   A    
O21   S7    D    
O16   S5    S    
C16   O30   A    
C20   C22   A    
C3    C40   A    
C1    C23   S    
C13   C15   A    
C24   H2    S    
C31   C35   A    
O18   S6    D    
C12   C34   S    
Cu2   O29   S    
C39   H5    S    
C7    C9    A    
C4    S6    S    
O4    S2    D    
H15   O19   S    
C21   H23   S    
C10   H1    S    
C26   C28   A    
C8    C10   A    
C18   H20   S    
H9    O3    S    
C3    C5    A    
C10   C13   A    
C7    N3    A    
O20   S7    D    
O3    S1    S    
O15   S5    D    
C13   N6    S    
C25   C27   A    
C14   H18   S    
C8    N4    A    
O6    S2    S    
C1    O1    A    
C32   C33   A    
C36   C38   A    
C17   O31   A    
N5    N6    D    
C37   C39   A    
O2    S1    D    
C38   C40   A    
C28   S4    S    
C28   C30   A    
H16   O22   S    
Cu1   O1    S    
C6    C34   A    
C29   C31   A    
C23   C36   A    
C21   C24   A    
H17   O26   S    
C19   N4    A    
C9    H12   S    
C37   H3    S    
Cu1   N4    S    
C20   C31   A    
