data_mof_unit_45152.cif
_audit_creation_date              2012-10-26T19:45:31-0400
_audit_creation_method            fapswitch 2.2
_symmetry_space_group_name_H-M    P1
_symmetry_Int_Tables_number       1
_space_group_crystal_system       triclinic
_cell_length_a                    10.831065
_cell_length_b                    9.596098
_cell_length_c                    10.83799
_cell_angle_alpha                 92.207526
_cell_angle_beta                  94.340633
_cell_angle_gamma                 89.77047
_cell_volume                      1122.39164494

loop_
_atom_site_label
_atom_site_type_symbol
_atom_type_description
_atom_site_fract_x
_atom_site_fract_y
_atom_site_fract_z
_atom_type_partial_charge
C1    C     C_R   0.262607 0.500562 0.504687 0.524097
C2    C     C_R   0.427738 0.922538 0.412618 0.320921
C3    C     C_R   0.570954 0.929588 0.587808 0.324145
C4    C     C_R   0.578873 0.079115 0.580886 0.327586
C5    C     C_R   0.497709 0.497253 0.259676 0.636588
C6    C     C_R   0.737631 0.500160 0.500293 0.556085
C7    C     C_R   0.504188 0.501438 0.740441 0.538230
C8    C     C_3   0.390188 0.584141 0.064949 0.133763
C9    C     C_3   0.483110 0.340118 0.061133 0.169708
C10   C     C_3   0.395188 0.586652 0.922472 -0.235247
C11   C     C_3   0.488973 0.348594 0.919446 -0.219811
C12   C     C_3   0.629906 0.555475 0.942051 -0.211401
C13   C     C_3   0.631550 0.547411 0.087143 0.421793
C14   C     C_3   0.499613 0.492957 0.121364 0.111936
C15   C     C_3   0.505422 0.500539 0.878815 -0.074326
C16   C     C_3   0.601423 0.902998 0.795828 -0.141217
C17   C     C_3   0.783508 0.112486 0.653060 -0.107192
C18   C     C_3   0.174559 0.619075 0.061954 -0.140469
C19   C     C_3   0.372374 0.131350 0.055869 -0.083011
C20   C     C_3   0.618171 0.801451 0.119973 -0.027794
C21   C     C_3   0.721730 0.907990 0.118427 -0.399334
C22   C     C_3   0.842984 0.484397 0.134391 0.027405
C23   C     C_R   0.063872 0.375879 0.506544 -0.160100
C24   C     C_3   0.925789 0.355878 0.138105 -0.407178
C25   C     C_3   0.237284 0.150418 0.330736 -0.044606
C26   C     C_3   0.246022 0.825640 0.323290 -0.082501
C27   C     C_R   0.064455 0.628127 0.520556 -0.162907
C28   C     C_R   0.936240 0.375716 0.496620 -0.154352
C29   C     C_R   0.936284 0.628150 0.516896 -0.143531
C30   C     C_R   0.871625 0.501474 0.503321 0.023280
C31   C     C_R   0.128854 0.501724 0.511290 0.014043
C32   C     C_R   0.425690 0.071989 0.414905 0.326489
Cu1   Cu    Cu3+1 0.500020 0.640660 0.500000 1.038828
Cu2   Cu    Cu3+1 0.500020 0.359340 0.500000 1.048854
H1    H     H_    0.400581 0.691739 0.104872 0.134904
H2    H     H_    0.112607 0.726561 0.532060 0.108499
H3    H     H_    0.888581 0.277117 0.483562 0.118920
H4    H     H_    0.888261 0.727004 0.524498 0.141734
H5    H     H_    0.677013 0.878824 0.865530 0.120310
H6    H     H_    0.516480 0.846820 0.813742 0.121338
H7    H     H_    0.582823 0.015974 0.809793 0.123624
H8    H     H_    0.845864 0.201736 0.679427 0.124605
H9    H     H_    0.803715 0.072742 0.558675 0.091688
H10   H     H_    0.807172 0.032455 0.721971 0.143845
H11   H     H_    0.125149 0.575985 0.975481 0.125752
H12   H     H_    0.561508 0.274418 0.098276 0.149312
H13   H     H_    0.201060 0.729105 0.048188 0.084420
H14   H     H_    0.108091 0.620390 0.134868 0.108306
H15   H     H_    0.281303 0.085780 0.070940 0.144225
H16   H     H_    0.444759 0.076533 0.113933 0.147843
H17   H     H_    0.387164 0.108036 0.957069 0.048977
H18   H     H_    0.556968 0.839525 0.190936 0.204602
H19   H     H_    0.562276 0.798600 0.030752 0.066279
H20   H     H_    0.793010 0.869427 0.057011 0.138346
H21   H     H_    0.683660 0.008507 0.084836 0.092091
H22   H     H_    0.766331 0.925834 0.213417 0.153729
H23   H     H_    0.308663 0.542915 0.874509 0.150489
H24   H     H_    0.862724 0.546335 0.222480 0.182788
H25   H     H_    0.866148 0.547842 0.055502 0.123238
H26   H     H_    0.911381 0.293818 0.049570 0.147735
H27   H     H_    0.024513 0.387074 0.152294 0.133200
H28   H     H_    0.903429 0.290164 0.215585 0.152971
H29   H     H_    0.208472 0.260551 0.321794 0.175016
H30   H     H_    0.206997 0.109476 0.418219 0.045014
H31   H     H_    0.186159 0.095292 0.251654 0.090940
H32   H     H_    0.211202 0.868428 0.410998 0.070754
H33   H     H_    0.190627 0.868815 0.243769 0.080937
H34   H     H_    0.401910 0.307422 0.870396 0.161847
H35   H     H_    0.228207 0.712306 0.315034 0.177498
H36   H     H_    0.399886 0.696037 0.894786 0.069630
H37   H     H_    0.566472 0.281496 0.890054 0.129496
H38   H     H_    0.651792 0.659231 0.910811 0.114911
H39   H     H_    0.704765 0.488609 0.906780 0.128832
H40   H     H_    0.110909 0.277322 0.510367 0.106155
N1    N     N_R   0.500030 0.852070 0.500030 -0.257991
N2    N     N_R   0.500030 0.147930 0.500030 -0.262471
O1    O     O_R   0.319660 0.618740 0.499990 -0.520888
O2    O     O_3   0.660079 0.158766 0.659666 -0.545931
O3    O     O_3   0.275182 0.530694 0.097527 -0.521046
O4    O     O_3   0.370189 0.276674 0.087429 -0.487269
O5    O     O_3   0.669897 0.672747 0.156657 -0.551786
O6    O     O_3   0.717769 0.440551 0.123617 -0.588905
O7    O     O_3   0.365795 0.141114 0.318383 -0.509879
O8    O     O_3   0.372708 0.849665 0.310502 -0.568710
O9    O     O_R   0.319660 0.381260 0.499990 -0.508246
O10   O     O_R   0.499990 0.618790 0.317690 -0.456600
O11   O     O_R   0.499990 0.381210 0.317690 -0.444497
O12   O     O_R   0.680370 0.618830 0.500010 -0.473017
O13   O     O_R   0.680370 0.381170 0.500010 -0.480747
O14   O     O_R   0.500030 0.618780 0.682310 -0.479266
O15   O     O_R   0.500030 0.381220 0.682310 -0.479523
O16   O     O_3   0.640199 0.860891 0.678523 -0.546800

loop_
_geom_bond_atom_site_label_1
_geom_bond_atom_site_label_2
_ccdc_geom_bond_type
C24   H27   S    
C27   C29   A    
C1    O1    A    
C2    O8    S    
C9    C14   S    
C18   H13   S    
Cu2   O9    S    
C26   H33   S    
C22   O6    S    
Cu1   O12   S    
C10   C15   S    
C21   H20   S    
C11   H37   S    
C13   O5    S    
C1    C31   S    
C6    O12   A    
C2    C32   A    
C25   H29   S    
Cu2   O15   S    
C32   N2    A    
C17   H8    S    
C11   C15   S    
Cu1   N1    S    
C18   O3    S    
C29   H4    S    
C8    O3    S    
C8    C14   S    
C3    N1    A    
C7    C15   S    
C12   H38   S    
C9    H12   S    
C13   C14   S    
C12   H39   S    
C1    O9    A    
C4    N2    A    
C27   C31   A    
C26   H32   S    
C10   H23   S    
C25   H31   S    
C22   H25   S    
C21   H21   S    
C7    O14   A    
C13   O6    S    
C3    O16   S    
C8    H1    S    
C23   C31   A    
Cu1   O10   S    
C17   H9    S    
C4    O2    S    
C29   C30   A    
C19   H15   S    
C12   C15   S    
C24   H26   S    
C7    O15   A    
Cu1   Cu2   S    
C23   C28   A    
C12   C13   S    
C9    C11   S    
C5    C14   S    
C16   H6    S    
C5    O10   A    
C10   H36   S    
C25   H30   S    
C6    C30   S    
C16   O16   S    
C22   C24   S    
C23   H40   S    
C3    C4    A    
C18   H11   S    
C11   H34   S    
C32   O7    S    
C24   H28   S    
C20   H19   S    
C18   H14   S    
C22   H24   S    
C21   H22   S    
C27   H2    S    
C6    O13   A    
C28   C30   A    
Cu2   O13   S    
C20   H18   S    
Cu1   O14   S    
C26   O8    S    
C19   H16   S    
Cu1   O1    S    
C28   H3    S    
C17   O2    S    
Cu2   O11   S    
C19   O4    S    
C17   H10   S    
C16   H5    S    
C5    O11   A    
C19   H17   S    
C20   C21   S    
C8    C10   S    
C25   O7    S    
C26   H35   S    
C20   O5    S    
C16   H7    S    
C9    O4    S    
C2    N1    A    
Cu2   N2    S    
