data_mof_unit_34669.cif
_audit_creation_date              2012-12-10T16:56:29-0500
_audit_creation_method            fapswitch 2.2
_symmetry_space_group_name_H-M    P1
_symmetry_Int_Tables_number       1
_space_group_crystal_system       triclinic
_cell_length_a                    7.77215
_cell_length_b                    8.574766
_cell_length_c                    15.702108
_cell_angle_alpha                 90.893972
_cell_angle_beta                  85.816216
_cell_angle_gamma                 93.66739
_cell_volume                      1041.46831389

loop_
_atom_site_label
_atom_site_type_symbol
_atom_type_description
_atom_site_fract_x
_atom_site_fract_y
_atom_site_fract_z
_atom_type_partial_charge
C1    C     C_R   0.545791 0.794734 0.497808 0.962679
C2    C     C_3   0.340194 0.452342 0.032169 -0.198443
C3    C     C_1   0.506049 0.499841 0.750761 -0.144536
C4    C     C_1   0.493951 0.500159 0.249239 -0.144536
C5    C     C_3   0.385690 0.597468 0.976023 0.215615
C6    C     C_3   0.614310 0.402532 0.023977 0.215615
C7    C     C_3   0.503310 0.500152 0.917082 0.090217
C8    C     C_3   0.496690 0.499848 0.082918 0.090217
C9    C     C_1   0.506292 0.499885 0.826099 0.009950
C10   C     C_1   0.493708 0.500115 0.173901 0.009950
C11   C     C_R   0.454209 0.205266 0.502192 0.962679
C12   C     C_R   0.502070 0.500097 0.661966 0.901177
C13   C     C_R   0.497930 0.499903 0.338034 0.901177
C14   C     C_2   0.569879 0.958234 0.496547 -0.364098
C15   C     C_2   0.430121 0.041766 0.503453 -0.364098
C16   C     C_3   0.541465 0.645600 0.028400 -0.199430
C17   C     C_3   0.458535 0.354400 0.971599 -0.199430
C18   C     C_3   0.659806 0.547658 0.967831 -0.198443
H1    H     H_    0.790494 0.585874 0.939585 0.195258
H2    H     H_    0.209506 0.414126 0.060415 0.195258
H3    H     H_    0.574581 0.764669 0.053514 0.187520
H4    H     H_    0.425419 0.235331 0.946485 0.187520
H5    H     H_    0.701860 0.009329 0.489953 0.183095
H6    H     H_    0.298139 0.990671 0.510047 0.183096
H7    H     H_    0.013397 0.381953 0.436395 0.198166
H8    H     H_    0.986603 0.618047 0.563605 0.198165
I1    I     I_    0.796872 0.247016 0.063054 -0.366573
I2    I     I_    0.203128 0.752984 0.936946 -0.366574
N1    N     N_2   0.950320 0.457950 0.477300 -0.169461
N2    N     N_2   0.049680 0.542050 0.522700 -0.169461
O1    O     O_R   0.389250 0.738570 0.505570 -0.612552
O2    O     O_R   0.610750 0.261430 0.494430 -0.612552
O3    O     O_R   0.678390 0.711630 0.491020 -0.629726
O4    O     O_R   0.321610 0.288370 0.508980 -0.629726
O5    O     O_R   0.355460 0.513480 0.630490 -0.602538
O6    O     O_R   0.644540 0.486520 0.369510 -0.602537
O7    O     O_R   0.644600 0.486540 0.615950 -0.621938
O8    O     O_R   0.355400 0.513460 0.384050 -0.621938
Zn1   Zn    Zn3+2 0.306940 0.517990 0.509710 0.965618
Zn2   Zn    Zn3+2 0.693060 0.482010 0.490290 0.965618

loop_
_geom_bond_atom_site_label_1
_geom_bond_atom_site_label_2
_ccdc_geom_bond_type
C14   H5    S    
N2    Zn1   S    
O5    Zn1   S    
N1    N2    D    
C3    C9    T    
C1    C14   S    
C5    I2    S    
C17   H4    S    
O6    Zn2   S    
C7    C18   S    
C1    O3    A    
C8    C16   S    
C2    C17   S    
C13   O8    A    
C16   H3    S    
N1    Zn2   S    
C16   C18   S    
C15   H6    S    
O1    Zn1   S    
C11   O2    A    
H8    N2    S    
O7    Zn2   S    
O2    Zn2   S    
H7    N1    S    
O8    Zn1   S    
C6    C18   S    
C12   O5    A    
C2    C5    S    
C2    H2    S    
O4    Zn1   S    
O3    Zn2   S    
C7    C9    S    
C1    O1    A    
C13   O6    A    
C8    C10   S    
C18   H1    S    
C12   O7    A    
C5    C7    S    
C6    C17   S    
C14   C15   D    
C5    C16   S    
C6    C8    S    
C3    C12   S    
C4    C13   S    
C11   C15   S    
C11   O4    A    
C2    C8    S    
C6    I1    S    
C4    C10   T    
C7    C17   S    
