data_mof_unit_24382.cif
_audit_creation_date              2013-03-05T16:26:13-0500
_audit_creation_method            fapswitch 2.2
_symmetry_space_group_name_H-M    P1
_symmetry_Int_Tables_number       1
_space_group_crystal_system       triclinic
_cell_length_a                    18.485403
_cell_length_b                    18.307582
_cell_length_c                    18.343259
_cell_angle_alpha                 120.026786
_cell_angle_beta                  90.057399
_cell_angle_gamma                 60.403006
_cell_volume                      4416.50244314

loop_
_atom_site_label
_atom_site_type_symbol
_atom_site_description
_atom_site_fract_x
_atom_site_fract_y
_atom_site_fract_z
_atom_type_partial_charge
Zn1   Zn    Zn3+2 0.043370 0.413240 0.543370 1.049126
Zn2   Zn    Zn3+2 0.869870 0.586760 0.543380 0.989890
Zn3   Zn    Zn3+2 0.043360 0.413260 0.369880 1.024797
Zn4   Zn    Zn3+2 0.043390 0.586740 0.543370 1.013719
O1    O     O_3   0.000000 0.500000 0.500000 -0.525801
O2    O     O_R   0.944950 0.731580 0.615800 -0.615447
O3    O     O_R   0.115780 0.268410 0.444920 -0.617544
O4    O     O_R   0.823470 0.560720 0.615800 -0.628637
O5    O     O_R   0.115800 0.439290 0.323490 -0.627762
O6    O     O_R   0.823460 0.560740 0.444930 -0.644642
O7    O     O_R   0.115830 0.560690 0.615790 -0.659143
O8    O     O_R   0.944900 0.439310 0.323490 -0.618636
O9    O     O_R   0.115810 0.439260 0.615790 -0.598086
O10   O     O_R   0.944910 0.439280 0.615800 -0.592936
O11   O     O_R   0.115820 0.560710 0.444920 -0.622291
O12   O     O_R   0.823500 0.731590 0.615800 -0.659066
O13   O     O_R   0.115770 0.268420 0.323490 -0.603382
C1    C     C_R   0.860091 0.780081 0.642933 0.828755
C2    C     C_R   0.139900 0.219878 0.360020 0.911127
C3    C     C_R   0.860377 0.499664 0.640169 0.912424
C4    C     C_R   0.136280 0.503165 0.359912 0.848429
C5    C     C_R   0.861073 0.500739 0.359436 0.823785
C6    C     C_R   0.135676 0.505403 0.645881 0.858877
C7    C     C_R   0.192897 0.655047 0.725724 -0.172526
C8    C     C_R   0.245766 0.688417 0.719624 0.288021
C9    C     C_R   0.332439 0.637693 0.721507 0.335361
C10   C     C_R   0.364204 0.556805 0.730516 0.405196
C11   C     C_R   0.307580 0.530966 0.744842 -0.150564
C12   C     C_R   0.228479 0.565626 0.725126 -0.069400
C13   C     C_R   0.327898 0.472365 0.779261 -0.017342
C14   C     C_R   0.290872 0.415812 0.760914 -0.203763
C15   C     C_R   0.212010 0.447553 0.739849 -0.197186
C16   C     C_R   0.186963 0.512772 0.710159 0.004896
C17   C     C_R   0.330963 0.327032 0.761539 0.409716
C18   C     C_R   0.282177 0.290188 0.767269 0.267491
C19   C     C_R   0.197066 0.333115 0.761605 0.291070
C20   C     C_R   0.160201 0.414547 0.752079 0.410506
C21   C     C_R   0.188504 0.051410 0.327112 -0.022966
C22   C     C_R   0.200864 0.108209 0.305360 -0.197491
C23   C     C_R   0.277487 0.055716 0.235348 0.397021
C24   C     C_R   0.333359 0.947104 0.182660 0.454379
C25   C     C_R   0.310353 0.891493 0.197992 -0.200754
C26   C     C_R   0.242110 0.945697 0.275368 -0.161935
C27   C     C_3   0.166276 0.938729 0.293421 0.326743
C28   C     C_3   0.107118 0.058265 0.352715 0.380883
C29   C     C_R   0.249328 0.523534 0.326565 0.023368
C30   C     C_R   0.185309 0.508044 0.302730 -0.151321
C31   C     C_R   0.173309 0.493613 0.220885 -0.127004
C32   C     C_R   0.227237 0.496892 0.167769 -0.039520
C33   C     C_R   0.296745 0.506459 0.194277 -0.073432
C34   C     C_R   0.303509 0.521540 0.275336 -0.064210
C35   C     C_3   0.356001 0.534611 0.338291 -0.191582
C36   C     C_3   0.286982 0.546774 0.400985 0.408063
C37   C     C_R   0.833098 0.950618 0.709941 0.120393
C38   C     C_R   0.801804 0.892771 0.702886 -0.161156
C39   C     C_R   0.710806 0.945189 0.746492 -0.092947
C40   C     C_R   0.654648 0.053396 0.794983 -0.080675
C41   C     C_R   0.690578 0.109240 0.803747 -0.157818
C42   C     C_R   0.778491 0.056393 0.757878 -0.080694
C43   C     C_3   0.845688 0.073462 0.793055 -0.328554
C44   C     C_3   0.905969 0.955956 0.743688 0.405250
H1    H     H_    0.825649 0.119273 0.866842 0.201234
C45   C     C_R   0.718244 0.555357 0.335340 -0.142264
C46   C     C_R   0.808060 0.503685 0.301206 -0.204712
C47   C     C_R   0.844437 0.456653 0.208880 0.485161
C48   C     C_R   0.787520 0.468809 0.156997 -0.186515
C49   C     C_R   0.697244 0.510682 0.193788 -0.207576
C50   C     C_R   0.666304 0.555983 0.284116 0.091048
C51   C     C_3   0.586427 0.611456 0.359162 0.397023
C52   C     C_3   0.646110 0.617115 0.419889 0.333824
C53   C     C_R   0.722223 0.584363 0.753824 0.026144
C54   C     C_R   0.804174 0.495383 0.692038 -0.199044
C55   C     C_R   0.828093 0.401888 0.678301 0.451567
C56   C     C_R   0.767697 0.399140 0.723300 -0.158972
C57   C     C_R   0.693544 0.493259 0.796525 -0.207417
C58   C     C_R   0.672879 0.583600 0.809286 0.003972
C59   C     C_3   0.646945 0.686461 0.889969 0.287339
C60   C     C_3   0.695334 0.691551 0.825074 0.300176
Zn5   Zn    Zn3+2 0.456670 0.586670 0.956580 1.055203
Zn6   Zn    Zn3+2 0.456680 0.586650 0.130080 0.998150
Zn7   Zn    Zn3+2 0.630180 0.413150 0.956570 0.984420
Zn8   Zn    Zn3+2 0.456650 0.413170 0.956580 1.042351
O14   O     O_3   0.500040 0.499910 0.999960 -0.524299
O15   O     O_R   0.384230 0.439200 0.055040 -0.628459
O16   O     O_R   0.555130 0.560630 0.884160 -0.560035
O17   O     O_R   0.384270 0.731490 0.176470 -0.676537
O18   O     O_R   0.676550 0.268320 0.884150 -0.623805
O19   O     O_R   0.555150 0.560600 0.176460 -0.587489
O20   O     O_R   0.384220 0.439220 0.884170 -0.594668
O21   O     O_R   0.676580 0.439170 0.055020 -0.664003
O22   O     O_R   0.384230 0.560650 0.884170 -0.616020
O23   O     O_R   0.384260 0.731500 0.055040 -0.582402
O24   O     O_R   0.555100 0.268330 0.884160 -0.633792
O25   O     O_R   0.384250 0.560620 0.176470 -0.667224
O26   O     O_R   0.676570 0.439190 0.884150 -0.668726
C61   C     C_R   0.359012 0.500804 0.139716 0.934093
C62   C     C_R   0.639265 0.498712 0.858651 0.828270
C63   C     C_R   0.360462 0.779894 0.140171 0.873148
C64   C     C_R   0.638671 0.220515 0.860745 0.793217
C65   C     C_R   0.639829 0.503777 0.139667 0.872382
C66   C     C_R   0.368673 0.490657 0.851401 0.892861
O27   O     O_3   0.147270 0.299464 0.770247 -0.566401
C67   C     C_3   0.175436 0.206491 0.688444 -0.223167
H2    H     H_    0.136587 0.178552 0.695798 0.175717
H3    H     H_    0.245718 0.145236 0.669115 0.187562
H4    H     H_    0.164398 0.218129 0.634418 0.195841
O28   O     O_3   0.409302 0.897529 0.116478 -0.555403
C68   C     C_3   0.483235 0.856072 0.142399 -0.263831
H5    H     H_    0.510767 0.774456 0.113865 0.169574
H6    H     H_    0.469484 0.899327 0.216005 0.108962
H7    H     H_    0.534841 0.858409 0.114926 0.201120
C69   C     C_2   0.144823 0.888453 0.209978 0.433124
H8    H     H_    0.129201 0.834551 0.198759 0.093810
O29   O     O_2   0.143946 0.907942 0.155125 -0.549005
O30   O     O_3   0.168985 0.896614 0.342234 -0.664873
C70   C     C_3   0.236075 0.880975 0.381699 -0.308547
H9    H     H_    0.235528 0.951008 0.422997 0.175428
H10   H     H_    0.301436 0.815535 0.330505 0.218816
H11   H     H_    0.224677 0.861026 0.426518 0.189692
O31   O     O_3   0.043087 0.104278 0.319112 -0.604168
C71   C     C_3   0.965686 0.111334 0.341555 -0.291619
H12   H     H_    0.922429 0.180562 0.410181 0.183891
H13   H     H_    0.979427 0.041770 0.335545 0.144441
H14   H     H_    0.929201 0.120266 0.295304 0.206726
C72   C     C_2   0.074505 0.109485 0.452152 0.430822
H15   H     H_    0.027299 0.102970 0.478822 0.118715
O32   O     O_2   0.101752 0.156737 0.502754 -0.603687
C73   C     C_2   0.100236 0.484181 0.196197 0.460617
H16   H     H_    0.036931 0.532103 0.247048 0.072979
O33   O     O_2   0.111192 0.419574 0.120474 -0.553237
C74   C     C_2   0.204861 0.501174 0.091306 0.388086
H17   H     H_    0.181936 0.456626 0.048014 0.110600
O34   O     O_2   0.209073 0.557958 0.077597 -0.594871
C75   C     C_2   0.447717 0.437949 0.299210 0.453793
H18   H     H_    0.484418 0.427210 0.343244 0.064861
O35   O     O_2   0.481392 0.371409 0.219068 -0.545929
C76   C     C_2   0.356867 0.628470 0.374512 0.349774
H19   H     H_    0.368151 0.648272 0.331303 0.135906
O36   O     O_2   0.347948 0.681769 0.453034 -0.633933
C77   C     C_2   0.324561 0.467305 0.421555 0.379257
H20   H     H_    0.359673 0.473900 0.469451 0.042415
O37   O     O_2   0.316375 0.396092 0.385663 -0.619610
C78   C     C_2   0.097538 0.725776 0.748279 0.643371
H21   H     H_    0.075191 0.768465 0.719261 0.132509
O38   O     O_2   0.044360 0.735857 0.798195 -0.604720
O39   O     O_3   0.230282 0.647287 0.481716 -0.624393
C79   C     C_3   0.164883 0.722629 0.471349 -0.121219
H22   H     H_    0.108741 0.715496 0.464750 0.207930
H23   H     H_    0.188935 0.719564 0.413899 0.137686
H24   H     H_    0.141732 0.799382 0.530849 0.186888
C80   C     C_2   0.677353 0.889010 0.752661 0.400508
H25   H     H_    0.719584 0.826244 0.758143 0.090054
O40   O     O_2   0.603804 0.910948 0.750581 -0.553513
C81   C     C_2   0.561532 0.107562 0.845272 0.589380
H26   H     H_    0.540811 0.146913 0.917028 0.012155
O41   O     O_2   0.507391 0.111063 0.806621 -0.485348
C82   C     C_2   0.870097 0.119274 0.756901 0.449531
H27   H     H_    0.880403 0.091255 0.687292 0.125820
O42   O     O_2   0.877838 0.188953 0.806045 -0.536828
C83   C     C_2   0.985519 0.903410 0.668644 0.343849
H28   H     H_    0.046831 0.889440 0.681218 0.096051
O43   O     O_2   0.980587 0.880376 0.594699 -0.642222
O44   O     O_3   0.930417 0.916868 0.796741 -0.622910
C84   C     C_3   0.866060 0.972558 0.879222 -0.260064
H29   H     H_    0.797953 0.003920 0.876914 0.135273
H30   H     H_    0.870846 0.034623 0.931824 0.174904
H31   H     H_    0.880344 0.919780 0.898861 0.217176
O45   O     O_3   0.933748 0.406348 0.171284 -0.548798
C85   C     C_3   0.974539 0.300186 0.129640 -0.068608
H32   H     H_    0.964662 0.283704 0.178134 0.124401
H33   H     H_    0.046395 0.259707 0.100727 0.204051
H34   H     H_    0.950301 0.268003 0.074376 0.158420
C86   C     C_2   0.819829 0.449012 0.070208 0.526608
H35   H     H_    0.773594 0.486364 0.044168 0.049497
O46   O     O_2   0.898076 0.394112 0.027990 -0.512759
O47   O     O_3   0.520638 0.705419 0.372441 -0.578322
C87   C     C_3   0.453053 0.773485 0.455399 -0.218394
H36   H     H_    0.455649 0.840901 0.498156 0.190657
H37   H     H_    0.455537 0.739543 0.492240 0.168224
H38   H     H_    0.388634 0.801959 0.444068 0.170713
O48   O     O_3   0.206462 0.779203 0.725026 -0.652735
C88   C     C_3   0.258272 0.769782 0.660157 -0.075123
H39   H     H_    0.304028 0.689418 0.600343 0.213774
H40   H     H_    0.295667 0.802956 0.690271 0.185249
H41   H     H_    0.213736 0.816245 0.637846 0.170874
C89   C     C_2   0.557377 0.542389 0.344251 0.280545
H42   H     H_    0.515891 0.560222 0.400279 0.122128
O49   O     O_2   0.583317 0.464028 0.270756 -0.573354
O50   O     O_3   0.631544 0.715539 0.473143 -0.598372
C90   C     C_3   0.599224 0.764675 0.565465 -0.047575
H43   H     H_    0.652565 0.727745 0.588412 0.236165
H44   H     H_    0.541096 0.766580 0.584667 0.166013
H45   H     H_    0.577481 0.845455 0.599496 0.205483
C91   C     C_2   0.663978 0.556778 0.460390 0.267639
H46   H     H_    0.730165 0.492604 0.442150 0.095605
O51   O     O_2   0.604132 0.579447 0.513563 -0.571315
O52   O     O_3   0.911982 0.314653 0.625481 -0.579394
C92   C     C_3   0.961592 0.300835 0.681927 -0.080301
H47   H     H_    0.922931 0.327648 0.747008 0.130613
H48   H     H_    0.994941 0.340454 0.694813 0.213056
H49   H     H_    0.011956 0.217707 0.648071 0.189351
C93   C     C_2   0.782506 0.299232 0.693812 0.480249
H50   H     H_    0.735844 0.296896 0.726709 0.059420
O53   O     O_2   0.845259 0.217847 0.629692 -0.566214
C94   C     C_2   0.548985 0.767397 0.930051 0.405890
H51   H     H_    0.524946 0.847813 0.971724 0.070763
O54   O     O_2   0.496184 0.744686 0.917831 -0.535213
O55   O     O_3   0.682419 0.688639 0.959969 -0.636672
C95   C     C_3   0.765147 0.599030 0.934600 -0.214292
H52   H     H_    0.811092 0.560871 0.869136 0.188493
H53   H     H_    0.755976 0.544190 0.935767 0.159508
H54   H     H_    0.797357 0.621085 0.984799 0.181145
C96   C     C_2   0.635522 0.766278 0.803259 0.329217
H55   H     H_    0.601439 0.848101 0.853313 0.060296
O56   O     O_2   0.622093 0.736461 0.731869 -0.529277
O57   O     O_3   0.769954 0.692973 0.841321 -0.618376
C97   C     C_3   0.745335 0.790684 0.914355 -0.302865
H56   H     H_    0.799682 0.780613 0.942902 0.194881
H57   H     H_    0.684867 0.831163 0.968730 0.171995
H58   H     H_    0.736066 0.839525 0.891460 0.132754
O58   O     O_3   0.385804 0.669433 0.718815 -0.603896
C98   C     C_3   0.369514 0.746569 0.806724 -0.089502
H59   H     H_    0.383210 0.717797 0.849503 0.222049
H60   H     H_    0.300669 0.815715 0.836683 0.153064
H61   H     H_    0.413818 0.770431 0.804981 0.209539
O59   O     O_3   0.450808 0.504976 0.727617 -0.564420
C99   C     C_3   0.502968 0.419650 0.639051 -0.275631
H62   H     H_    0.482435 0.365957 0.614648 0.129615
H63   H     H_    0.500956 0.444177 0.594029 0.191232
H64   H     H_    0.572267 0.377205 0.636783 0.180769
O60   O     O_3   0.418976 0.272958 0.753744 -0.524409
C100  C     C_3   0.469720 0.206983 0.662906 -0.212452
H65   H     H_    0.461272 0.250855 0.634451 0.114968
H66   H     H_    0.453416 0.150505 0.623779 0.169169
H67   H     H_    0.540200 0.163190 0.656755 0.189481
O61   O     O_3   0.319491 0.209126 0.775370 -0.560041
C101  C     C_3   0.296983 0.249494 0.866757 -0.070807
H68   H     H_    0.327075 0.184733 0.873675 0.196180
H69   H     H_    0.224482 0.295878 0.898476 0.160290
H70   H     H_    0.323314 0.295978 0.902440 0.163937
O62   O     O_3   0.072112 0.463544 0.759075 -0.558310
C102  C     C_3   0.022526 0.554579 0.845705 -0.255075
H71   H     H_    0.038347 0.610231 0.858106 0.183265
H72   H     H_    0.032506 0.538357 0.897190 0.169793
H73   H     H_    0.951719 0.591125 0.852207 0.202856
O63   O     O_3   0.295351 0.108891 0.213884 -0.557746
C103  C     C_3   0.341424 0.142126 0.268080 -0.210037
H74   H     H_    0.301949 0.194780 0.340047 0.125541
H75   H     H_    0.354929 0.185480 0.251180 0.226279
H76   H     H_    0.405890 0.076029 0.255607 0.141772

loop_
_geom_bond_atom_site_label_1
_geom_bond_atom_site_label_2
_geom_bond_distance
_ccdc_geom_bond_type
C91   O51   1.221039 D    
C38   C39   1.424858 A    
C24   C25   1.418085 A    
Zn3   O13   1.945544 S    
C82   H27   1.085466 S    
C12   C16   1.438012 A    
C36   C77   1.514002 S    
C35   C75   1.512981 S    
C85   H32   1.113115 S    
C17   O60   1.383935 S    
C29   C36   1.496126 S    
C57   C58   1.387377 A    
C33   C61   1.455391 S    
C73   H16   1.085456 S    
C69   O29   1.222101 D    
C70   H11   1.109279 S    
O23   C63   1.284041 A    
C74   O34   1.221338 D    
C96   H55   1.084576 S    
C70   H9    1.110400 S    
C97   H58   1.108882 S    
C32   C74   1.490413 S    
C47   O45   1.383527 S    
C11   C12   1.408416 A    
C9    C10   1.396720 A    
O4    C3    1.288758 A    
Zn8   O20   1.945241 S    
C93   O53   1.220893 D    
Zn1   O1    1.950395 S    
C43   H1    1.109324 S    
C19   C20   1.405130 A    
C79   H23   1.108379 S    
C77   O37   1.221350 D    
O62   C102  1.409387 S    
C59   C94   1.509020 S    
C25   C63   1.456382 S    
O15   C61   1.277006 A    
C21   C22   1.393851 A    
Zn7   O26   1.940941 S    
O52   C92   1.417089 S    
C7    C78   1.471664 S    
C78   H21   1.077847 S    
O8    C5    1.280314 A    
C57   C62   1.450809 S    
C95   H54   1.108926 S    
C68   H5    1.110058 S    
O9    C6    1.294519 A    
C19   O27   1.382115 S    
C17   C18   1.396904 A    
C55   C56   1.424495 A    
O7    C6    1.286744 A    
C99   H62   1.112896 S    
C88   H39   1.113964 S    
C36   O39   1.431223 S    
C71   H14   1.109113 S    
Zn6   O17   1.945545 S    
Zn3   O8    1.951886 S    
C67   H2    1.107977 S    
C90   H45   1.108036 S    
C95   H53   1.107616 S    
C37   C38   1.393122 A    
C79   H22   1.107515 S    
C27   O30   1.432284 S    
C28   C72   1.517154 S    
C50   C51   1.493398 S    
C21   C28   1.501872 S    
C55   O52   1.379159 S    
C102  H72   1.113713 S    
C80   H25   1.081364 S    
C48   C86   1.494359 S    
O47   C87   1.413329 S    
C92   H47   1.116033 S    
C51   O47   1.418540 S    
C35   C76   1.509612 S    
O24   C64   1.275364 A    
Zn5   O22   1.943597 S    
C52   C91   1.530245 S    
O20   C66   1.276508 A    
C103  H75   1.109295 S    
C91   H46   1.084766 S    
C42   C43   1.495659 S    
C82   O42   1.220466 D    
Zn8   O24   1.954656 S    
C44   O44   1.428297 S    
C101  H68   1.109131 S    
C85   H33   1.109298 S    
C51   C52   1.569617 S    
O22   C66   1.295694 A    
Zn6   O14   1.953030 S    
C60   C96   1.518896 S    
O21   C65   1.281315 A    
C69   H8    1.085211 S    
Zn7   O14   1.976832 S    
C8    O48   1.393786 S    
C1    C38   1.470570 S    
C95   H52   1.108032 S    
O18   C64   1.291988 A    
C37   C42   1.381605 A    
C86   O46   1.220368 D    
O2    C1    1.296237 A    
C102  H73   1.109276 S    
C20   O62   1.383856 S    
C56   C57   1.416487 A    
C41   C64   1.450311 S    
C49   C50   1.385048 A    
C30   C31   1.425912 A    
O45   C85   1.413218 S    
C79   H24   1.104935 S    
C77   H20   1.085289 S    
Zn4   O2    1.954606 S    
O61   C101  1.409669 S    
C93   H50   1.083185 S    
C44   C83   1.504701 S    
C60   O57   1.420929 S    
C22   C23   1.415255 A    
O63   C103  1.410211 S    
O55   C95   1.416240 S    
C75   O35   1.221923 D    
C56   C93   1.492847 S    
C98   H61   1.109058 S    
C6    C16   1.507352 S    
C41   C42   1.385606 A    
C59   C60   1.556072 S    
C29   C34   1.348700 A    
C100  H67   1.109458 S    
O6    C5    1.293497 A    
C34   C35   1.510941 S    
C43   C44   1.540804 S    
C39   C80   1.482534 S    
C18   C19   1.401340 A    
C83   O43   1.221157 D    
O48   C88   1.413012 S    
C98   H60   1.112614 S    
C26   C27   1.520164 S    
C90   H43   1.109970 S    
O58   C98   1.409647 S    
Zn3   O5    1.944945 S    
O10   C3    1.290031 A    
C31   C73   1.486759 S    
C76   O36   1.220192 D    
C14   C15   1.413848 A    
C45   C52   1.490528 S    
C70   H10   1.106094 S    
O28   C68   1.416059 S    
C87   H38   1.108027 S    
C92   H49   1.106449 S    
C100  H66   1.113431 S    
C33   C34   1.387633 A    
C81   H26   1.085189 S    
C14   C17   1.421231 A    
C67   H3    1.111328 S    
C8    C9    1.411681 A    
Zn7   O18   1.939571 S    
C15   C20   1.428431 A    
C7    C8    1.413959 A    
Zn4   O7    1.945492 S    
O25   C61   1.279267 A    
C71   H12   1.111107 S    
O19   C65   1.295710 A    
C2    C22   1.459392 S    
C49   C65   1.460427 S    
C87   H36   1.109230 S    
Zn7   O21   1.939949 S    
C27   C69   1.515454 S    
C28   O31   1.422614 S    
C23   C24   1.415870 A    
C99   H63   1.113387 S    
Zn8   O14   1.946921 S    
C9    O58   1.381400 S    
Zn8   O15   1.947936 S    
C101  H69   1.112954 S    
C72   H15   1.084922 S    
C85   H34   1.112487 S    
C59   O55   1.432899 S    
Zn2   O1    1.976683 S    
Zn1   O9    1.943702 S    
C39   C40   1.414279 A    
C43   C82   1.509267 S    
Zn6   O25   1.944797 S    
C74   H17   1.080680 S    
Zn2   O6    1.940050 S    
C53   C58   1.376908 A    
Zn5   O16   1.954121 S    
Zn2   O12   1.939571 S    
C35   C36   1.570310 S    
Zn5   O23   1.946886 S    
O39   C79   1.419547 S    
C76   H19   1.079694 S    
C103  H76   1.111651 S    
O50   C90   1.407334 S    
C78   O38   1.221563 D    
C94   H51   1.085070 S    
C29   C30   1.370548 A    
C84   H29   1.107553 S    
C90   H44   1.109634 S    
C24   O28   1.382189 S    
C102  H71   1.112469 S    
Zn1   O3    1.946840 S    
C81   O41   1.220285 D    
C84   H31   1.108723 S    
Zn2   O4    1.941046 S    
C27   C28   1.557013 S    
O59   C99   1.408779 S    
C54   C55   1.417668 A    
Zn3   O1    1.953029 S    
C73   O33   1.220268 D    
C23   O63   1.383175 S    
C103  H74   1.112610 S    
O26   C62   1.284124 A    
C10   O59   1.383927 S    
C86   H35   1.083972 S    
C75   H18   1.085090 S    
Zn1   O10   1.954221 S    
C37   C44   1.508357 S    
C97   H57   1.112500 S    
C40   C81   1.482822 S    
C45   C50   1.342743 A    
O3    C2    1.280156 A    
C68   H7    1.108447 S    
C15   C16   1.428558 A    
Zn4   O11   1.947894 S    
C84   H30   1.109855 S    
C97   H56   1.109083 S    
C96   O56   1.221567 D    
C21   C26   1.377500 A    
Zn6   O19   1.951931 S    
C46   C47   1.425716 A    
Zn5   O14   1.950543 S    
C58   C59   1.512207 S    
O5    C4    1.269663 A    
C40   C41   1.420655 A    
C13   C14   1.415805 A    
O11   C4    1.283718 A    
C87   H37   1.112183 S    
C31   C32   1.437442 A    
Zn4   O1    1.946921 S    
C51   C89   1.512066 S    
C13   C66   1.495058 S    
C11   C13   1.403579 A    
C100  H65   1.112402 S    
O13   C2    1.281229 A    
C68   H6    1.116455 S    
C48   C49   1.431371 A    
C67   H4    1.112249 S    
C80   O40   1.219465 D    
O27   C67   1.410640 S    
O17   C63   1.275543 A    
C83   H28   1.084113 S    
C88   H40   1.109071 S    
C71   H13   1.112927 S    
O44   C84   1.416172 S    
O16   C62   1.285271 A    
C5    C46   1.451712 S    
C45   C46   1.378891 A    
O57   C97   1.414382 S    
C7    C12   1.425193 A    
C99   H64   1.109518 S    
C53   C54   1.396826 A    
O12   C1    1.282029 A    
C32   C33   1.433130 A    
C25   C26   1.395722 A    
C101  H70   1.113833 S    
O60   C100  1.408898 S    
C72   O32   1.220443 D    
O31   C71   1.413759 S    
C3    C54   1.465546 S    
C92   H48   1.109889 S    
C18   O61   1.381895 S    
C4    C30   1.450939 S    
C89   H42   1.081383 S    
C94   O54   1.217760 D    
C89   O49   1.221333 D    
C98   H59   1.113044 S    
C88   H41   1.106709 S    
C53   C60   1.508998 S    
O30   C70   1.413848 S    
C52   O50   1.425930 S    
C10   C11   1.415104 A    
C47   C48   1.428613 A    
