data_mof_unit_54788.cif
_audit_creation_date              2013-03-05T15:57:39-0500
_audit_creation_method            fapswitch 2.2
_symmetry_space_group_name_H-M    P1
_symmetry_Int_Tables_number       1
_space_group_crystal_system       triclinic
_cell_length_a                    19.247933
_cell_length_b                    18.021846
_cell_length_c                    12.740887
_cell_angle_alpha                 92.252865
_cell_angle_beta                  100.634755
_cell_angle_gamma                 91.327463
_cell_volume                      4338.24758699

loop_
_atom_site_label
_atom_site_type_symbol
_atom_site_description
_atom_site_fract_x
_atom_site_fract_y
_atom_site_fract_z
_atom_type_partial_charge
O1    O     O_R   0.448200 0.076800 0.373930 -0.557163
O2    O     O_R   0.448200 0.923200 0.373930 -0.566356
O3    O     O_R   0.948200 0.576800 0.373930 -0.557156
O4    O     O_R   0.948200 0.423200 0.373930 -0.566356
O5    O     O_R   0.414750 0.076790 0.542400 -0.626283
O6    O     O_R   0.414750 0.923210 0.542400 -0.627090
O7    O     O_R   0.914750 0.576790 0.542400 -0.626290
O8    O     O_R   0.914750 0.423210 0.542400 -0.627088
C1    C     C_R   0.411855 0.102467 0.445552 0.881060
C2    C     C_R   0.408919 0.898332 0.441884 0.850078
C3    C     C_R   0.911855 0.602467 0.445552 0.881051
C4    C     C_R   0.908918 0.398333 0.441885 0.850073
Zn1   Zn    Zn3+2 0.522330 0.000000 0.387520 1.045466
Zn2   Zn    Zn3+2 0.022330 0.500000 0.387520 1.045498
Zn3   Zn    Zn3+2 0.477660 1.000000 0.612480 1.020749
Zn4   Zn    Zn3+2 0.977660 0.500000 0.612480 1.020748
O9    O     O_R   0.585240 0.923200 0.457600 -0.621085
O10   O     O_R   0.585240 0.076800 0.457600 -0.620084
O11   O     O_R   0.085240 0.423200 0.457600 -0.621072
O12   O     O_R   0.085240 0.576800 0.457600 -0.620040
O13   O     O_R   0.551780 0.923190 0.626070 -0.586754
O14   O     O_R   0.551780 0.076810 0.626070 -0.534633
O15   O     O_R   0.051780 0.423190 0.626070 -0.586756
O16   O     O_R   0.051780 0.576810 0.626070 -0.534638
C5    C     C_R   0.587152 0.895701 0.553606 0.896306
C6    C     C_R   0.590337 0.102882 0.557318 0.893300
C7    C     C_R   0.087152 0.395700 0.553606 0.896304
C8    C     C_R   0.090337 0.602883 0.557318 0.893311
C9    C     C_R   0.766990 0.139104 0.655755 0.158884
C10   C     C_R   0.717004 0.770590 0.714463 0.194433
C11   C     C_R   0.266987 0.639104 0.655757 0.158888
C12   C     C_R   0.217005 0.270591 0.714464 0.194433
C13   C     C_R   0.645029 0.162714 0.591098 -0.226298
C14   C     C_R   0.636394 0.834256 0.581555 -0.272509
C15   C     C_R   0.145027 0.662716 0.591102 -0.226338
C16   C     C_R   0.136393 0.334255 0.581555 -0.272518
C17   C     C_R   0.300307 0.875334 0.310316 -0.265716
C18   C     C_R   0.336754 0.168091 0.304484 -0.229976
C19   C     C_R   0.800302 0.375344 0.310327 -0.265719
C20   C     C_R   0.836751 0.668087 0.304485 -0.229975
C21   C     C_R   0.237934 0.836401 0.265563 0.252684
C22   C     C_R   0.291418 0.224134 0.268822 0.263816
C23   C     C_R   0.737929 0.336409 0.265573 0.252714
C24   C     C_R   0.791415 0.724132 0.268824 0.263836
C25   C     C_R   0.214861 0.776229 0.319073 0.197713
C26   C     C_R   0.263645 0.267735 0.344195 0.209615
C27   C     C_R   0.714862 0.276231 0.319076 0.197699
C28   C     C_R   0.763647 0.767735 0.344198 0.209603
C29   C     C_R   0.257111 0.755016 0.416898 -0.022418
C30   C     C_R   0.278315 0.250429 0.453760 -0.039885
C31   C     C_R   0.757114 0.255017 0.416898 -0.022405
C32   C     C_R   0.778316 0.750429 0.453762 -0.039893
C33   C     C_R   0.327307 0.785502 0.447935 0.009272
C34   C     C_R   0.338933 0.209685 0.488877 0.008438
C35   C     C_R   0.827309 0.285504 0.447935 0.009294
C36   C     C_R   0.838934 0.709685 0.488878 0.008449
C37   C     C_R   0.732722 0.208073 0.491583 0.056835
C38   C     C_R   0.737353 0.774380 0.530500 0.053921
C39   C     C_R   0.232719 0.708075 0.491588 0.056862
C40   C     C_R   0.237351 0.274378 0.530499 0.053938
C41   C     C_R   0.784386 0.168775 0.561973 -0.084057
C42   C     C_R   0.763791 0.764578 0.640975 -0.054620
C43   C     C_R   0.284383 0.668775 0.561976 -0.084083
C44   C     C_R   0.263791 0.264579 0.640975 -0.054627
C45   C     C_R   0.355109 0.677190 0.550556 -0.037506
C46   C     C_R   0.335064 0.246257 0.673549 -0.060206
C47   C     C_R   0.855113 0.177191 0.550555 -0.037503
C48   C     C_R   0.835063 0.746254 0.673551 -0.060214
C49   C     C_R   0.375220 0.747594 0.524538 -0.112988
C50   C     C_R   0.373381 0.220971 0.596531 -0.024888
C51   C     C_R   0.875222 0.247595 0.524537 -0.112995
C52   C     C_R   0.873382 0.720970 0.596532 -0.024889
C53   C     C_R   0.662048 0.205746 0.509795 -0.090685
C54   C     C_R   0.668714 0.802013 0.501974 -0.064531
C55   C     C_R   0.162046 0.705752 0.509803 -0.090610
C56   C     C_R   0.168712 0.302010 0.501974 -0.064494
C57   C     C_R   0.699301 0.150993 0.677446 0.278664
C58   C     C_R   0.652246 0.805563 0.683970 0.214695
C59   C     C_R   0.199299 0.650994 0.677449 0.278659
C60   C     C_R   0.152247 0.305564 0.683971 0.214691
C61   C     C_R   0.346397 0.850256 0.398798 -0.136563
C62   C     C_R   0.363683 0.162446 0.413494 -0.174836
C63   C     C_R   0.846396 0.350260 0.398799 -0.136556
C64   C     C_R   0.863682 0.662445 0.413494 -0.174831
H1    H     H_    0.313507 0.925168 0.273713 0.247089
H2    H     H_    0.354535 0.132108 0.246118 0.273765
H3    H     H_    0.813500 0.425181 0.273732 0.247087
H4    H     H_    0.854529 0.632102 0.246120 0.273764
C65   C     C_R   0.645059 0.989915 0.138924 0.273589
C66   C     C_R   0.145058 0.489916 0.138924 0.273538
N1    N     N_R   0.552340 0.000000 0.237260 -0.197468
N2    N     N_R   0.052340 0.500000 0.237260 -0.197451
C67   C     C_R   0.377240 0.997730 0.758333 -0.052607
C68   C     C_R   0.877240 0.497731 0.758332 -0.052604
C69   C     C_R   0.349440 0.979191 0.848162 0.261286
C70   C     C_R   0.849440 0.479199 0.848163 0.261288
C71   C     C_R   0.396607 0.967399 0.943412 -0.124915
C72   C     C_R   0.896606 0.467407 0.943413 -0.124927
C73   C     C_R   0.470210 0.977067 0.950133 -0.019376
C74   C     C_R   0.970210 0.477070 0.950133 -0.019375
C75   C     C_R   0.495122 0.986613 0.854429 0.127745
C76   C     C_R   0.995122 0.486614 0.854429 0.127745
C77   C     C_R   0.520433 0.980900 0.048159 -0.093266
C78   C     C_R   0.020432 0.480902 0.048160 -0.093273
C79   C     C_R   0.593592 0.973701 0.045663 -0.079240
C80   C     C_R   0.093592 0.473701 0.045663 -0.079225
C81   C     C_R   0.613225 0.959024 0.947185 -0.103250
C82   C     C_R   0.113224 0.459024 0.947185 -0.103251
C83   C     C_R   0.568651 0.983308 0.857145 0.309319
C84   C     C_R   0.068650 0.483308 0.857146 0.309314
C85   C     C_R   0.502138 0.999694 0.147317 0.412541
C86   C     C_R   0.002137 0.499694 0.147319 0.412548
C87   C     C_R   0.622376 0.997779 0.235921 -0.010839
C88   C     C_R   0.122376 0.497784 0.235919 -0.010836
N3    N     N_R   0.448170 0.000000 0.762060 -0.153742
N4    N     N_R   0.948170 0.500000 0.762060 -0.153743
H5    H     H_    0.342493 0.005496 0.682834 0.186730
H6    H     H_    0.842493 0.505498 0.682833 0.186734
H7    H     H_    0.375460 0.948860 0.010787 0.224238
H8    H     H_    0.875456 0.448868 0.010786 0.224233
N5    N     N_R   0.693766 0.183114 0.780807 0.281892
O17   O     O_R   0.653632 0.239594 0.787723 -0.271740
O18   O     O_R   0.732012 0.160245 0.867993 -0.194897
N6    N     N_R   0.595373 0.785786 0.736141 0.232319
O19   O     O_R   0.565967 0.719787 0.715607 -0.329093
O20   O     O_R   0.586472 0.822562 0.821917 -0.372302
N7    N     N_R   0.193765 0.683116 0.780811 0.281894
O21   O     O_R   0.153630 0.739594 0.787729 -0.271734
O22   O     O_R   0.232013 0.660247 0.867996 -0.194898
N8    N     N_R   0.095374 0.285786 0.736143 0.232319
O23   O     O_R   0.065969 0.219786 0.715610 -0.329089
O24   O     O_R   0.086472 0.322562 0.821918 -0.372301
C89   C     C_1   0.683870 0.935910 0.938588 0.508256
N9    N     N_1   0.740242 0.918057 0.931378 -0.029163
C90   C     C_1   0.183869 0.435911 0.938588 0.508271
N10   N     N_1   0.240241 0.418058 0.931377 -0.029159
N11   N     N_R   0.716444 0.012239 0.132949 0.192456
O25   O     O_R   0.727854 0.070299 0.080220 -0.267244
O26   O     O_R   0.769986 0.979008 0.186666 -0.268569
N12   N     N_R   0.216444 0.512234 0.132951 0.192423
O27   O     O_R   0.227859 0.570300 0.080237 -0.267302
O28   O     O_R   0.269983 0.478997 0.186665 -0.268588
N13   N     N_R   0.436926 0.034123 0.152757 0.195514
O29   O     O_R   0.389272 0.000137 0.194545 -0.420486
O30   O     O_R   0.421632 0.095236 0.103540 -0.335893
N14   N     N_R   0.936925 0.534120 0.152761 0.195518
O31   O     O_R   0.889272 0.500132 0.194547 -0.420480
O32   O     O_R   0.921630 0.595236 0.103549 -0.335889
N15   N     N_R   0.274194 0.971188 0.842268 0.254068
O33   O     O_R   0.230750 0.980124 0.752760 -0.318887
O34   O     O_R   0.248349 0.955177 0.926401 -0.235340
N16   N     N_R   0.774194 0.471205 0.842273 0.254092
O35   O     O_R   0.730754 0.480020 0.752729 -0.318959
O36   O     O_R   0.748345 0.455338 0.926446 -0.235263
N17   N     N_R   0.600574 0.037481 0.804177 0.215983
O37   O     O_R   0.587783 0.106288 0.826731 -0.307109
O38   O     O_R   0.655931 0.021494 0.763393 -0.423126
N18   N     N_R   0.100574 0.537481 0.804178 0.215981
O39   O     O_R   0.087782 0.606288 0.826731 -0.307118
O40   O     O_R   0.155931 0.521494 0.763393 -0.423125
C91   C     C_1   0.408738 0.624625 0.589392 0.346666
N19   N     N_1   0.451609 0.582618 0.620020 -0.051318
C92   C     C_1   0.370584 0.258700 0.784079 0.304371
N20   N     N_1   0.398970 0.268592 0.872029 -0.023830
C93   C     C_1   0.908742 0.124626 0.589392 0.346665
N21   N     N_1   0.951614 0.082620 0.620021 -0.051313
C94   C     C_1   0.870582 0.758695 0.784081 0.304367
N22   N     N_1   0.898968 0.768586 0.872032 -0.023830
N23   N     N_R   0.820768 0.115203 0.740087 0.231322
O41   O     O_R   0.867022 0.163224 0.793161 -0.304365
O42   O     O_R   0.815711 0.049071 0.775906 -0.288005
N24   N     N_R   0.729392 0.730484 0.811350 0.241667
O43   O     O_R   0.749731 0.662135 0.809474 -0.299139
O44   O     O_R   0.713673 0.759059 0.898924 -0.250591
N25   N     N_R   0.320765 0.615201 0.740088 0.231324
O45   O     O_R   0.367020 0.663221 0.793163 -0.304362
O46   O     O_R   0.315708 0.549068 0.775903 -0.288009
N26   N     N_R   0.229394 0.230487 0.811353 0.241667
O47   O     O_R   0.249736 0.162139 0.809480 -0.299105
O48   O     O_R   0.213673 0.259063 0.898925 -0.250595
C95   C     C_1   0.609169 0.257346 0.466018 0.292052
N27   N     N_1   0.566452 0.298845 0.432738 -0.102578
C96   C     C_1   0.622744 0.779242 0.401807 0.267433
N28   N     N_1   0.585342 0.760663 0.322722 -0.103953
C97   C     C_1   0.109171 0.757359 0.466038 0.292099
N29   N     N_1   0.066458 0.798865 0.432766 -0.102580
C98   C     C_1   0.122740 0.279236 0.401811 0.267436
N30   N     N_1   0.085337 0.260655 0.322728 -0.103951
N31   N     N_R   0.652852 0.233299 0.269187 0.226180
O49   O     O_R   0.654072 0.161307 0.265386 -0.392619
O50   O     O_R   0.596454 0.265477 0.221720 -0.283804
N32   N     N_R   0.736402 0.838307 0.315571 0.211531
O51   O     O_R   0.688634 0.845036 0.230114 -0.375313
O52   O     O_R   0.768877 0.896887 0.365877 -0.359941
N33   N     N_R   0.152835 0.733317 0.269197 0.226209
O53   O     O_R   0.153999 0.661333 0.265498 -0.392732
O54   O     O_R   0.096454 0.765512 0.221713 -0.283777
N34   N     N_R   0.236391 0.338302 0.315565 0.211559
O55   O     O_R   0.188624 0.345024 0.230105 -0.375284
O56   O     O_R   0.268834 0.396884 0.365896 -0.360018
N35   N     N_R   0.199544 0.857807 0.164192 0.258567
O57   O     O_R   0.193134 0.927829 0.144184 -0.276619
O58   O     O_R   0.182394 0.808386 0.085838 -0.207234
N36   N     N_R   0.277299 0.238059 0.156967 0.263571
O59   O     O_R   0.265305 0.182287 0.087386 -0.237926
O60   O     O_R   0.292113 0.303244 0.124959 -0.248534
N37   N     N_R   0.699535 0.357819 0.164207 0.258547
O61   O     O_R   0.693145 0.427840 0.144193 -0.276638
O62   O     O_R   0.682365 0.308398 0.085859 -0.207233
N38   N     N_R   0.777294 0.738056 0.156968 0.263568
O63   O     O_R   0.765297 0.682283 0.087389 -0.237914
O64   O     O_R   0.792112 0.803238 0.124957 -0.248527
C99   C     C_1   0.419916 0.787393 0.612550 0.277765
N39   N     N_1   0.452526 0.819094 0.686664 -0.058946
C100  C     C_1   0.449685 0.223081 0.624163 0.225832
N40   N     N_1   0.510548 0.227128 0.648075 -0.105889
C101  C     C_1   0.919918 0.287394 0.612550 0.277772
N41   N     N_1   0.952527 0.319095 0.686665 -0.058941
C102  C     C_1   0.949685 0.723079 0.624166 0.225835
N42   N     N_1   0.010548 0.727127 0.648078 -0.105896
C103  C     C_1   0.672483 0.013495 0.333516 0.529495
N43   N     N_1   0.712834 0.027303 0.411565 -0.142972
C104  C     C_1   0.172484 0.513510 0.333509 0.529546
N44   N     N_1   0.212837 0.527324 0.411554 -0.142967

loop_
_geom_bond_atom_site_label_1
_geom_bond_atom_site_label_2
_geom_bond_distance
_ccdc_geom_bond_type
C25   N33   1.437276 S    
C73   C77   1.429548 A    
C43   C45   1.400962 A    
C38   C42   1.425025 A    
C93   N21   1.157420 T    
N17   O38   1.301983 A    
C81   C83   1.391849 A    
N23   O41   1.301888 A    
C20   C64   1.398505 A    
C22   N36   1.433939 S    
C104  N44   1.157814 T    
O10   C6    1.322740 A    
C19   H3    1.074564 S    
C100  N40   1.154591 T    
C33   C49   1.420986 A    
C78   C80   1.423195 A    
N26   O47   1.301764 A    
C10   N24   1.439643 S    
C90   N10   1.157556 T    
N25   O46   1.300750 A    
C11   N25   1.434578 S    
C99   N39   1.155092 T    
O7    C3    1.326852 A    
C79   C81   1.393042 A    
C15   C55   1.399423 A    
C30   C34   1.404828 A    
Zn1   O10   1.898759 S    
C18   H2    1.075609 S    
C17   C21   1.391260 A    
C50   C100  1.444979 S    
C17   H1    1.074566 S    
N12   O28   1.299853 A    
C18   C22   1.385143 A    
N15   O34   1.301631 A    
C22   C26   1.405355 A    
C65   N11   1.439089 S    
C45   C49   1.388252 A    
N26   O48   1.299352 A    
C26   N34   1.422096 S    
C75   C83   1.412002 A    
N13   O29   1.296063 A    
C70   N16   1.439946 S    
C74   C78   1.429546 A    
C33   C61   1.418191 A    
C67   N3    1.356902 A    
C37   C53   1.421524 A    
C37   C41   1.431140 A    
N31   O50   1.301876 A    
O2    Zn1   1.944229 S    
O13   C5    1.331562 A    
C16   C56   1.398548 A    
O6    Zn3   1.898635 S    
C32   C36   1.404825 A    
C86   N14   1.424823 S    
Zn3   O14   1.944216 S    
C92   N20   1.157493 T    
C8    C15   1.483188 S    
N2    C88   1.352797 A    
C36   C52   1.413665 A    
C70   C72   1.401664 A    
N34   O55   1.300616 A    
C31   C37   1.432275 A    
O15   C7    1.331562 A    
C88   C104  1.439980 S    
O4    C4    1.333619 A    
O11   C7    1.332325 A    
C31   C35   1.426562 A    
C84   N18   1.401145 S    
C85   N13   1.424824 S    
C5    C14   1.485398 S    
C47   C93   1.449631 S    
O8    Zn4   1.898635 S    
Zn1   N1    2.099268 S    
C21   N35   1.436349 S    
N18   O40   1.301983 A    
N35   O58   1.301427 A    
C12   N26   1.439644 S    
C55   C97   1.444604 S    
C67   H5    1.081504 S    
C18   C62   1.398505 A    
C11   C59   1.400328 A    
Zn4   N4    2.086498 S    
C71   C73   1.409738 A    
N24   O44   1.299353 A    
C26   C30   1.420748 A    
C36   C64   1.413349 A    
N14   O32   1.301574 A    
C9    C41   1.419631 A    
C60   N8    1.427005 S    
C23   N37   1.436335 S    
N37   O61   1.301343 A    
C11   C43   1.419631 A    
C57   N5    1.440637 S    
N12   O27   1.301340 A    
C12   C44   1.416738 A    
C82   C90   1.453306 S    
C16   C60   1.405899 A    
C102  N42   1.154590 T    
C78   C86   1.403884 A    
C68   N4    1.356902 A    
N2    C86   1.355533 A    
C19   C23   1.391269 A    
C54   C96   1.450945 S    
O12   C8    1.322748 A    
C101  N41   1.155092 T    
C95   N27   1.157547 T    
C40   C56   1.411750 A    
N1    C87   1.352794 A    
C4    C63   1.473320 S    
C44   C46   1.408855 A    
C27   N31   1.437286 S    
C17   C61   1.397016 A    
N8    O24   1.296298 A    
C96   N28   1.157690 T    
N7    O22   1.301525 A    
O5    C1    1.326855 A    
C103  N43   1.157820 T    
Zn2   O12   1.898759 S    
C12   C60   1.406686 A    
C24   N38   1.433941 S    
C53   C95   1.444604 S    
C41   C47   1.400966 A    
C6    C13   1.483185 S    
C66   N12   1.439075 S    
N25   O45   1.301889 A    
C34   C50   1.413665 A    
C65   C87   1.387877 A    
C28   C32   1.420739 A    
C48   C52   1.400748 A    
O5    Zn3   1.988565 S    
C87   C103  1.439988 S    
C74   C76   1.405280 A    
C25   C29   1.427836 A    
O1    C1    1.324191 A    
C77   C79   1.423189 A    
N16   O35   1.301629 A    
C68   C70   1.398434 A    
N11   O26   1.299858 A    
Zn2   N2    2.099268 S    
N5    O17   1.301946 A    
C56   C98   1.450939 S    
C32   C38   1.425141 A    
C14   C54   1.398550 A    
C69   N15   1.439958 S    
C13   C53   1.399429 A    
O7    Zn4   1.988565 S    
C73   C75   1.405280 A    
N16   O36   1.301496 A    
Zn4   O15   2.000167 S    
N38   O64   1.301039 A    
C10   C42   1.416736 A    
C89   N9    1.157557 T    
C75   N3    1.378334 A    
Zn3   N3    2.086498 S    
C76   C84   1.412000 A    
O1    Zn1   2.000178 S    
N1    C85   1.355539 A    
C35   C63   1.418188 A    
N7    O21   1.301944 A    
O2    C2    1.333620 A    
C39   C55   1.421525 A    
C94   N22   1.157495 T    
N5    O18   1.301525 A    
C58   N6    1.427007 S    
N24   O43   1.301765 A    
C38   C54   1.411747 A    
N6    O20   1.296299 A    
N14   O31   1.296062 A    
N23   O42   1.300749 A    
N13   O30   1.301577 A    
C52   C102  1.444977 S    
C59   N7    1.440636 S    
C34   C62   1.413348 A    
Zn2   O11   1.988695 S    
O16   C8    1.339774 A    
N36   O60   1.301037 A    
C29   C39   1.432280 A    
O6    C2    1.324070 A    
C27   C31   1.427814 A    
C69   C71   1.401673 A    
C65   C79   1.415433 A    
C72   H8    1.076760 S    
C77   C85   1.403883 A    
O3    Zn2   2.000178 S    
C3    C64   1.461625 S    
C46   C50   1.400747 A    
N11   O25   1.301355 A    
C1    C62   1.461629 S    
C2    C61   1.473339 S    
C39   C43   1.431139 A    
C51   C101  1.436710 S    
N35   O57   1.301361 A    
Zn1   O9    1.988695 S    
C40   C44   1.425026 A    
C7    C16   1.485398 S    
C30   C40   1.425147 A    
N32   O51   1.300620 A    
C20   H4    1.075611 S    
C49   C99   1.436710 S    
N8    O23   1.301246 A    
O9    C5    1.332324 A    
C98   N30   1.157687 T    
C81   C89   1.453306 S    
C91   N19   1.157420 T    
N15   O33   1.301697 A    
C14   C58   1.405899 A    
C68   H6    1.081504 S    
C13   C57   1.396593 A    
C97   N29   1.157549 T    
N18   O39   1.301191 A    
Zn3   O13   2.000167 S    
C80   C82   1.393039 A    
C29   C33   1.426574 A    
C15   C59   1.396593 A    
C71   H7    1.076761 S    
C82   C84   1.391846 A    
C46   C92   1.453809 S    
C47   C51   1.388257 A    
C42   C48   1.408855 A    
C66   C88   1.387861 A    
C76   N4    1.378332 A    
O4    Zn2   1.944229 S    
N31   O49   1.297343 A    
C83   N17   1.401142 S    
C72   C74   1.409739 A    
Zn4   O16   1.944216 S    
C28   N32   1.422096 S    
O3    C3    1.324190 A    
C66   C80   1.415431 A    
C19   C63   1.397015 A    
N33   O53   1.297154 A    
C10   C58   1.406686 A    
C48   C94   1.453808 S    
C24   C28   1.405354 A    
C20   C24   1.385142 A    
C9    C57   1.400334 A    
N36   O59   1.301205 A    
C67   C69   1.398443 A    
N38   O63   1.301205 A    
O14   C6    1.339778 A    
C45   C91   1.449628 S    
N17   O37   1.301189 A    
N37   O62   1.301402 A    
C21   C25   1.409097 A    
N34   O56   1.297772 A    
C9    N23   1.434581 S    
C23   C27   1.409089 A    
C35   C51   1.420991 A    
O8    C4    1.324062 A    
N32   O52   1.297854 A    
N6    O19   1.301247 A    
N33   O54   1.301852 A    
