data_mof_unit_27796.cif
_audit_creation_date              2012-12-10T16:54:32-0500
_audit_creation_method            fapswitch 2.2
_symmetry_space_group_name_H-M    P1
_symmetry_Int_Tables_number       1
_space_group_crystal_system       triclinic
_cell_length_a                    14.976523
_cell_length_b                    10.912196
_cell_length_c                    9.693535
_cell_angle_alpha                 89.380165
_cell_angle_beta                  89.894588
_cell_angle_gamma                 90.118707
_cell_volume                      1584.08411703

loop_
_atom_site_label
_atom_site_type_symbol
_atom_type_description
_atom_site_fract_x
_atom_site_fract_y
_atom_site_fract_z
_atom_type_partial_charge
C1    C     C_R   0.497353 0.265224 0.500901 0.868343
C2    C     C_R   0.906782 0.610866 0.483346 0.137736
C3    C     C_R   0.952528 0.276561 0.522205 -0.291594
C4    C     C_R   0.045861 0.274602 0.517092 0.456679
C5    C     C_R   0.093711 0.386172 0.508628 0.001503
C6    C     C_R   0.047002 0.498370 0.495976 -0.000602
C7    C     C_R   0.093954 0.610534 0.483821 0.137483
C8    C     C_R   0.047194 0.721111 0.471223 -0.205743
C9    C     C_R   0.954093 0.721286 0.470587 -0.207747
C10   C     C_R   0.187081 0.388493 0.512806 -0.240659
C11   C     C_R   0.232753 0.499671 0.500044 -0.054625
C12   C     C_R   0.329019 0.500088 0.500112 0.806381
C13   C     C_R   0.186993 0.610153 0.484845 -0.231753
C14   C     C_2   0.465975 0.933873 0.392502 0.463167
C15   C     C_2   0.502282 0.867370 0.496149 -0.400710
C16   C     C_2   0.473879 0.068795 0.390908 -0.253437
C17   C     C_2   0.489403 0.133014 0.505346 -0.384247
C18   C     C_2   0.445067 0.434358 0.923075 -0.060490
C19   C     C_2   0.447693 0.430388 0.078759 -0.074756
C20   C     C_R   0.498720 0.734819 0.499051 0.885224
C21   C     C_R   0.671039 0.500088 0.499836 0.798906
C22   C     C_R   0.813625 0.610394 0.484134 -0.252562
C23   C     C_R   0.767412 0.499773 0.499302 -0.038713
C24   C     C_R   0.812915 0.388721 0.512883 -0.212221
C25   C     C_R   0.906074 0.387334 0.510679 0.038785
C26   C     C_R   0.953317 0.498768 0.496254 0.053648
Cu1   Cu    Cu3+1 0.500020 0.500020 0.638630 0.935216
Cu2   Cu    Cu3+1 0.499980 0.499980 0.361370 0.944801
H1    H     H_    0.776909 0.695607 0.473842 0.120824
H2    H     H_    0.540075 0.909008 0.578533 0.109097
H3    H     H_    0.463308 0.117131 0.293969 0.163980
H4    H     H_    0.491884 0.089886 0.606493 0.153243
H5    H     H_    0.395229 0.378317 0.872599 0.154719
H6    H     H_    0.548824 0.547826 0.893309 0.195667
H7    H     H_    0.402740 0.367012 0.130945 0.150870
H8    H     H_    0.539119 0.562414 0.105076 0.192366
H9    H     H_    0.775616 0.303834 0.524048 0.125594
H10   H     H_    0.916414 0.190820 0.533431 0.158685
H11   H     H_    0.224860 0.304428 0.524855 0.156059
H12   H     H_    0.223999 0.695401 0.474749 0.139838
H13   H     H_    0.082832 0.807304 0.462645 0.155402
H14   H     H_    0.918982 0.807643 0.461031 0.137478
N1    N     N_2   0.499020 0.498660 0.846910 -0.282311
N2    N     N_2   0.499000 0.498630 0.153040 -0.287714
O1    O     O_R   0.500020 0.321960 0.617040 -0.579200
O2    O     O_R   0.499980 0.321920 0.382900 -0.574727
O3    O     O_R   0.370270 0.499990 0.617090 -0.576468
O4    O     O_R   0.370240 0.499950 0.382940 -0.573868
O5    O     O_R   0.500020 0.678080 0.617100 -0.588044
O6    O     O_R   0.499980 0.678040 0.382960 -0.551112
O7    O     O_R   0.629760 0.500050 0.617060 -0.574980
O8    O     O_R   0.629730 0.500010 0.382910 -0.575700
O9    O     O_3   0.089168 0.163127 0.529978 -0.613538
C27   C     C_3   0.115616 0.121590 0.398112 0.043051
H15   H     H_    0.169710 0.053432 0.414420 0.180111
H16   H     H_    0.144522 0.195908 0.331819 0.129102
C28   C     C_3   0.037912 0.059152 0.323282 -0.381560
H17   H     H_    0.003745 0.994352 0.394947 0.223572
H18   H     H_    0.988725 0.129263 0.289328 0.213253
C29   C     C_3   0.070379 0.989794 0.196908 -0.886414
H19   H     H_    0.103526 0.053727 0.122915 0.259209
H20   H     H_    0.012594 0.946352 0.144903 0.259199
H21   H     H_    0.118204 0.916853 0.227790 0.255581
O10   O     O_3   0.412602 0.876835 0.295076 -0.596710
C30   C     C_3   0.452728 0.885747 0.163340 0.070201
H22   H     H_    0.522979 0.852030 0.166354 0.140974
H23   H     H_    0.451640 0.981829 0.124171 0.123846
C31   C     C_3   0.399482 0.807052 0.063084 -0.325537
H24   H     H_    0.398257 0.710642 0.100954 0.240907
H25   H     H_    0.329498 0.840639 0.058293 0.221587
C32   C     C_3   0.439778 0.811340 0.918392 -0.900001
H26   H     H_    0.439066 0.906559 0.876736 0.248734
H27   H     H_    0.399904 0.752352 0.849020 0.280224
H28   H     H_    0.509596 0.777257 0.920329 0.246499

loop_
_geom_bond_atom_site_label_1
_geom_bond_atom_site_label_2
_ccdc_geom_bond_type
C2    C22   A    
C32   H28   S    
Cu2   N2    S    
C11   C12   S    
C24   C25   A    
C31   C32   S    
C20   O5    A    
C10   H11   S    
C22   H1    S    
C4    O9    S    
C11   C13   A    
C27   H15   S    
C1    C17   S    
C14   C15   D    
H8    N2    S    
C21   O7    A    
C12   O4    A    
C30   C31   S    
C14   O10   S    
O10   C30   S    
Cu1   O1    S    
C21   C23   S    
C24   H9    S    
C28   H17   S    
C32   H26   S    
C2    C26   A    
C19   H7    S    
C18   N1    D    
C8    H13   S    
C16   H3    S    
Cu2   O8    S    
Cu2   O2    S    
C9    H14   S    
C6    C26   A    
C29   H19   S    
C12   O3    A    
C4    C5    A    
C5    C10   A    
Cu1   O7    S    
C18   C19   S    
C6    C7    A    
C14   C16   S    
C29   H21   S    
C5    C6    A    
C17   H4    S    
C18   H5    S    
C27   H16   S    
C1    O2    A    
C28   H18   S    
C7    C8    A    
C10   C11   A    
C23   C24   A    
C3    C4    A    
Cu1   N1    S    
C7    C13   A    
C3    C25   A    
C19   N2    D    
C3    H10   S    
C15   H2    S    
C29   H20   S    
C30   H22   S    
C1    O1    A    
Cu1   O3    S    
Cu1   Cu2   S    
C32   H27   S    
C31   H25   S    
C22   C23   A    
C31   H24   S    
C13   H12   S    
C20   O6    A    
C30   H23   S    
C25   C26   A    
O9    C27   S    
C2    C9    A    
Cu2   O6    S    
C15   C20   S    
C21   O8    A    
Cu2   O4    S    
H6    N1    S    
Cu1   O5    S    
C16   C17   D    
C8    C9    A    
C28   C29   S    
C27   C28   S    
