data_mof_unit_20444.cif
_audit_creation_date              2012-12-10T17:36:21-0500
_audit_creation_method            fapswitch 2.2
_symmetry_space_group_name_H-M    P1
_symmetry_Int_Tables_number       1
_space_group_crystal_system       triclinic
_cell_length_a                    12.358253
_cell_length_b                    13.180623
_cell_length_c                    15.863065
_cell_angle_alpha                 77.802322
_cell_angle_beta                  101.333519
_cell_angle_gamma                 116.643181
_cell_volume                      2242.04702061

loop_
_atom_site_label
_atom_site_type_symbol
_atom_type_description
_atom_site_fract_x
_atom_site_fract_y
_atom_site_fract_z
_atom_type_partial_charge
C1    C     C_R   0.854857 0.286577 0.507428 0.759285
C2    C     C_R   0.228030 0.834559 0.469881 -0.047109
C3    C     C_R   0.815069 0.085157 0.563956 -0.190603
C4    C     C_R   0.999661 0.499678 0.659558 0.812160
C5    C     C_R   0.736209 0.970354 0.581178 -0.144397
C6    C     C_R   0.612950 0.932691 0.551024 -0.175597
C7    C     C_R   0.566257 0.009350 0.499522 0.077355
C8    C     C_R   0.649701 0.123652 0.473677 0.081341
C9    C     C_R   0.439734 0.976064 0.471958 0.071074
C10   C     C_R   0.400076 0.053283 0.412963 0.164420
C11   C     C_R   0.485193 0.160241 0.380457 -0.238441
C12   C     C_3   0.086378 0.450589 0.070304 -0.374536
C13   C     C_R   0.608182 0.194259 0.409162 -0.200226
C14   C     C_R   0.350994 0.868425 0.501725 -0.220110
C15   C     C_R   0.189844 0.912201 0.413176 -0.196637
C16   C     C_R   0.145049 0.713378 0.487496 0.802771
C17   C     C_R   0.772791 0.163467 0.512314 -0.098070
C18   C     C_R   0.348642 0.331658 0.638209 -0.284009
C19   C     C_R   0.762743 0.647276 0.384752 0.090012
C20   C     C_R   0.670082 0.683321 0.360631 -0.297775
C21   C     C_R   0.566703 0.630164 0.404035 -0.139764
C22   C     C_R   0.553351 0.538247 0.472249 0.012910
C23   C     C_3   0.997632 0.498593 0.082684 0.282836
C24   C     C_R   0.653021 0.506404 0.495819 0.274012
C25   C     C_R   0.447698 0.478087 0.519147 -0.144160
C26   C     C_R   0.447831 0.391308 0.589745 0.102901
C27   C     C_R   0.546799 0.363762 0.612070 -0.209453
C28   C     C_R   0.000098 0.500034 0.340420 0.829507
C29   C     C_R   0.646607 0.419584 0.566047 -0.158820
C30   C     C_R   0.340631 0.497895 0.500094 0.732214
C31   C     C_R   0.248422 0.356941 0.617088 -0.039328
C32   C     C_3   0.086510 0.451496 0.972512 -0.433097
C33   C     C_3   0.866991 0.420594 0.945129 0.021567
C34   C     C_3   0.037562 0.622098 0.033203 -0.374024
C35   C     C_3   0.867687 0.423099 0.042725 -0.388802
C36   C     C_1   0.999709 0.499395 0.250722 -0.160408
C37   C     C_3   0.996383 0.498524 0.916777 0.272461
C38   C     C_3   0.037367 0.622201 0.935517 -0.359760
C39   C     C_1   0.998800 0.498924 0.175040 -0.094683
C40   C     C_1   0.997812 0.498800 0.824709 -0.066826
C41   C     C_1   0.998843 0.499190 0.749204 -0.148504
C42   C     C_R   0.275554 0.021481 0.385297 -0.190157
Cu1   Cu    Cu3+1 0.098280 0.475420 0.519630 0.990951
Cu2   Cu    Cu3+1 0.901720 0.524580 0.480370 0.929170
F1    F     F_    0.326003 0.573710 0.432233 -0.687468
H1    H     H_    0.058784 0.361362 0.104724 0.166402
H2    H     H_    0.557477 0.842522 0.567618 0.138593
H3    H     H_    0.770156 0.910572 0.620529 0.150242
H4    H     H_    0.060575 0.362912 0.960233 0.165570
H5    H     H_    0.670047 0.275516 0.378037 0.176313
H6    H     H_    0.171654 0.311508 0.654399 0.148017
H7    H     H_    0.547162 0.297702 0.665976 0.162155
H8    H     H_    0.348743 0.265804 0.692285 0.158737
H9    H     H_    0.843149 0.689479 0.351071 0.127970
H10   H     H_    0.501462 0.665682 0.382930 0.225137
H11   H     H_    0.678815 0.753461 0.308515 0.150571
H12   H     H_    0.180317 0.505475 0.954180 0.182436
H13   H     H_    0.717673 0.392356 0.588634 0.205216
H14   H     H_    0.841791 0.330895 0.936012 0.130199
H15   H     H_    0.835986 0.334105 0.078051 0.150175
H16   H     H_    0.803150 0.457049 0.050792 0.195870
H17   H     H_    0.130638 0.677845 0.916727 0.160740
H18   H     H_    0.976014 0.660056 0.896041 0.197281
H19   H     H_    0.130573 0.678453 0.060908 0.168316
H20   H     H_    0.180335 0.503157 0.099021 0.178894
H21   H     H_    0.974637 0.658270 0.040765 0.174332
H22   H     H_    0.094810 0.886980 0.387691 0.147681
H23   H     H_    0.456635 0.218023 0.332427 0.147846
H24   H     H_    0.244886 0.080045 0.340134 0.134407
H25   H     H_    0.374915 0.808025 0.549211 0.148411
H26   H     H_    0.908999 0.113117 0.593004 0.153052
I1    I     I_    0.725227 0.463504 0.866399 -0.464263
N1    N     N_R   0.246300 0.438200 0.549400 -0.216039
N2    N     N_R   0.754300 0.561180 0.451130 -0.208382
O1    O     O_R   0.972520 0.318130 0.524690 -0.585611
O2    O     O_R   0.806530 0.359650 0.491530 -0.608122
O3    O     O_R   0.083030 0.479240 0.637150 -0.584565
O4    O     O_R   0.917040 0.520750 0.603990 -0.582930
O5    O     O_R   0.193470 0.640350 0.508470 -0.531102
O6    O     O_R   0.027480 0.681870 0.475310 -0.596837
O7    O     O_R   0.082960 0.479250 0.396010 -0.510769
O8    O     O_R   0.916970 0.520760 0.362850 -0.600134

loop_
_geom_bond_atom_site_label_1
_geom_bond_atom_site_label_2
_ccdc_geom_bond_type
Cu1   N1    S    
C8    C13   A    
C10   C42   A    
C30   F1    S    
C19   C20   A    
C18   C26   A    
C20   H11   S    
C34   H21   S    
C7    C8    A    
C11   H23   S    
C12   C23   S    
C26   C27   A    
C37   C40   S    
Cu2   O8    S    
C5    C6    A    
C31   N1    A    
C27   C29   A    
C4    C41   S    
Cu1   O5    S    
Cu2   O2    S    
C24   C29   A    
C33   I1    S    
C22   C25   A    
C2    C16   S    
C9    C10   A    
C18   H8    S    
C33   H14   S    
C21   C22   A    
C12   C32   S    
C14   H25   S    
C32   H12   S    
C36   C39   T    
Cu1   O1    S    
C5    H3    S    
C6    H2    S    
C28   O8    A    
C1    O1    A    
Cu2   O6    S    
C12   H1    S    
C21   H10   S    
C30   N1    A    
C25   C26   A    
C42   H24   S    
C33   C37   S    
C35   H15   S    
C16   O6    A    
C3    H26   S    
C9    C14   A    
C4    O4    A    
C37   C38   S    
C23   C34   S    
C15   H22   S    
C34   H19   S    
C35   H16   S    
C32   C37   S    
C20   C21   A    
Cu2   N2    S    
C2    C15   A    
C19   H9    S    
C40   C41   T    
C23   C35   S    
Cu1   Cu2   S    
Cu1   O7    S    
C22   C24   A    
C27   H7    S    
C38   H18   S    
C25   C30   A    
C7    C9    A    
C28   O7    A    
C34   C38   S    
C1    O2    A    
C19   N2    A    
C15   C42   A    
C31   H6    S    
C3    C5    A    
C6    C7    A    
Cu1   O3    S    
C12   H20   S    
C1    C17   S    
C8    C17   A    
C16   O5    A    
Cu2   O4    S    
C4    O3    A    
C11   C13   A    
C24   N2    A    
C23   C39   S    
C33   C35   S    
C3    C17   A    
C2    C14   A    
C32   H4    S    
C10   C11   A    
C13   H5    S    
C29   H13   S    
C28   C36   S    
C18   C31   A    
C38   H17   S    
