data_mof_unit_60865.cif
_audit_creation_date              2012-12-10T20:56:51-0500
_audit_creation_method            fapswitch 2.2
_symmetry_space_group_name_H-M    P1
_symmetry_Int_Tables_number       1
_space_group_crystal_system       triclinic
_cell_length_a                    26.343382
_cell_length_b                    33.011773
_cell_length_c                    21.138286
_cell_angle_alpha                 90.020807
_cell_angle_beta                  128.612921
_cell_angle_gamma                 89.945247
_cell_volume                      14363.8905936

loop_
_atom_site_label
_atom_site_type_symbol
_atom_type_description
_atom_site_fract_x
_atom_site_fract_y
_atom_site_fract_z
_atom_type_partial_charge
C1    C     C_R   0.500002 0.145571 0.499988 0.803682
C2    C     C_R   0.645808 0.617883 0.497442 0.512333
C3    C     C_R   0.640657 0.749400 0.499025 0.831950
C4    C     C_R   0.140942 0.750164 0.499602 0.824891
C5    C     C_R   0.859046 0.249830 0.500389 0.825191
C6    C     C_R   0.859321 0.750589 0.500944 0.833039
C7    C     C_R   0.140657 0.249400 0.499025 0.831947
C8    C     C_R   0.395573 0.250073 0.291088 0.792268
C9    C     C_R   0.604430 0.749930 0.708913 0.791923
C10   C     C_R   0.604448 0.250034 0.708895 0.806242
C11   C     C_R   0.395552 0.749966 0.291105 0.806119
C12   C     C_R   0.895573 0.750073 0.291088 0.792262
C13   C     C_R   0.607997 0.374704 0.438298 0.500031
C14   C     C_R   0.104430 0.249930 0.708913 0.791930
C15   C     C_R   0.104448 0.750034 0.708895 0.806244
C16   C     C_R   0.895552 0.249966 0.291105 0.806114
C17   C     C_1   0.649531 0.250043 0.799029 -0.167996
C18   C     C_1   0.350470 0.749956 0.200971 -0.167782
C19   C     C_1   0.350499 0.250109 0.200967 -0.173401
C20   C     C_1   0.649510 0.749903 0.799036 -0.170453
C21   C     C_1   0.149531 0.750043 0.799029 -0.167994
C22   C     C_1   0.850470 0.249956 0.200971 -0.167782
C23   C     C_1   0.850499 0.750109 0.200967 -0.173400
C24   C     C_R   0.389889 0.624666 0.558760 0.506629
C25   C     C_1   0.149510 0.249903 0.799036 -0.170448
C26   C     C_1   0.686988 0.250033 0.873946 -0.007257
C27   C     C_1   0.313013 0.749966 0.126054 -0.007282
C28   C     C_1   0.313040 0.250096 0.126053 -0.011582
C29   C     C_1   0.686972 0.749923 0.873950 -0.010237
C30   C     C_1   0.186988 0.750033 0.873946 -0.007255
C31   C     C_1   0.813013 0.249966 0.126054 -0.007282
C32   C     C_1   0.813040 0.750096 0.126053 -0.011580
C33   C     C_1   0.186972 0.249923 0.873950 -0.010237
C34   C     C_1   0.731276 0.250010 0.962542 0.004387
C35   C     C_R   0.852019 0.882515 0.499408 0.509736
C36   C     C_1   0.268724 0.749988 0.037458 0.004379
C37   C     C_1   0.268738 0.250040 0.037459 0.002311
C38   C     C_1   0.731275 0.749982 0.962545 0.002657
C39   C     C_1   0.231277 0.750010 0.962542 0.004388
C40   C     C_1   0.768724 0.249988 0.037458 0.004379
C41   C     C_1   0.768738 0.750040 0.037459 0.002313
C42   C     C_1   0.231275 0.249982 0.962545 0.002655
C43   C     C_1   0.499946 0.399524 0.500103 -0.063879
C44   C     C_1   0.500212 0.600470 0.499964 -0.040946
C45   C     C_1   0.999947 0.899524 0.500103 -0.063896
C46   C     C_R   0.145832 0.117880 0.497485 0.512321
C47   C     C_1   0.000211 0.100470 0.499965 -0.040885
C48   C     C_1   0.499969 0.436981 0.500077 0.119906
C49   C     C_1   0.500350 0.563011 0.500054 0.147463
C50   C     C_1   0.999969 0.936981 0.500078 0.119884
C51   C     C_1   0.000350 0.063011 0.500056 0.147440
C52   C     C_3   0.327358 0.429933 0.338847 -0.298383
C53   C     C_3   0.718976 0.538201 0.637991 -0.342151
C54   C     C_3   0.633587 0.468692 0.465478 -0.318342
C55   C     C_3   0.351420 0.529380 0.509435 -0.259416
C56   C     C_3   0.827363 0.929952 0.338884 -0.298235
C57   C     C_R   0.107974 0.874698 0.438260 0.500012
C58   C     C_3   0.219011 0.038181 0.637905 -0.342047
C59   C     C_3   0.133537 0.968687 0.465389 -0.318402
C60   C     C_3   0.851590 0.029410 0.509709 -0.259511
C61   C     C_3   0.406206 0.420150 0.614288 -0.335239
C62   C     C_3   0.590303 0.580948 0.381607 -0.352709
C63   C     C_3   0.501164 0.353629 0.334942 -0.319549
C64   C     C_3   0.496888 0.644403 0.664252 -0.305926
C65   C     C_3   0.906226 0.920150 0.614318 -0.335306
C66   C     C_3   0.090316 0.080952 0.381639 -0.352791
C67   C     C_3   0.001143 0.853612 0.334921 -0.319519
C68   C     C_R   0.889858 0.124658 0.558692 0.506432
C69   C     C_3   0.996862 0.144376 0.664212 -0.305993
C70   C     C_R   0.337330 0.345504 0.517539 -0.329390
C71   C     C_R   0.661513 0.654773 0.480276 -0.333145
C72   C     C_R   0.635316 0.337594 0.438696 -0.358276
C73   C     C_R   0.499998 0.854429 0.500012 0.803474
C74   C     C_R   0.363126 0.661754 0.559560 -0.361737
C75   C     C_R   0.837344 0.845501 0.517561 -0.329382
C76   C     C_R   0.161528 0.154770 0.480306 -0.333143
C77   C     C_R   0.135299 0.837588 0.438669 -0.358279
C78   C     C_R   0.863107 0.161746 0.559515 -0.361635
C79   C     C_R   0.279434 0.324990 0.458363 0.079110
C80   C     C_R   0.719701 0.674793 0.540053 0.076940
C81   C     C_R   0.700014 0.327498 0.503246 0.085444
C82   C     C_R   0.298935 0.672615 0.494774 0.085594
C83   C     C_R   0.779444 0.824993 0.458382 0.079102
C84   C     C_R   0.000002 0.645571 0.499988 0.803683
C85   C     C_R   0.219713 0.174795 0.540076 0.076951
C86   C     C_R   0.199999 0.827498 0.503219 0.085438
C87   C     C_R   0.798916 0.172615 0.494739 0.085612
C88   C     C_R   0.235828 0.341934 0.380947 -0.219660
C89   C     C_R   0.762263 0.657728 0.617444 -0.217086
C90   C     C_R   0.738893 0.355366 0.566021 -0.228365
C91   C     C_R   0.259990 0.645617 0.430318 -0.223477
C92   C     C_R   0.735836 0.841944 0.380972 -0.219660
C93   C     C_R   0.262280 0.157737 0.617473 -0.217136
C94   C     C_R   0.238875 0.855372 0.565983 -0.228364
C95   C     C_R   0.999998 0.354429 0.500012 0.803476
C96   C     C_R   0.759959 0.145623 0.430273 -0.223624
C97   C     C_R   0.250927 0.378182 0.361959 -0.333525
C98   C     C_R   0.746247 0.621568 0.635558 -0.338372
C99   C     C_R   0.713205 0.392554 0.565068 -0.317812
C100  C     C_R   0.285137 0.608499 0.429885 -0.321299
C101  C     C_R   0.750938 0.878194 0.361995 -0.333520
C102  C     C_R   0.246271 0.121578 0.635599 -0.338290
C103  C     C_R   0.213181 0.892560 0.565018 -0.317810
C104  C     C_R   0.785095 0.108506 0.429818 -0.321044
C105  C     C_R   0.310140 0.398083 0.420324 0.522332
C106  C     C_1   0.500119 0.481266 0.500067 0.035952
C107  C     C_R   0.687928 0.601042 0.575431 0.532404
C108  C     C_R   0.648464 0.402553 0.501206 0.531819
C109  C     C_R   0.349447 0.597616 0.494282 0.523958
C110  C     C_R   0.810155 0.898090 0.420362 0.522316
C111  C     C_R   0.187960 0.101047 0.575480 0.532395
C112  C     C_R   0.148437 0.902553 0.501156 0.531825
C113  C     C_R   0.849403 0.097618 0.494196 0.523903
C114  C     C_R   0.210125 0.284025 0.475249 -0.259785
C115  C     C_R   0.789751 0.715905 0.524555 -0.260222
C116  C     C_R   0.781300 0.286140 0.508220 -0.257670
C117  C     C_1   0.500280 0.518722 0.500071 0.049894
C118  C     C_R   0.218457 0.713937 0.491341 -0.257378
C119  C     C_R   0.710130 0.784027 0.475258 -0.259784
C120  C     C_R   0.289755 0.215907 0.524563 -0.260225
C121  C     C_R   0.281292 0.786141 0.508206 -0.257670
C122  C     C_R   0.718450 0.213938 0.491329 -0.257386
C123  C     C_R   0.195789 0.248695 0.498008 -0.079745
C124  C     C_R   0.804126 0.751259 0.501850 -0.080090
C125  C     C_R   0.804172 0.249214 0.501948 -0.071825
C126  C     C_R   0.195665 0.750845 0.497771 -0.072091
C127  C     C_R   0.695789 0.748695 0.498008 -0.079742
C128  C     C_1   0.000119 0.981266 0.500068 0.035956
C129  C     C_R   0.304125 0.251259 0.501850 -0.080092
C130  C     C_R   0.304171 0.749215 0.501947 -0.071817
C131  C     C_R   0.695665 0.250845 0.497772 -0.072095
C132  C     C_R   0.235487 0.213989 0.521856 0.057641
C133  C     C_R   0.764266 0.785915 0.477702 0.056689
C134  C     C_R   0.773001 0.212608 0.494387 0.061922
C135  C     C_R   0.226580 0.787490 0.504858 0.063007
C136  C     C_R   0.735483 0.713987 0.521847 0.057638
C137  C     C_R   0.264262 0.285914 0.477692 0.056686
C138  C     C_R   0.273008 0.712608 0.494401 0.061920
C139  C     C_1   0.000280 0.018722 0.500073 0.049865
C140  C     C_R   0.726587 0.287489 0.504872 0.063003
C141  C     C_R   0.499958 0.354474 0.500218 0.813766
C142  C     C_R   0.500064 0.645525 0.499804 0.811231
C143  C     C_R   0.999958 0.854474 0.500218 0.813782
C144  C     C_R   0.000064 0.145525 0.499804 0.811243
C145  C     C_1   0.500005 0.100501 0.499970 -0.171551
C146  C     C_1   0.499993 0.899499 0.500029 -0.171231
C147  C     C_1   0.000005 0.600501 0.499970 -0.171549
C148  C     C_1   0.999993 0.399499 0.500029 -0.171232
C149  C     C_1   0.500003 0.063034 0.499975 -0.010785
C150  C     C_R   0.352002 0.382516 0.499376 0.509737
C151  C     C_1   0.499994 0.936966 0.500024 -0.010671
C152  C     C_1   0.000003 0.563034 0.499975 -0.010783
C153  C     C_1   0.999994 0.436966 0.500024 -0.010670
C154  C     C_1   0.499999 0.018733 0.499991 0.001221
C155  C     C_1   0.499996 0.981267 0.500008 0.001288
C156  C     C_1   0.999999 0.518733 0.499991 0.001223
C157  C     C_1   0.999996 0.481267 0.500008 0.001288
C158  C     C_R   0.640942 0.250164 0.499602 0.824890
C159  C     C_R   0.359046 0.749830 0.500388 0.825193
C160  C     C_R   0.359321 0.250589 0.500945 0.833041
H1    H     H_    0.371168 0.332661 0.577606 0.147468
H2    H     H_    0.807083 0.673040 0.664452 0.166982
H3    H     H_    0.788857 0.348067 0.616249 0.167532
H4    H     H_    0.210457 0.653600 0.379766 0.168045
H5    H     H_    0.690461 0.826818 0.335020 0.166973
H6    H     H_    0.307096 0.173053 0.664475 0.166990
H7    H     H_    0.288841 0.848079 0.616212 0.167534
H8    H     H_    0.710425 0.153611 0.379732 0.168060
H9    H     H_    0.216290 0.390808 0.301958 0.169400
H10   H     H_    0.778921 0.610224 0.696885 0.167731
H11   H     H_    0.743520 0.413703 0.614336 0.171935
H12   H     H_    0.627965 0.668059 0.420575 0.148205
H13   H     H_    0.254825 0.588245 0.378926 0.177285
H14   H     H_    0.716299 0.890826 0.301999 0.169406
H15   H     H_    0.278944 0.110236 0.696927 0.167762
H16   H     H_    0.243493 0.913714 0.614278 0.171930
H17   H     H_    0.754774 0.088251 0.378863 0.177408
H18   H     H_    0.180178 0.310801 0.458014 0.165432
H19   H     H_    0.819657 0.689115 0.541730 0.164183
H20   H     H_    0.804605 0.314193 0.512346 0.156388
H21   H     H_    0.195107 0.685876 0.487078 0.157261
H22   H     H_    0.680186 0.810804 0.458031 0.165429
H23   H     H_    0.606921 0.316178 0.389524 0.140561
H24   H     H_    0.319665 0.189118 0.541746 0.164187
H25   H     H_    0.304593 0.814195 0.512321 0.156380
H26   H     H_    0.695095 0.185877 0.487055 0.157266
H27   H     H_    0.277459 0.429636 0.280078 0.159940
H28   H     H_    0.354614 0.402294 0.345337 0.164182
H29   H     H_    0.352928 0.456393 0.338141 0.197460
H30   H     H_    0.750004 0.546231 0.703212 0.172625
H31   H     H_    0.748533 0.535264 0.617041 0.143960
H32   H     H_    0.697720 0.508008 0.631454 0.223653
H33   H     H_    0.609176 0.460911 0.401089 0.180745
H34   H     H_    0.391575 0.682561 0.609862 0.140986
H35   H     H_    0.686387 0.473956 0.498716 0.143001
H36   H     H_    0.612117 0.497491 0.465980 0.229108
H37   H     H_    0.298356 0.525075 0.460933 0.161317
H38   H     H_    0.362475 0.533602 0.569198 0.150464
H39   H     H_    0.376106 0.501212 0.513051 0.237166
H40   H     H_    0.777459 0.929662 0.280121 0.159929
H41   H     H_    0.854609 0.902312 0.345353 0.164130
H42   H     H_    0.852935 0.956412 0.338184 0.197473
H43   H     H_    0.250150 0.046179 0.703148 0.172572
H44   H     H_    0.248457 0.035248 0.616799 0.143897
H45   H     H_    0.871183 0.832654 0.577624 0.147473
H46   H     H_    0.197741 0.007994 0.631376 0.223664
H47   H     H_    0.109109 0.960899 0.400998 0.180788
H48   H     H_    0.186333 0.973951 0.498603 0.142967
H49   H     H_    0.112073 0.997487 0.465895 0.229060
H50   H     H_    0.798472 0.025111 0.461534 0.161079
H51   H     H_    0.863013 0.033670 0.569673 0.150795
H52   H     H_    0.876151 0.001226 0.513111 0.237163
H53   H     H_    0.405663 0.396832 0.651810 0.162324
H54   H     H_    0.363087 0.440400 0.585018 0.154339
H55   H     H_    0.450072 0.439106 0.655525 0.202016
H56   H     H_    0.127976 0.168052 0.420602 0.148190
H57   H     H_    0.632875 0.560252 0.410438 0.150407
H58   H     H_    0.591431 0.604204 0.344461 0.165847
H59   H     H_    0.545919 0.562445 0.340103 0.200255
H60   H     H_    0.508982 0.329161 0.376459 0.140897
H61   H     H_    0.505278 0.341700 0.289158 0.165947
H62   H     H_    0.450658 0.364682 0.301899 0.187978
H63   H     H_    0.492434 0.656100 0.709879 0.163341
H64   H     H_    0.490246 0.669156 0.623898 0.134984
H65   H     H_    0.547160 0.632839 0.697631 0.198085
H66   H     H_    0.905664 0.896835 0.651830 0.162334
H67   H     H_    0.106906 0.816167 0.389505 0.140565
H68   H     H_    0.863116 0.940408 0.585043 0.154347
H69   H     H_    0.950100 0.939097 0.655565 0.201974
H70   H     H_    0.132905 0.060272 0.410451 0.150391
H71   H     H_    0.091402 0.104217 0.344473 0.165874
H72   H     H_    0.045946 0.062435 0.340157 0.200251
H73   H     H_    0.008970 0.829148 0.376452 0.140897
H74   H     H_    0.005254 0.841678 0.289139 0.165939
H75   H     H_    0.950636 0.864661 0.301880 0.187983
H76   H     H_    0.992401 0.156056 0.709843 0.163351
H77   H     H_    0.990234 0.169142 0.623889 0.135022
H78   H     H_    0.891563 0.182547 0.609827 0.140959
H79   H     H_    0.047131 0.132809 0.697590 0.198091
H80   H     H_    0.190457 0.326804 0.334996 0.166969
O1    O     O_3   0.500000 0.250010 0.500000 -0.437465
O2    O     O_R   0.008350 0.334000 0.455930 -0.625630
O3    O     O_R   0.008350 0.666000 0.455930 -0.624412
O4    O     O_R   0.991650 0.334000 0.544070 -0.625295
O5    O     O_R   0.552380 0.334020 0.544040 -0.625994
O6    O     O_R   0.447620 0.665980 0.455960 -0.631474
O7    O     O_R   0.447620 0.334020 0.455960 -0.640947
O8    O     O_R   0.552380 0.665980 0.544040 -0.624756
O9    O     O_R   0.052380 0.834020 0.544040 -0.625996
O10   O     O_R   0.947620 0.165980 0.455960 -0.631465
O11   O     O_R   0.947620 0.834020 0.455960 -0.640946
O12   O     O_3   0.500000 0.749990 0.500000 -0.439674
O13   O     O_R   0.052380 0.165980 0.544040 -0.624759
O14   O     O_R   0.593780 0.227990 0.455960 -0.645702
O15   O     O_R   0.406220 0.772010 0.544040 -0.645662
O16   O     O_R   0.406220 0.227990 0.544040 -0.644317
O17   O     O_R   0.593780 0.772010 0.455960 -0.644995
O18   O     O_R   0.093780 0.727990 0.455960 -0.645702
O19   O     O_R   0.906220 0.272010 0.544040 -0.645665
O20   O     O_R   0.906220 0.727990 0.544040 -0.644316
O21   O     O_R   0.093780 0.272010 0.455960 -0.644997
O22   O     O_R   0.362170 0.272040 0.455960 -0.626715
O23   O     O_3   0.000000 0.750010 0.500000 -0.437467
O24   O     O_R   0.637830 0.727960 0.544040 -0.625156
O25   O     O_R   0.637830 0.272040 0.544040 -0.627567
O26   O     O_R   0.362170 0.727960 0.455960 -0.627547
O27   O     O_R   0.862170 0.772040 0.455960 -0.626715
O28   O     O_R   0.137830 0.227960 0.544040 -0.625156
O29   O     O_R   0.137830 0.772040 0.544040 -0.627565
O30   O     O_R   0.862170 0.227960 0.455960 -0.627542
O31   O     O_R   0.446360 0.228000 0.332000 -0.624511
O32   O     O_R   0.553640 0.772000 0.668000 -0.626230
O33   O     O_R   0.553640 0.228000 0.668000 -0.625835
O34   O     O_3   0.000000 0.249990 0.500000 -0.439675
O35   O     O_R   0.446360 0.772000 0.332000 -0.625783
O36   O     O_R   0.946360 0.728000 0.332000 -0.624513
O37   O     O_R   0.053640 0.272000 0.668000 -0.626233
O38   O     O_R   0.053640 0.728000 0.668000 -0.625835
O39   O     O_R   0.946360 0.272000 0.332000 -0.625786
O40   O     O_R   0.385640 0.272040 0.331990 -0.631570
O41   O     O_R   0.614360 0.727960 0.668010 -0.626843
O42   O     O_R   0.614360 0.272040 0.668010 -0.621834
O43   O     O_R   0.385640 0.727960 0.331990 -0.621799
O44   O     O_R   0.885640 0.772040 0.331990 -0.631569
O45   O     O_R   0.491650 0.166000 0.544070 -0.626284
O46   O     O_R   0.114360 0.227960 0.668010 -0.626837
O47   O     O_R   0.114360 0.772040 0.668010 -0.621833
O48   O     O_R   0.885640 0.227960 0.331990 -0.621798
O49   O     O_3   0.325762 0.434589 0.403954 -0.610884
O50   O     O_3   0.667755 0.566312 0.591313 -0.590411
O51   O     O_3   0.623147 0.438636 0.503540 -0.603183
O52   O     O_3   0.375183 0.561831 0.491346 -0.603165
O53   O     O_3   0.825780 0.934599 0.404004 -0.610793
O54   O     O_3   0.167806 0.066318 0.591389 -0.590363
O55   O     O_3   0.123115 0.938636 0.503479 -0.603177
O56   O     O_R   0.508350 0.834000 0.455930 -0.625630
O57   O     O_3   0.875107 0.061832 0.491215 -0.603138
O58   O     O_3   0.409887 0.402153 0.556771 -0.605410
O59   O     O_3   0.587190 0.599103 0.439489 -0.603352
O60   O     O_3   0.543942 0.386554 0.377073 -0.604564
O61   O     O_3   0.453327 0.611996 0.620505 -0.596114
O62   O     O_3   0.909909 0.902147 0.556807 -0.605399
O63   O     O_3   0.087218 0.099094 0.439542 -0.603349
O64   O     O_3   0.043915 0.886542 0.377034 -0.604572
O65   O     O_3   0.953293 0.111977 0.620422 -0.596265
O66   O     O_R   0.508350 0.166000 0.455930 -0.624412
O67   O     O_R   0.491650 0.834000 0.544070 -0.625295
O68   O     O_R   0.991650 0.666000 0.544070 -0.626284
Zn1   Zn    Zn3+2 0.574840 0.281480 0.562930 0.992386
Zn2   Zn    Zn3+2 0.488090 0.781450 0.562930 0.972438
Zn3   Zn    Zn3+2 0.488090 0.218550 0.562930 0.982738
Zn4   Zn    Zn3+2 0.511910 0.781450 0.437070 0.982723
Zn5   Zn    Zn3+2 0.011910 0.718550 0.437070 0.973615
Zn6   Zn    Zn3+2 0.988090 0.281450 0.562930 0.972438
Zn7   Zn    Zn3+2 0.988090 0.718550 0.562930 0.982740
Zn8   Zn    Zn3+2 0.011910 0.281450 0.437070 0.982716
Zn9   Zn    Zn3+2 0.425160 0.718520 0.437070 0.991279
Zn10  Zn    Zn3+2 0.425160 0.281480 0.437070 0.976830
Zn11  Zn    Zn3+2 0.574840 0.718520 0.562930 0.991554
Zn12  Zn    Zn3+2 0.074840 0.781480 0.562930 0.992390
Zn13  Zn    Zn3+2 0.925160 0.218520 0.437070 0.991288
Zn14  Zn    Zn3+2 0.925160 0.781480 0.437070 0.976834
Zn15  Zn    Zn3+2 0.074840 0.218520 0.562930 0.991557
Zn16  Zn    Zn3+2 0.511910 0.218550 0.437070 0.973616

loop_
_geom_bond_atom_site_label_1
_geom_bond_atom_site_label_2
_ccdc_geom_bond_type
C59   H48   S    
C74   H34   S    
O12   Zn2   S    
C70   C150  A    
O9    Zn12  S    
C12   C23   S    
C63   O60   S    
C150  O58   S    
C143  O11   A    
C124  C133  A    
C69   H76   S    
C8    O31   A    
C58   O54   S    
C108  O51   S    
O5    Zn1   S    
C115  C136  A    
C114  C137  A    
C37   C42   T    
C131  C140  A    
C55   H39   S    
C152  C156  S    
C142  O6    A    
C96   H8    S    
C15   O47   A    
C115  C124  A    
C52   H27   S    
C151  C155  S    
C91   C100  A    
C53   H30   S    
C88   C97   A    
O27   Zn14  S    
C97   C105  A    
C70   C79   A    
C58   H44   S    
C100  C109  A    
C78   H78   S    
C111  O54   S    
C63   H62   S    
C102  C111  A    
O39   Zn8   S    
O28   Zn15  S    
C66   O63   S    
C54   H36   S    
C127  C136  A    
O15   Zn2   S    
C101  C110  A    
C35   O62   S    
O12   Zn11  S    
C82   C91   A    
C64   H63   S    
C103  C112  A    
C159  O26   A    
C119  H22   S    
C131  C158  S    
C54   O51   S    
O7    Zn10  S    
C121  C135  A    
C69   H79   S    
C154  C155  T    
C12   O44   A    
C81   C90   A    
C79   C137  S    
C9    O32   A    
O12   Zn4   S    
C96   C104  A    
C91   H4    S    
O25   Zn1   S    
C148  C153  T    
C10   O33   A    
C2    C71   A    
C130  C138  A    
C89   H2    S    
C84   C147  S    
C143  O9    A    
C64   O61   S    
C112  O55   S    
O47   Zn12  S    
C128  C139  T    
C15   O38   A    
C7    C123  S    
O11   Zn14  S    
C13   C72   A    
C90   H3    S    
C62   H59   S    
C10   O42   A    
C102  H15   S    
C82   C138  S    
C75   H45   S    
C122  C131  A    
C55   H37   S    
C45   C50   T    
C56   O53   S    
O31   Zn16  S    
O20   Zn7   S    
C103  H16   S    
C52   H29   S    
C53   H32   S    
C105  O49   S    
O23   Zn12  S    
O19   Zn6   S    
C129  C137  A    
C58   H46   S    
O36   Zn5   S    
C118  C138  A    
O66   Zn16  S    
C76   C85   A    
C56   H40   S    
C109  O52   S    
C78   C87   A    
C81   C140  S    
C11   C18   S    
C123  C132  A    
C1    C145  S    
C52   O49   S    
O1    Zn10  S    
C5    O30   A    
C33   C42   S    
C122  H26   S    
O41   Zn11  S    
C46   O63   S    
C122  C134  A    
O43   Zn9   S    
C85   C93   A    
O1    Zn1   S    
C114  H18   S    
C29   C38   S    
C141  O5    A    
C32   C41   S    
C57   O64   S    
O33   Zn3   S    
C160  O22   A    
C62   O59   S    
C87   C134  S    
C61   H53   S    
C13   C108  A    
O23   Zn7   S    
C64   H65   S    
C8    C19   S    
C120  C129  A    
C62   H57   S    
C38   C41   T    
C56   H41   S    
O45   Zn3   S    
O34   Zn15  S    
C3    O17   A    
C66   H71   S    
C158  O14   A    
O68   Zn7   S    
C104  H17   S    
C59   O55   S    
C19   C28   T    
C120  H24   S    
C114  C123  A    
O34   Zn8   S    
C93   H6    S    
C116  C125  A    
O3    Zn5   S    
O1    Zn16  S    
C73   O67   A    
O42   Zn1   S    
C90   C99   A    
C59   H47   S    
C4    O29   A    
C113  O57   S    
C36   C39   T    
C72   C81   A    
C95   O4    A    
C4    C126  S    
C89   C98   A    
O67   Zn2   S    
O23   Zn14  S    
O1    Zn3   S    
C28   C37   S    
C14   O46   A    
C60   O57   S    
C141  O7    A    
C30   C39   S    
C7    O21   A    
O24   Zn11  S    
C146  C151  T    
C98   H10   S    
C86   C135  S    
C3    O24   A    
C5    C125  S    
C61   H55   S    
O4    Zn6   S    
O23   Zn5   S    
C129  C160  S    
C59   H49   S    
C25   C33   T    
O48   Zn13  S    
C51   C139  S    
C125  C134  A    
O35   Zn4   S    
C67   H74   S    
C63   H61   S    
C159  O15   A    
C1    O45   A    
O34   Zn13  S    
C105  C150  A    
C73   O56   A    
O17   Zn4   S    
C126  C135  A    
O6    Zn9   S    
O13   Zn15  S    
C88   H80   S    
C5    O19   A    
O2    Zn8   S    
C31   C40   S    
C64   H64   S    
C6    O20   A    
C80   C89   A    
C92   H5    S    
O34   Zn6   S    
C48   C106  S    
O40   Zn10  S    
C121  C130  A    
O46   Zn15  S    
C107  O50   S    
C68   C113  A    
C158  O25   A    
C46   C111  A    
C74   C82   A    
C79   C88   A    
C110  O53   S    
C55   O52   S    
C68   C78   A    
C18   C27   T    
C57   C77   A    
C84   O68   A    
C47   C51   T    
C47   C144  S    
C98   C107  A    
C63   H60   S    
O44   Zn14  S    
C149  C154  S    
C99   C108  A    
C76   H56   S    
C9    C20   S    
C67   H75   S    
C53   H31   S    
C35   C110  A    
C92   C101  A    
C14   O37   A    
C58   H43   S    
C77   H67   S    
C106  C117  T    
C43   C141  S    
O26   Zn9   S    
C50   C128  S    
O10   Zn13  S    
C70   H1    S    
C144  O13   A    
C118  H21   S    
C144  O10   A    
C16   C22   S    
C54   H35   S    
O21   Zn8   S    
C24   C109  A    
C72   H23   S    
C93   C102  A    
C65   H69   S    
C27   C36   S    
C21   C30   T    
C80   C136  S    
C67   O64   S    
C23   C32   T    
C160  O16   A    
O37   Zn6   S    
C75   C83   A    
O30   Zn13  S    
C65   H66   S    
C84   O3    A    
C14   C25   S    
C153  C157  S    
C60   H51   S    
O32   Zn2   S    
C53   O50   S    
C95   O2    A    
C55   H38   S    
O14   Zn16  S    
C11   O43   A    
C56   H42   S    
C44   C142  S    
C6    O27   A    
C45   C143  S    
C130  C159  S    
C69   O65   S    
C145  C149  T    
C44   C49   T    
C6    C124  S    
C12   O36   A    
C46   C76   A    
O18   Zn5   S    
C83   C92   A    
O16   Zn3   S    
C35   C75   A    
C119  C133  A    
C34   C40   T    
C17   C26   T    
C62   H58   S    
C156  C157  T    
C16   O39   A    
C85   C132  S    
C3    C127  S    
C57   C112  A    
C99   H11   S    
C10   C17   S    
C66   H72   S    
C2    C107  A    
C97   H9    S    
C86   C94   A    
C26   C34   S    
O56   Zn4   S    
C16   O48   A    
C43   C48   T    
C54   H33   S    
C101  H14   S    
C71   C80   A    
C8    O40   A    
C20   C29   T    
C49   C117  S    
C22   C31   T    
C68   O65   S    
O38   Zn7   S    
C13   O60   S    
C104  C113  A    
C65   H68   S    
C60   H52   S    
C87   C96   A    
C9    O41   A    
C11   O35   A    
C77   C86   A    
C142  O8    A    
C61   H54   S    
C24   O61   S    
C67   H73   S    
C4    O18   A    
C61   O58   S    
C120  C132  A    
C95   C148  S    
C94   H7    S    
C94   C103  A    
C65   O62   S    
C52   H28   S    
C1    O66   A    
C66   H70   S    
C73   C146  S    
O22   Zn10  S    
C116  H20   S    
C147  C152  T    
C2    O59   S    
C24   C74   A    
O29   Zn12  S    
C60   H50   S    
O12   Zn9   S    
C7    O28   A    
C83   C133  S    
C121  H25   S    
C15   C21   S    
O8    Zn11  S    
C100  H13   S    
C71   H12   S    
C118  C126  A    
C69   H77   S    
C115  H19   S    
C119  C127  A    
C116  C140  A    
