data_mof_unit_63990.cif
_audit_creation_date              2012-12-10T19:25:14-0500
_audit_creation_method            fapswitch 2.2
_symmetry_space_group_name_H-M    P1
_symmetry_Int_Tables_number       1
_space_group_crystal_system       triclinic
_cell_length_a                    18.753248
_cell_length_b                    18.708604
_cell_length_c                    18.721536
_cell_angle_alpha                 109.406278
_cell_angle_beta                  109.137651
_cell_angle_gamma                 109.380515
_cell_volume                      5086.62759014

loop_
_atom_site_label
_atom_site_type_symbol
_atom_type_description
_atom_site_fract_x
_atom_site_fract_y
_atom_site_fract_z
_atom_type_partial_charge
C1    C     C_R   0.880691 0.379970 0.000780 0.907989
C2    C     C_R   0.815091 0.312990 0.999649 -0.193747
C3    C     C_R   0.824363 0.241669 0.999346 -0.175690
C4    C     C_R   0.759797 0.174069 0.995533 0.499315
C5    C     C_R   0.684624 0.178981 0.991194 -0.173515
C6    C     C_R   0.671822 0.244239 0.978957 -0.035464
C7    C     C_3   0.644478 0.302961 0.024498 -0.570017
C8    C     C_3   0.716889 0.376827 0.030703 0.980231
C9    C     C_R   0.257084 0.570439 0.246314 -0.114697
C10   C     C_R   0.179431 0.495109 0.183615 -0.263181
C11   C     C_R   0.166385 0.415571 0.183140 0.353226
C12   C     C_R   0.882280 0.501827 0.880021 0.963534
C13   C     C_R   0.233475 0.416584 0.245911 0.633111
C14   C     C_R   0.311825 0.495527 0.308511 -0.311810
C15   C     C_R   0.321236 0.570523 0.305273 -0.122318
C16   C     C_3   0.381156 0.666084 0.348049 0.484236
C17   C     C_3   0.307585 0.666048 0.279528 0.229278
C18   C     C_R   0.199917 0.767605 0.027426 0.018253
C19   C     C_R   0.188383 0.684482 0.001211 -0.129868
C20   C     C_R   0.243726 0.664300 0.972868 -0.166758
C21   C     C_R   0.308104 0.727226 0.970621 0.442675
C22   C     C_R   0.316004 0.811360 0.997318 -0.202620
C23   C     C_R   0.120795 0.619874 0.000491 0.924427
C24   C     C_R   0.260178 0.827806 0.024327 -0.025313
C25   C     C_3   0.236149 0.895273 0.056949 0.572175
C26   C     C_3   0.166105 0.825735 0.059631 -0.507372
C27   C     C_R   0.496870 0.379889 0.376811 0.920872
C28   C     C_R   0.616049 0.502016 0.618989 0.954324
C29   C     C_R   0.495086 0.619853 0.615499 0.895266
C30   C     C_R   0.377685 0.498758 0.376328 0.980830
C31   C     C_R   0.501001 0.880045 0.880566 0.874714
C32   C     C_R   0.619965 0.118465 0.998004 0.887836
C33   C     C_R   0.499148 0.119937 0.119562 0.924712
C34   C     C_R   0.117916 0.498877 0.119043 0.926599
C35   C     C_R   0.380454 0.879620 0.999649 0.862352
C36   C     C_R   0.573464 0.311517 0.325662 0.006652
C37   C     C_R   0.496592 0.312892 0.311970 -0.169179
C38   C     C_R   0.417291 0.242334 0.240305 -0.271441
C39   C     C_R   0.417139 0.177501 0.176338 0.641165
C40   C     C_R   0.496491 0.182625 0.186130 -0.327112
C41   C     C_R   0.573245 0.246298 0.263710 0.040486
C42   C     C_3   0.657918 0.307741 0.277580 0.528442
C43   C     C_3   0.658024 0.379794 0.345942 -0.487039
C44   C     C_R   0.574949 0.754134 0.754939 -0.035536
C45   C     C_2   0.753728 0.580181 0.755259 0.481324
C46   C     C_R   0.496066 0.684296 0.683834 0.016826
C47   C     C_R   0.418241 0.672247 0.684201 -0.158493
C48   C     C_R   0.419599 0.736703 0.749764 -0.179714
C49   C     C_R   0.499053 0.811244 0.815912 0.014858
C50   C     C_R   0.576547 0.816251 0.821276 -0.085869
C51   C     C_3   0.653311 0.888313 0.833390 0.424480
C52   C     C_3   0.651443 0.819480 0.759831 0.222494
C53   C     C_2   0.679718 0.506220 0.691811 -0.347043
C54   C     C_2   0.813955 0.577433 0.827143 -0.269099
C55   C     C_2   0.822915 0.506668 0.811928 -0.345283
C56   C     C_R   0.736499 0.310793 0.983557 0.070236
H1    H     H_    0.441469 0.682141 0.343291 0.094025
H2    H     H_    0.278352 0.703164 0.306304 0.186076
H3    H     H_    0.236998 0.599900 0.952163 0.189484
H4    H     H_    0.288296 0.952650 0.121499 0.086106
H5    H     H_    0.661224 0.447365 0.696975 0.125693
H6    H     H_    0.177938 0.841656 0.126598 0.184225
H7    H     H_    0.098489 0.802427 0.011222 0.230240
H8    H     H_    0.356353 0.239784 0.231997 0.214443
H9    H     H_    0.653448 0.314917 0.219939 0.047956
H10   H     H_    0.710111 0.407299 0.413273 0.238587
H11   H     H_    0.651469 0.428883 0.327444 0.179967
H12   H     H_    0.356561 0.615673 0.631804 0.167974
H13   H     H_    0.853264 0.634773 0.891559 0.177513
H14   H     H_    0.359120 0.729633 0.747744 0.159338
H15   H     H_    0.712121 0.919964 0.897498 0.061170
H16   H     H_    0.708701 0.809602 0.779436 0.079217
H17   H     H_    0.790473 0.452790 0.746094 0.161660
H18   H     H_    0.882897 0.239655 0.004649 0.192056
H19   H     H_    0.578156 0.287577 0.980942 0.208854
H20   H     H_    0.655744 0.308169 0.088539 0.191149
O1    O     O_R   0.908050 0.460100 0.051390 -0.559416
O2    O     O_R   0.445680 0.356610 0.405790 -0.608429
O3    O     O_R   0.639540 0.551640 0.587850 -0.565504
O4    O     O_R   0.536110 0.448210 0.587860 -0.634071
O5    O     O_R   0.547900 0.643240 0.587840 -0.557297
O6    O     O_R   0.444470 0.539800 0.587850 -0.646194
O7    O     O_R   0.457480 0.551640 0.405780 -0.627000
O8    O     O_R   0.354050 0.448210 0.405780 -0.571315
O9    O     O_R   0.449170 0.908380 0.857510 -0.605410
O10   O     O_R   0.551950 0.908320 0.960240 -0.642546
O11   O     O_R   0.540220 0.091590 0.948580 -0.603137
O12   O     O_R   0.908730 0.356680 0.948620 -0.629725
O13   O     O_R   0.643000 0.091540 0.051310 -0.611372
O14   O     O_R   0.448050 0.091580 0.039660 -0.566350
O15   O     O_R   0.550830 0.091520 0.142390 -0.593041
O16   O     O_R   0.357000 0.908370 0.948590 -0.570762
O17   O     O_R   0.459780 0.908310 0.051320 -0.622431
O18   O     O_R   0.908630 0.551710 0.960350 -0.608953
O19   O     O_R   0.909310 0.448290 0.857570 -0.619087
O20   O     O_R   0.091270 0.643320 0.051380 -0.616269
O21   O     O_R   0.091950 0.539900 0.948610 -0.633754
O22   O     O_R   0.090690 0.551710 0.142430 -0.609432
O23   O     O_R   0.091370 0.448290 0.039650 -0.618910
O24   O     O_R   0.549120 0.460050 0.405790 -0.634572
Zn1   Zn    Zn3+2 0.999540 0.569060 0.068630 1.048179
Zn2   Zn    Zn3+2 0.000460 0.430940 0.931370 1.017195
Zn3   Zn    Zn3+2 0.565860 0.568990 0.496810 1.049420
Zn4   Zn    Zn3+2 0.427730 0.430860 0.496820 1.043502
Zn5   Zn    Zn3+2 0.431370 0.999990 0.931350 1.085494
Zn6   Zn    Zn3+2 0.568630 0.999910 0.068550 1.049003
O25   O     O_3   0.770367 0.657985 0.755405 -0.745156
H21   H     H_    0.827521 0.704466 0.807076 0.336718
F1    F     F_    0.783456 0.438318 0.115081 -0.647685
O26   O     O_3   0.090198 0.337023 0.124989 -0.678962
H22   H     H_    0.043519 0.347557 0.095693 0.321827
F2    F     F_    0.221805 0.340732 0.245497 -0.602597
F3    F     F_    0.394923 0.709802 0.431350 -0.619236
O27   O     O_3   0.327963 0.685035 0.219662 -0.760493
H23   H     H_    0.350031 0.646935 0.195551 0.334655
O28   O     O_3   0.359237 0.702993 0.940723 -0.748662
H24   H     H_    0.395288 0.749317 0.933400 0.326836
F4    F     F_    0.201186 0.915516 0.994037 -0.570975
F5    F     F_    0.340557 0.111776 0.104656 -0.605741
F6    F     F_    0.722744 0.290011 0.313187 -0.604349
F7    F     F_    0.632931 0.945963 0.812282 -0.610595
O29   O     O_3   0.628743 0.827914 0.685055 -0.625623
H25   H     H_    0.683443 0.871695 0.694358 0.359067
O30   O     O_3   0.774231 0.107149 0.998445 -0.718365
H26   H     H_    0.718764 0.056395 0.978173 0.355048
O31   O     O_3   0.687034 0.413490 0.981717 -0.769933
H27   H     H_    0.670280 0.451451 0.015553 0.345928

loop_
_geom_bond_atom_site_label_1
_geom_bond_atom_site_label_2
_ccdc_geom_bond_type
O31   H27   S    
C31   O9    A    
C1    O1    A    
C41   C42   S    
O1    Zn1   S    
C19   C20   A    
C18   C26   S    
C27   O2    A    
O3    Zn3   S    
C16   F3    S    
C8    C56   S    
O27   H23   S    
C7    C8    S    
O28   H24   S    
C22   C35   S    
O7    Zn3   S    
O4    Zn4   S    
C18   C24   A    
C36   C37   A    
C31   C49   S    
C1    C2    S    
C13   F2    S    
C33   O15   A    
C5    C6    A    
C39   F5    S    
C15   C16   S    
C23   O20   A    
C4    O30   S    
C18   C19   A    
C30   O7    A    
C3    H18   S    
C28   O3    A    
O26   H22   S    
C54   C55   D    
C52   O29   S    
C47   C48   A    
O18   Zn1   S    
C16   C17   S    
O13   Zn6   S    
C42   H9    S    
O25   H21   S    
C12   O19   A    
C25   H4    S    
C9    C10   A    
O21   Zn2   S    
O19   Zn2   S    
C17   H2    S    
C5    C32   S    
C35   O16   A    
C44   C52   S    
C1    O12   A    
C45   C53   D    
C31   O10   A    
C13   C14   A    
C25   F4    S    
C11   O26   S    
C30   O8    A    
O15   Zn6   S    
C12   O18   A    
C36   C41   A    
O10   Zn6   S    
C51   H15   S    
C14   C30   S    
C21   O28   S    
O9    Zn5   S    
C44   C46   A    
C17   O27   S    
C50   C51   S    
C38   H8    S    
C35   O17   A    
C27   O24   A    
C33   C40   S    
O2    Zn4   S    
C51   C52   S    
O20   Zn1   S    
C24   C25   S    
C48   H14   S    
C39   C40   A    
C7    H19   S    
C25   C26   S    
C32   O11   A    
O24   Zn3   S    
C19   C23   S    
C26   H7    S    
C29   O5    A    
C37   C38   A    
C52   H16   S    
O17   Zn6   S    
C32   O13   A    
O11   Zn5   S    
C34   O23   A    
C10   C34   S    
C9    C17   S    
C20   H3    S    
C6    C7    S    
C8    O31   S    
C48   C49   A    
C23   O21   A    
C45   C54   S    
C51   F7    S    
C22   C24   A    
C42   C43   S    
C53   H5    S    
C3    C4    A    
C47   H12   S    
O5    Zn3   S    
C44   C50   A    
C46   C47   A    
C40   C41   A    
C33   O14   A    
O14   Zn5   S    
C6    C56   A    
C4    C5    A    
O12   Zn2   S    
C28   C53   S    
C7    H20   S    
O22   Zn1   S    
C29   C46   S    
C2    C3    A    
C26   H6    S    
C29   O6    A    
C2    C56   A    
C8    F1    S    
C11   C13   A    
C42   F6    S    
C38   C39   A    
C54   H13   S    
C27   C37   S    
C43   H10   S    
O8    Zn4   S    
C34   O22   A    
C16   H1    S    
C9    C15   A    
C28   O4    A    
C12   C55   S    
C10   C11   A    
C55   H17   S    
O16   Zn5   S    
O23   Zn2   S    
C20   C21   A    
C43   H11   S    
C49   C50   A    
O6    Zn4   S    
C14   C15   A    
C36   C43   S    
O29   H25   S    
C21   C22   A    
C45   O25   S    
O30   H26   S    
