data_mof_unit_26677.cif
_audit_creation_date              2012-12-10T17:32:18-0500
_audit_creation_method            fapswitch 2.2
_symmetry_space_group_name_H-M    P1
_symmetry_Int_Tables_number       1
_space_group_crystal_system       triclinic
_cell_length_a                    12.341051
_cell_length_b                    13.175133
_cell_length_c                    15.062445
_cell_angle_alpha                 77.930485
_cell_angle_beta                  102.557971
_cell_angle_gamma                 116.653001
_cell_volume                      2118.93038548

loop_
_atom_site_label
_atom_site_type_symbol
_atom_type_description
_atom_site_fract_x
_atom_site_fract_y
_atom_site_fract_z
_atom_type_partial_charge
C1    C     C_R   0.853464 0.286193 0.507988 0.866152
C2    C     C_R   0.047478 0.604987 0.084071 0.080860
C3    C     C_R   0.837420 0.302802 0.049648 0.490924
C4    C     C_R   0.828379 0.311889 0.954750 -0.286100
C5    C     C_R   0.912531 0.406687 0.906511 -0.030524
C6    C     C_R   0.984237 0.507125 0.948627 -0.109685
C7    C     C_R   0.058284 0.609582 0.897714 -0.068706
C8    C     C_R   0.117944 0.712195 0.939267 0.519369
C9    C     C_R   0.113348 0.707879 0.032476 -0.303262
C10   C     C_R   0.924918 0.402880 0.816870 0.365246
C11   C     C_R   0.001202 0.503061 0.767281 -0.261331
C12   C     C_R   0.001692 0.502190 0.670844 0.918791
C13   C     C_R   0.068698 0.605944 0.806643 0.323763
C14   C     C_R   0.260006 0.033318 0.429612 -0.194410
C15   C     C_R   0.224690 0.834320 0.462627 -0.160986
C16   C     C_R   0.809671 0.078656 0.542015 0.344791
C17   C     C_R   0.727367 0.963478 0.552986 0.450975
C18   C     C_R   0.603169 0.932901 0.523754 -0.289455
C19   C     C_R   0.558516 0.013772 0.477036 -0.036545
C20   C     C_R   0.640679 0.131079 0.461143 -0.071638
C21   C     C_R   0.430974 0.980928 0.454605 0.016089
C22   C     C_R   0.385566 0.064996 0.435138 0.054039
C23   C     C_R   0.144539 0.713089 0.482763 0.843889
C24   C     C_R   0.464712 0.178428 0.414307 -0.318946
C25   C     C_R   0.588845 0.208596 0.410230 0.485660
C26   C     C_R   0.346240 0.866101 0.452515 0.430933
C27   C     C_R   0.180810 0.918616 0.448779 -0.273880
C28   C     C_R   0.767578 0.164322 0.500847 -0.297104
C29   C     C_R   0.357371 0.339173 0.651894 0.377876
C30   C     C_R   0.756988 0.643335 0.375835 -0.106415
C31   C     C_R   0.656581 0.672793 0.345571 0.401952
C32   C     C_R   0.554062 0.614908 0.392000 -0.258303
C33   C     C_R   0.549366 0.530941 0.467994 -0.081612
C34   C     C_R   0.998468 0.498224 0.328768 0.813355
C35   C     C_R   0.653348 0.504559 0.494296 0.267219
C36   C     C_R   0.446730 0.473728 0.519828 -0.081729
C37   C     C_R   0.452066 0.392315 0.596849 0.061498
C38   C     C_R   0.552643 0.365559 0.619215 -0.238000
C39   C     C_R   0.649904 0.419725 0.569275 -0.159924
C40   C     C_R   0.339065 0.494044 0.499910 0.016435
C41   C     C_R   0.254619 0.362952 0.627466 -0.066043
C42   C     C_R   0.047249 0.601252 0.177303 -0.306612
C43   C     C_R   0.994844 0.496288 0.231438 -0.146531
C44   C     C_R   0.936149 0.393005 0.191256 0.417514
C45   C     C_R   0.917304 0.399229 0.094927 -0.046811
C46   C     C_R   0.981453 0.504331 0.042234 -0.019744
Cu1   Cu    Cu3+1 0.098270 0.475420 0.521130 0.954808
Cu2   Cu    Cu3+1 0.901730 0.524580 0.478870 0.948217
H1    H     H_    0.093186 0.679539 0.209045 0.137941
H2    H     H_    0.426686 0.240899 0.393200 0.134259
H3    H     H_    0.223731 0.097267 0.411901 0.139100
H4    H     H_    0.541219 0.846250 0.545114 0.209162
H5    H     H_    0.181289 0.321250 0.668072 0.150048
H6    H     H_    0.557582 0.302253 0.676957 0.210008
H7    H     H_    0.327453 0.554175 0.442440 0.171819
H8    H     H_    0.838968 0.684708 0.343825 0.147756
H9    H     H_    0.479248 0.638778 0.367937 0.173723
H10   H     H_    0.720970 0.392008 0.593263 0.220510
H11   H     H_    0.758594 0.241521 0.919625 0.182616
H12   H     H_    0.164942 0.784777 0.065531 0.149083
H13   H     H_    0.085031 0.895773 0.449009 0.177161
N1    N     N_R   0.246280 0.438190 0.553160 -0.211155
N2    N     N_R   0.754320 0.561190 0.447410 -0.213732
O1    O     O_R   0.972510 0.318130 0.526570 -0.564655
O2    O     O_R   0.806530 0.359650 0.490890 -0.552750
O3    O     O_R   0.082980 0.479210 0.647590 -0.619299
O4    O     O_R   0.917000 0.520730 0.611900 -0.589234
O5    O     O_R   0.193470 0.640350 0.509110 -0.540969
O6    O     O_R   0.027490 0.681870 0.473430 -0.602692
O7    O     O_R   0.083000 0.479270 0.388100 -0.568746
O8    O     O_R   0.917020 0.520790 0.352410 -0.593098
O9    O     O_3   0.376478 0.788112 0.426756 -0.597923
C47   C     C_3   0.371958 0.807779 0.330313 -0.314499
H14   H     H_    0.359175 0.729187 0.305647 0.181708
H15   H     H_    0.459385 0.878222 0.310985 0.192669
H16   H     H_    0.293231 0.827230 0.293635 0.136441
O10   O     O_3   0.928668 0.107694 0.585170 -0.575386
C48   C     C_3   0.997100 0.089812 0.530774 0.113476
H17   H     H_    0.038403 0.169414 0.483320 0.136504
H18   H     H_    0.941909 0.018682 0.487952 0.112400
C49   C     C_3   0.100768 0.065600 0.593394 -0.361995
H19   H     H_    0.174469 0.085021 0.553507 0.181240
H20   H     H_    0.141274 0.122718 0.647485 0.250250
C50   C     C_3   0.057339 0.941673 0.638731 -0.698299
H21   H     H_    0.010427 0.881520 0.586640 0.236213
H22   H     H_    0.993891 0.924438 0.687697 0.283755
H23   H     H_    0.137446 0.926285 0.676665 0.251880
O11   O     O_3   0.768727 0.885115 0.606737 -0.568814
C51   C     C_3   0.734759 0.790742 0.559880 -0.323546
H24   H     H_    0.753731 0.818096 0.487645 0.154896
H25   H     H_    0.637166 0.730804 0.562835 0.184227
H26   H     H_    0.789812 0.742706 0.594829 0.197268
O12   O     O_3   0.657793 0.307282 0.354847 -0.606202
C52   C     C_3   0.585309 0.347663 0.282862 0.047676
H27   H     H_    0.546632 0.394011 0.310965 0.154767
H28   H     H_    0.510467 0.275621 0.247800 0.140279
C53   C     C_3   0.663142 0.432069 0.210476 -0.323178
H29   H     H_    0.705017 0.389831 0.181389 0.216505
H30   H     H_    0.736653 0.506783 0.241887 0.242491
C54   C     C_3   0.586313 0.475716 0.132626 -0.941284
H31   H     H_    0.512288 0.403413 0.097989 0.259114
H32   H     H_    0.645508 0.536782 0.081451 0.256907
H33   H     H_    0.545232 0.520828 0.159528 0.265587
O13   O     O_3   0.361913 0.259073 0.726692 -0.604534
C55   C     C_3   0.396678 0.311515 0.807139 -0.362649
H34   H     H_    0.488033 0.385895 0.806917 0.177891
H35   H     H_    0.403843 0.248220 0.866873 0.203513
H36   H     H_    0.326912 0.338460 0.816770 0.156801
O14   O     O_3   0.930228 0.290595 0.242442 -0.584064
C56   C     C_3   0.828264 0.239251 0.289336 -0.229709
H37   H     H_    0.821226 0.154030 0.324236 0.152482
H38   H     H_    0.740821 0.226695 0.243871 0.213066
H39   H     H_    0.840862 0.291366 0.341317 0.176368
O15   O     O_3   0.652090 0.758712 0.274303 -0.618610
C57   C     C_3   0.753861 0.811975 0.225616 0.054457
H40   H     H_    0.724746 0.852618 0.158281 0.153302
H41   H     H_    0.780161 0.749142 0.207585 0.130655
C58   C     C_3   0.861065 0.907027 0.275993 -0.383191
H42   H     H_    0.836077 0.978606 0.274325 0.219511
H43   H     H_    0.880764 0.875602 0.349242 0.201276
C59   C     C_3   0.977046 0.951781 0.232021 -0.917720
H44   H     H_    0.008741 0.883205 0.240042 0.255027
H45   H     H_    0.050447 0.024808 0.266122 0.262984
H46   H     H_    0.959754 0.981461 0.157922 0.244894
O16   O     O_3   0.755570 0.205773 0.095621 -0.582774
C60   C     C_3   0.778492 0.110877 0.092996 -0.313132
H47   H     H_    0.876052 0.127976 0.118444 0.188630
H48   H     H_    0.751614 0.084507 0.023196 0.140560
H49   H     H_    0.721158 0.037837 0.138805 0.192338
O17   O     O_3   0.856202 0.304947 0.773569 -0.629568
C61   C     C_3   0.893325 0.215813 0.813895 0.018063
H50   H     H_    0.816884 0.133875 0.794926 0.180824
H51   H     H_    0.911596 0.206227 0.889919 0.132872
C62   C     C_3   0.006990 0.231555 0.778360 -0.328824
H52   H     H_    0.988941 0.240176 0.702652 0.275576
H53   H     H_    0.085694 0.310721 0.800170 0.193187
C63   C     C_3   0.038942 0.129698 0.815271 -0.915457
H54   H     H_    0.051201 0.116481 0.891436 0.239018
H55   H     H_    0.125924 0.146153 0.793158 0.269067
H56   H     H_    0.965365 0.050691 0.788898 0.284544
O18   O     O_3   0.138733 0.703865 0.753620 -0.582846
C64   C     C_3   0.259025 0.711861 0.765199 0.094349
H57   H     H_    0.260315 0.646280 0.729949 0.140644
H58   H     H_    0.296046 0.699639 0.839175 0.150136
C65   C     C_3   0.342576 0.830668 0.723118 -0.300024
H59   H     H_    0.308085 0.844254 0.649270 0.210024
H60   H     H_    0.341493 0.897108 0.757366 0.254376
C66   C     C_3   0.474076 0.844537 0.733420 -0.915334
H61   H     H_    0.511894 0.835468 0.807115 0.256059
H62   H     H_    0.531726 0.930926 0.700920 0.265312
H63   H     H_    0.477529 0.779001 0.699596 0.258830
O19   O     O_3   0.188453 0.814762 0.891040 -0.560055
C67   C     C_3   0.138687 0.894516 0.883537 -0.306537
H64   H     H_    0.186196 0.969910 0.834783 0.203525
H65   H     H_    0.154795 0.926254 0.950098 0.151515
H66   H     H_    0.039176 0.858249 0.856322 0.165299

loop_
_geom_bond_atom_site_label_1
_geom_bond_atom_site_label_2
_ccdc_geom_bond_type
C16   C28   A    
C21   C26   A    
C25   O12   S    
O12   C52   S    
C17   O11   S    
C26   O9    S    
C47   H14   S    
C23   O6    A    
C19   C20   A    
C50   H23   S    
Cu2   O6    S    
C61   C62   S    
C49   C50   S    
C62   C63   S    
O15   C57   S    
C18   H4    S    
C7    C8    A    
O10   C48   S    
C2    C46   A    
C63   H55   S    
C60   H47   S    
C32   H9    S    
C36   C37   A    
C8    O19   S    
C66   H62   S    
C16   O10   S    
C5    C6    A    
C48   H18   S    
C20   C25   A    
C57   H40   S    
C53   H29   S    
C33   C36   A    
C40   N1    A    
C18   C19   A    
C58   H42   S    
C59   H46   S    
C27   H13   S    
C65   H60   S    
C56   H37   S    
C14   H3    S    
C16   C17   A    
C57   H41   S    
C1    C28   S    
C1    O2    A    
C66   H63   S    
C13   O18   S    
Cu2   O2    S    
C67   H65   S    
C6    C46   A    
C34   O7    A    
Cu1   O3    S    
C44   O14   S    
C57   C58   S    
C15   C23   S    
C21   C22   A    
C47   H15   S    
C64   C65   S    
C41   N1    A    
Cu1   N1    S    
O13   C55   S    
C55   H36   S    
C65   H59   S    
C58   H43   S    
C24   H2    S    
C38   C39   A    
C63   H56   S    
C36   C40   A    
C24   C25   A    
C53   H30   S    
Cu1   O1    S    
C48   H17   S    
C8    C9    A    
Cu2   N2    S    
C62   H53   S    
C12   O4    A    
C20   C28   A    
C52   C53   S    
C61   H51   S    
C45   C46   A    
C39   H10   S    
C12   O3    A    
C3    C45   A    
C54   H33   S    
C49   H19   S    
C29   O13   S    
C51   H26   S    
C58   C59   S    
C23   O5    A    
C35   C39   A    
C43   C44   A    
C10   O17   S    
Cu1   O7    S    
C37   C38   A    
C55   H35   S    
C15   C27   A    
Cu1   Cu2   S    
C38   H6    S    
C7    C13   A    
C40   H7    S    
C54   H32   S    
C17   C18   A    
C50   H21   S    
C67   H66   S    
C52   H28   S    
C56   H39   S    
C41   H5    S    
C59   H44   S    
C62   H52   S    
O16   C60   S    
C14   C27   A    
C47   H16   S    
C22   C24   A    
C51   H25   S    
C42   C43   A    
Cu2   O8    S    
C3    C4    A    
C1    O1    A    
Cu1   O5    S    
C65   C66   S    
C44   C45   A    
C55   H34   S    
C60   H48   S    
C53   C54   S    
C31   O15   S    
C29   C41   A    
C31   C32   A    
C34   C43   S    
C50   H22   S    
O9    C47   S    
C15   C26   A    
C49   H20   S    
C11   C12   S    
C3    O16   S    
C6    C7    A    
C63   H54   S    
C60   H49   S    
C9    H12   S    
C32   C33   A    
C14   C22   A    
O17   C61   S    
C67   H64   S    
C5    C10   A    
O14   C56   S    
C11   C13   A    
C48   C49   S    
C30   C31   A    
C30   H8    S    
C2    C42   A    
C4    H11   S    
C30   N2    A    
C54   H31   S    
C33   C35   A    
C64   H58   S    
C66   H61   S    
Cu2   O4    S    
C52   H27   S    
C56   H38   S    
C59   H45   S    
C10   C11   A    
C42   H1    S    
C4    C5    A    
O11   C51   S    
C29   C37   A    
C64   H57   S    
C35   N2    A    
O19   C67   S    
C51   H24   S    
O18   C64   S    
C2    C9    A    
C34   O8    A    
C61   H50   S    
C19   C21   A    
