data_mof_unit_68373.cif
_audit_creation_date              2012-12-11T16:32:31-0500
_audit_creation_method            fapswitch 2.2
_symmetry_space_group_name_H-M    P1
_symmetry_Int_Tables_number       1
_space_group_crystal_system       triclinic
_cell_length_a                    6.951969
_cell_length_b                    14.449644
_cell_length_c                    15.866362
_cell_angle_alpha                 90.076105
_cell_angle_beta                  89.633795
_cell_angle_gamma                 90.202656
_cell_volume                      1593.78734969

loop_
_atom_site_label
_atom_site_type_symbol
_atom_type_description
_atom_site_fract_x
_atom_site_fract_y
_atom_site_fract_z
_atom_type_partial_charge
O1    O     O_R   0.361630 0.167340 0.164570 -0.548808
O2    O     O_R   0.638370 0.832660 0.835430 -0.548806
O3    O     O_R   0.690860 0.157560 0.338690 -0.544250
O4    O     O_R   0.309140 0.842440 0.661310 -0.544251
O5    O     O_R   0.861260 0.336420 0.339380 -0.546170
O6    O     O_R   0.138740 0.663580 0.660620 -0.546170
C1    C     C_R   0.521294 0.134619 0.367901 0.652195
C2    C     C_R   0.478706 0.865381 0.632099 0.652198
O7    O     O_R   0.691330 0.156310 0.165190 -0.504754
O8    O     O_R   0.308670 0.843690 0.834810 -0.504765
O9    O     O_R   0.861730 0.335160 0.164640 -0.526190
O10   O     O_R   0.138270 0.664840 0.835360 -0.526197
C3    C     C_R   0.522647 0.134494 0.136194 0.696459
C4    C     C_R   0.477353 0.865506 0.863806 0.696455
O11   O     O_R   0.361150 0.168600 0.339320 -0.544055
O12   O     O_R   0.638850 0.831400 0.660680 -0.544054
O13   O     O_3   0.527950 0.310560 0.252000 -0.361474
O14   O     O_3   0.472050 0.689440 0.748000 -0.361473
V1    V     V_3+5 0.802770 0.240990 0.251980 1.500128
V2    V     V_3+5 0.197230 0.759010 0.748020 1.500109
O15   O     O_R   0.191450 0.346190 0.165260 -0.538882
O16   O     O_R   0.808550 0.653810 0.834740 -0.538877
C5    C     C_R   0.023723 0.364965 0.134208 0.658558
C6    C     C_R   0.976277 0.635035 0.865792 0.658541
O17   O     O_R   0.190980 0.347440 0.338770 -0.526785
O18   O     O_R   0.809020 0.652560 0.661230 -0.526784
C7    C     C_R   0.021795 0.369505 0.367487 0.729106
C8    C     C_R   0.978205 0.630495 0.632514 0.729110
V3    V     V_3+5 0.302780 0.262760 0.251980 1.486334
V4    V     V_3+5 0.697220 0.737240 0.748020 1.486337
O19   O     O_3   0.027730 0.193200 0.251960 -0.368738
O20   O     O_3   0.972270 0.806800 0.748040 -0.368741
C9    C     C_3   0.822326 0.484852 0.469131 -0.231372
C10   C     C_3   0.177674 0.515147 0.530869 -0.231370
C11   C     C_3   0.887105 0.467395 0.560520 0.677716
C12   C     C_3   0.112895 0.532604 0.439480 0.677716
H1    H     H_    0.675553 0.471714 0.444526 0.170711
H2    H     H_    0.324448 0.528285 0.555474 0.170711
C13   C     C_3   0.989936 0.561311 0.562241 -0.168297
C14   C     C_3   0.010064 0.438688 0.437759 -0.168294
C15   C     C_3   0.927036 0.580132 0.470679 -0.295125
C16   C     C_3   0.072964 0.419867 0.529322 -0.295127
H3    H     H_    0.869133 0.646369 0.446370 0.137254
H4    H     H_    0.130867 0.353630 0.553631 0.137251
H5    H     H_    0.954284 0.336456 0.739204 0.162330
H6    H     H_    0.045777 0.663547 0.260793 0.162341
C17   C     C_R   0.991496 0.693573 0.048739 -0.051837
C18   C     C_R   0.008518 0.306428 0.951260 -0.051828
C19   C     C_R   0.010939 0.717142 0.135505 -0.007414
C20   C     C_R   0.989100 0.282859 0.864493 -0.007427
C21   C     C_R   0.032323 0.647118 0.194418 -0.237445
C22   C     C_R   0.967721 0.352884 0.805580 -0.237438
C23   C     C_R   0.032781 0.555315 0.170509 -0.067696
C24   C     C_R   0.967243 0.444686 0.829490 -0.067690
C25   C     C_R   0.015144 0.528079 0.085275 0.119830
C26   C     C_R   0.984864 0.471921 0.914724 0.119834
C27   C     C_R   0.996130 0.597487 0.022166 0.020906
C28   C     C_R   0.003874 0.402513 0.977834 0.020905
C29   C     C_R   0.016146 0.432260 0.064017 -0.150601
C30   C     C_R   0.983855 0.567741 0.935983 -0.150593
H7    H     H_    0.047945 0.505837 0.221037 0.130929
H8    H     H_    0.952082 0.494164 0.778962 0.130923
C31   C     C_3   0.321604 0.026239 0.479130 -0.112931
C32   C     C_3   0.678396 0.973761 0.520870 -0.112929
C33   C     C_3   0.399824 0.925982 0.473634 -0.139451
C34   C     C_3   0.600175 0.074018 0.526366 -0.139448
H9    H     H_    0.316865 0.864875 0.451609 0.108682
H10   H     H_    0.683134 0.135125 0.548391 0.108683
H11   H     H_    0.173576 0.047620 0.462161 0.108238
H12   H     H_    0.826424 0.952380 0.537839 0.108239
C35   C     C_3   0.490541 0.937232 0.561599 -0.007825
C36   C     C_3   0.509459 0.062768 0.438401 -0.007828
C37   C     C_3   0.412355 0.036845 0.567715 -0.142766
C38   C     C_3   0.587645 0.963155 0.432285 -0.142770
H13   H     H_    0.339609 0.067464 0.623595 0.102911
H14   H     H_    0.660390 0.932536 0.376404 0.102921
H15   H     H_    0.512686 0.821288 0.252380 0.100634
H16   H     H_    0.487324 0.178711 0.747620 0.100639
C39   C     C_R   0.511377 0.191364 0.961350 -0.088746
C40   C     C_R   0.488641 0.808635 0.038650 -0.088758
C41   C     C_R   0.501432 0.221755 0.877629 0.019092
C42   C     C_R   0.498588 0.778245 0.122370 0.019102
C43   C     C_R   0.493204 0.156560 0.812762 -0.210665
C44   C     C_R   0.506805 0.843440 0.187238 -0.210632
C45   C     C_R   0.490493 0.062219 0.830896 -0.060590
C46   C     C_R   0.509506 0.937781 0.169104 -0.060576
C47   C     C_R   0.494574 0.030185 0.915022 0.115256
C48   C     C_R   0.505427 0.969815 0.084978 0.115254
C49   C     C_R   0.506144 0.095979 0.981566 0.083302
C50   C     C_R   0.493863 0.904021 0.018433 0.083308
C51   C     C_R   0.487712 0.934245 0.933388 -0.129251
C52   C     C_R   0.512289 0.065755 0.066612 -0.129257
H17   H     H_    0.521762 0.242992 0.010615 0.126186
H18   H     H_    0.478264 0.757008 0.989384 0.126180
H19   H     H_    0.483237 0.014779 0.778179 0.076788
H20   H     H_    0.516755 0.985221 0.221821 0.076784
F1    F     F_    0.767753 0.434200 0.623674 -0.722438
F2    F     F_    0.232249 0.565799 0.376327 -0.722443
C53   C     C_2   0.497933 0.321533 0.856905 0.357147
H21   H     H_    0.491403 0.343475 0.791580 0.084163
O21   O     O_2   0.501756 0.380389 0.912195 -0.519413
C54   C     C_2   0.502100 0.678467 0.143094 0.357149
H22   H     H_    0.508635 0.656525 0.208419 0.084155
O22   O     O_2   0.498281 0.619610 0.087804 -0.519413
C55   C     C_2   0.956373 0.769636 0.988908 0.470472
H23   H     H_    0.823661 0.771318 0.954422 0.030275
O23   O     O_2   0.075265 0.830670 0.977835 -0.497931
C56   C     C_2   0.043647 0.230367 0.011092 0.470495
H24   H     H_    0.176371 0.228682 0.045570 0.030253
O24   O     O_2   0.924742 0.169342 0.022180 -0.497914
C57   C     C_2   0.006175 0.813299 0.170229 0.404719
H25   H     H_    0.050399 0.825385 0.234851 0.021271
O25   O     O_2   0.949576 0.879391 0.129722 -0.499703
C58   C     C_2   0.993893 0.186702 0.829766 0.404691
H26   H     H_    0.949828 0.174628 0.765120 0.021257
O26   O     O_2   0.050338 0.120597 0.870297 -0.499680

loop_
_geom_bond_atom_site_label_1
_geom_bond_atom_site_label_2
_ccdc_geom_bond_type
C34   H10   S    
C31   C33   S    
C25   C29   A    
O13   V3    S    
C57   H25   S    
C10   C16   S    
O4    C2    A    
V1    O19   S    
C19   C21   A    
C58   H26   S    
C17   C19   A    
C5    C29   S    
C55   O23   D    
O9    V1    S    
C38   H14   S    
C44   C46   A    
C39   H17   S    
O3    C1    A    
C46   C48   A    
O12   V4    S    
C56   H24   S    
C32   C35   S    
C11   C16   S    
O7    C3    A    
C9    C11   S    
O5    C7    A    
C23   H7    S    
H16   C43   S    
O7    V1    S    
C34   C36   S    
C48   C52   A    
O8    V2    S    
C8    C13   S    
C33   H9    S    
C20   C22   A    
O3    V1    S    
O14   V4    S    
C32   H12   S    
C10   C12   S    
C19   C57   S    
C18   C20   A    
C2    O12   A    
C15   H3    S    
C12   C15   S    
C16   H4    S    
C41   C43   A    
C22   C24   A    
O11   V3    S    
C23   C25   A    
O17   V3    S    
C24   C26   A    
C9    C14   S    
C47   C51   A    
C45   C47   A    
C41   C53   S    
C10   C13   S    
C31   H11   S    
C12   C14   S    
C36   C38   S    
O8    C4    A    
C1    C36   S    
C39   C41   A    
C27   C30   A    
C1    O11   A    
C24   H8    S    
H5    C22   S    
C17   C55   S    
C28   C29   A    
C33   C35   S    
C34   C37   S    
O15   V3    S    
H6    C21   S    
C9    H1    S    
C33   C38   S    
C26   C30   A    
C20   C58   S    
C32   C34   S    
C11   C13   S    
C17   C27   A    
C53   H21   S    
C7    C14   S    
C6    C30   S    
O10   V2    S    
O1    V3    S    
C42   C54   S    
C57   O25   D    
C49   C52   A    
C54   O22   D    
C46   H20   S    
C40   C42   A    
C43   C45   A    
C48   C50   A    
O18   V4    S    
C42   C44   A    
C25   C27   A    
C3    C52   S    
O16   C6    A    
O1    C3    A    
C37   H13   S    
C40   H18   S    
O6    V2    S    
C35   C37   S    
V2    O20   S    
C2    C35   S    
O16   V4    S    
C53   O21   D    
C10   H2    S    
C14   C16   S    
C58   O26   D    
C56   O24   D    
C18   C28   A    
O5    V1    S    
O17   C7    A    
C31   C37   S    
C55   H23   S    
O10   C6    A    
O18   C8    A    
H15   C44   S    
O2    V4    S    
C9    C15   S    
O15   C5    A    
V3    O19   S    
V4    O20   S    
C45   H19   S    
C50   C51   A    
C18   C56   S    
O9    C5    A    
O13   V1    S    
C26   C28   A    
O14   V2    S    
C40   C50   A    
C54   H22   S    
O2    C4    A    
C4    C51   S    
C39   C49   A    
O4    V2    S    
O6    C8    A    
C31   C36   S    
C13   C15   S    
C47   C49   A    
C32   C38   S    
C12   F2    S    
C21   C23   A    
C11   F1    S    
