data_mof_unit_39446.cif
_audit_creation_date              2012-10-26T20:42:59-0400
_audit_creation_method            fapswitch 2.2
_symmetry_space_group_name_H-M    P1
_symmetry_Int_Tables_number       1
_space_group_crystal_system       triclinic
_cell_length_a                    10.989814
_cell_length_b                    9.616851
_cell_length_c                    14.966567
_cell_angle_alpha                 89.993863
_cell_angle_beta                  92.917442
_cell_angle_gamma                 89.989274
_cell_volume                      1579.7274438

loop_
_atom_site_label
_atom_site_type_symbol
_atom_type_description
_atom_site_fract_x
_atom_site_fract_y
_atom_site_fract_z
_atom_type_partial_charge
Br1   Br    Br    0.759778 0.482687 0.756547 -0.314968
Br2   Br    Br    0.319853 0.831844 0.353506 -0.332766
Br3   Br    Br    0.240228 0.482782 0.243460 -0.314948
Br4   Br    Br    0.243889 0.462755 0.736840 -0.422955
Br5   Br    Br    0.756130 0.462796 0.263172 -0.422874
Br6   Br    Br    0.148824 0.688146 0.088152 -0.382617
Br7   Br    Br    0.851128 0.688093 0.911803 -0.382523
Br8   Br    Br    0.319243 0.167038 0.354168 -0.334017
Br9   Br    Br    0.680418 0.831686 0.646314 -0.332640
Br10  Br    Br    0.680496 0.166889 0.646007 -0.334078
C1    C     C_R   0.262422 0.500025 0.501570 0.636091
C2    C     C_R   0.128302 0.500068 0.503185 0.105288
C3    C     C_R   0.425984 0.073823 0.440368 0.260707
C4    C     C_R   0.573981 0.925859 0.559723 0.259091
C5    C     C_R   0.573991 0.073766 0.559649 0.260743
C6    C     C_R   0.426048 0.925917 0.440259 0.259148
C7    C     C_R   0.499147 0.500406 0.328978 0.610277
C8    C     C_R   0.500856 0.500393 0.671022 0.610283
C9    C     C_R   0.612060 0.523797 0.817087 0.172548
C10   C     C_R   0.387938 0.523844 0.182911 0.172557
C11   C     C_R   0.501031 0.504966 0.768152 0.022505
C12   C     C_R   0.737577 0.500001 0.498424 0.636092
C13   C     C_R   0.498972 0.505006 0.231848 0.022493
C14   C     C_R   0.389297 0.511810 0.809117 0.145005
C15   C     C_R   0.610705 0.511843 0.190883 0.144988
C16   C     C_R   0.387725 0.540337 0.901753 0.048431
C17   C     C_R   0.612269 0.540354 0.098241 0.048436
C18   C     C_R   0.499968 0.546131 0.952793 -0.057993
C19   C     C_R   0.500025 0.546143 0.047199 -0.057991
C20   C     C_R   0.612024 0.550703 0.909880 0.025523
C21   C     C_R   0.387968 0.550735 0.090111 0.025536
C22   C     C_R   0.279469 0.573392 0.944551 0.127389
C23   C     C_R   0.281423 0.586463 0.038206 0.200854
C24   C     C_R   0.720517 0.573390 0.055435 0.127399
C25   C     C_R   0.718559 0.586434 0.961776 0.200849
C26   C     C_R   0.063776 0.372853 0.503479 0.095913
C27   C     C_R   0.936212 0.627232 0.496512 0.092491
C28   C     C_R   0.936323 0.372806 0.497043 0.095852
C29   C     C_R   0.063677 0.627278 0.502915 0.092416
C30   C     C_R   0.871695 0.500009 0.496800 0.105309
Cu1   Cu    Cu3+1 0.500000 0.640660 0.500000 1.138900
Cu2   Cu    Cu3+1 0.500000 0.359340 0.500000 1.152095
H1    H     H_    0.149407 0.712046 0.901732 0.296053
H2    H     H_    0.895898 0.195476 0.427724 0.253039
H3    H     H_    0.101563 0.822490 0.458756 0.261247
H4    H     H_    0.104082 0.804862 0.571993 0.248663
H5    H     H_    0.099208 0.545638 0.914876 0.304796
H6    H     H_    0.850537 0.712046 0.098217 0.296026
H7    H     H_    0.900786 0.545629 0.085120 0.304802
H8    H     H_    0.101798 0.177026 0.460438 0.258958
H9    H     H_    0.104336 0.196225 0.573570 0.253427
H10   H     H_    0.898095 0.822937 0.539734 0.260834
H11   H     H_    0.895656 0.804026 0.426575 0.249012
H12   H     H_    0.898517 0.177405 0.540929 0.259326
N1    N     N_R   0.500000 0.852070 0.500000 -0.270148
N2    N     N_R   0.500000 0.147930 0.500000 -0.268034
N3    N     N_3   0.170158 0.607073 0.892750 -0.511277
N4    N     N_3   0.829817 0.607077 0.107228 -0.511339
N5    N     N_3   0.127437 0.242787 0.513644 -0.557861
N6    N     N_3   0.872531 0.757302 0.486443 -0.562240
N7    N     N_3   0.872775 0.242626 0.487453 -0.557800
N8    N     N_3   0.127240 0.757470 0.512350 -0.562086
O1    O     O_R   0.319640 0.618740 0.499990 -0.452233
O2    O     O_R   0.680360 0.381260 0.500010 -0.447965
O3    O     O_R   0.680360 0.618740 0.500010 -0.452157
O4    O     O_R   0.319640 0.381260 0.499990 -0.447895
O5    O     O_R   0.499970 0.618800 0.370260 -0.469833
O6    O     O_R   0.500030 0.381200 0.629740 -0.455050
O7    O     O_R   0.500030 0.618800 0.629740 -0.469945
O8    O     O_R   0.499970 0.381200 0.370260 -0.455159

loop_
_geom_bond_atom_site_label_1
_geom_bond_atom_site_label_2
_ccdc_geom_bond_type
C26   N5    S    
C28   C30   A    
Br9   C4    S    
C1    O4    A    
C12   O3    A    
H6    N4    S    
Br8   C3    S    
H12   N7    S    
H2    N7    S    
H5    N3    S    
C8    C11   S    
Br2   C6    S    
Cu1   Cu2   S    
C16   C18   A    
C10   C13   A    
C1    C2    S    
C28   N7    S    
C12   C30   S    
C22   C23   A    
C3    N2    A    
C2    C29   A    
C26   C28   A    
C4    N1    A    
C6    N1    A    
Br3   C10   S    
C27   C29   A    
Br6   C23   S    
C5    N2    A    
C16   C22   A    
Cu1   O7    S    
C7    C13   S    
Br7   C25   S    
C20   C25   A    
H4    N8    S    
Br5   C15   S    
H8    N5    S    
C22   N3    S    
C18   C20   A    
C18   C19   A    
C9    C11   A    
H11   N6    S    
C14   C16   A    
C27   C30   A    
C1    O1    A    
Br10  C5    S    
Cu2   O6    S    
C17   C24   A    
C15   C17   A    
Br4   C14   S    
C7    O8    A    
C11   C14   A    
Br1   C9    S    
C27   N6    S    
C2    C26   A    
C21   C23   A    
Cu1   O1    S    
C7    O5    A    
C8    O6    A    
Cu2   O2    S    
H3    N8    S    
Cu2   O8    S    
C13   C15   A    
H9    N5    S    
C17   C19   A    
Cu1   O5    S    
C19   C21   A    
C24   C25   A    
C3    C6    A    
C24   N4    S    
C29   N8    S    
H1    N3    S    
C8    O7    A    
Cu1   N1    S    
Cu1   O3    S    
H10   N6    S    
Cu2   N2    S    
C4    C5    A    
C9    C20   A    
C12   O2    A    
Cu2   O4    S    
H7    N4    S    
C10   C21   A    
