data_mof_unit_53618.cif
_audit_creation_date              2012-12-11T14:08:23-0500
_audit_creation_method            fapswitch 2.2
_symmetry_space_group_name_H-M    P1
_symmetry_Int_Tables_number       1
_space_group_crystal_system       triclinic
_cell_length_a                    28.244347
_cell_length_b                    7.185325
_cell_length_c                    17.191321
_cell_angle_alpha                 89.98964
_cell_angle_beta                  101.895636
_cell_angle_gamma                 90.047054
_cell_volume                      3413.96327868

loop_
_atom_site_label
_atom_site_type_symbol
_atom_type_description
_atom_site_fract_x
_atom_site_fract_y
_atom_site_fract_z
_atom_type_partial_charge
O1    O     O_R   0.000700 0.436510 0.857920 -0.545096
O2    O     O_R   0.999300 0.563490 0.142080 -0.540464
O3    O     O_R   0.999300 0.936510 0.642080 -0.545300
O4    O     O_R   0.000700 0.063490 0.357920 -0.538398
O5    O     O_R   0.930080 0.766380 0.721890 -0.508487
O6    O     O_R   0.069920 0.233620 0.278110 -0.510704
O7    O     O_R   0.069920 0.266380 0.778110 -0.508558
O8    O     O_R   0.930080 0.733620 0.221890 -0.507957
C1    C     C_R   0.910481 0.597462 0.708709 0.768491
C2    C     C_R   0.089482 0.402552 0.290659 0.772388
C3    C     C_R   0.089517 0.097664 0.791192 0.768469
C4    C     C_R   0.910487 0.902401 0.208737 0.770154
O9    O     O_R   0.996180 0.766230 0.862310 -0.543362
O10   O     O_R   0.003820 0.233770 0.137690 -0.547315
O11   O     O_R   0.003820 0.266230 0.637690 -0.543219
O12   O     O_R   0.996180 0.733770 0.362310 -0.550281
O13   O     O_R   0.065870 0.936460 0.783500 -0.508628
O14   O     O_R   0.934130 0.063540 0.216500 -0.508304
O15   O     O_R   0.934130 0.436460 0.716500 -0.508667
O16   O     O_R   0.065870 0.563540 0.283500 -0.512514
C5    C     C_R   0.998490 0.596453 0.894506 0.772634
C6    C     C_R   0.001514 0.403550 0.105496 0.775521
C7    C     C_R   0.001514 0.096468 0.605490 0.771900
C8    C     C_R   0.998483 0.903535 0.394509 0.765806
O17   O     O_3   0.022790 0.603020 0.723980 -0.373345
O18   O     O_3   0.977210 0.396980 0.276020 -0.372377
O19   O     O_3   0.977210 0.103020 0.776020 -0.373170
O20   O     O_3   0.022790 0.896980 0.223980 -0.372168
V1    V     V_3+5 0.995770 0.877900 0.754830 1.591068
V2    V     V_3+5 0.004230 0.122100 0.245170 1.589980
V3    V     V_3+5 0.004230 0.377900 0.745170 1.591421
V4    V     V_3+5 0.995770 0.622100 0.254830 1.584808
C9    C     C_2   0.001707 0.082741 0.519557 -0.296064
C10   C     C_2   0.998289 0.917269 0.480441 -0.307194
C11   C     C_2   0.998304 0.582726 0.980438 -0.301210
C12   C     C_2   0.001706 0.417283 0.019567 -0.305725
H1    H     H_    0.004507 0.211761 0.487871 0.149549
H2    H     H_    0.995489 0.788250 0.512128 0.147475
H3    H     H_    0.995525 0.711732 0.012114 0.149137
H4    H     H_    0.004487 0.288277 0.987892 0.147850
C13   C     C_R   0.683718 0.972872 0.023668 0.676558
C14   C     C_R   0.316350 0.031663 0.976446 0.676491
C15   C     C_R   0.316461 0.444253 0.474473 0.678095
C16   C     C_R   0.683753 0.526801 0.523115 0.676342
O21   O     O_2   0.713477 0.963762 0.971662 -0.457221
O22   O     O_2   0.286535 0.039423 0.028404 -0.457108
O23   O     O_2   0.286422 0.431888 0.525928 -0.455284
O24   O     O_2   0.713584 0.537554 0.471261 -0.457037
N1    N     N_R   0.702969 0.956686 0.103305 -0.553864
N2    N     N_R   0.297095 0.047601 0.896795 -0.554183
N3    N     N_R   0.297208 0.442351 0.394491 -0.554663
N4    N     N_R   0.702929 0.541544 0.602848 -0.553845
C17   C     C_R   0.673961 0.963285 0.157826 0.604551
C18   C     C_R   0.326151 0.042638 0.842315 0.603380
C19   C     C_R   0.326284 0.459115 0.340337 0.605254
C20   C     C_R   0.673848 0.533437 0.657250 0.604535
C21   C     C_R   0.775441 0.779779 0.168369 -0.171043
C22   C     C_R   0.224387 0.222631 0.831511 -0.170185
C23   C     C_R   0.219744 0.581823 0.327243 -0.164617
C24   C     C_R   0.775364 0.718690 0.668386 -0.171279
C25   C     C_R   0.826091 0.763850 0.194733 0.302231
C26   C     C_R   0.173739 0.237407 0.805000 0.303567
C27   C     C_R   0.169039 0.574436 0.300972 0.305109
C28   C     C_R   0.826019 0.735049 0.694812 0.301810
C29   C     C_R   0.835013 0.075496 0.143586 0.537246
C30   C     C_R   0.165206 0.925602 0.856268 0.535942
C31   C     C_R   0.169713 0.260899 0.355270 0.527527
C32   C     C_R   0.835036 0.424073 0.643195 0.537508
C33   C     C_R   0.784882 0.088594 0.118361 -0.169913
C34   C     C_R   0.215362 0.913624 0.881630 -0.170253
C35   C     C_R   0.220027 0.270629 0.380449 -0.162366
C36   C     C_R   0.784903 0.410566 0.617875 -0.169895
C37   C     C_R   0.754777 0.941371 0.130227 0.242138
C38   C     C_R   0.245265 0.061581 0.869798 0.241964
C39   C     C_R   0.245340 0.430998 0.366977 0.240995
C40   C     C_R   0.754739 0.557224 0.629949 0.242352
C41   C     C_R   0.602547 0.991265 0.051042 -0.122657
C42   C     C_R   0.397590 0.016042 0.949149 -0.122186
C43   C     C_R   0.397660 0.473471 0.447660 -0.124517
C44   C     C_R   0.602541 0.505615 0.550216 -0.122944
C45   C     C_R   0.633150 0.996475 0.995853 -0.128644
C46   C     C_R   0.366973 0.009740 0.004321 -0.129516
C47   C     C_R   0.367154 0.463035 0.503039 -0.121645
C48   C     C_R   0.633193 0.503055 0.495047 -0.128842
C49   C     C_R   0.613180 0.039214 0.915874 0.337423
C50   C     C_R   0.387009 0.967696 0.084359 0.339358
C51   C     C_R   0.387675 0.480412 0.584736 0.322562
C52   C     C_R   0.613253 0.463398 0.414689 0.337636
C53   C     C_R   0.623518 0.981094 0.132833 -0.010498
C54   C     C_R   0.376619 0.026235 0.867347 -0.006855
C55   C     C_R   0.376710 0.475787 0.365793 -0.010801
C56   C     C_R   0.623415 0.514857 0.632090 -0.009503
C57   C     C_R   0.856601 0.913347 0.182268 -0.218558
C58   C     C_R   0.143417 0.087315 0.817525 -0.218517
C59   C     C_R   0.143367 0.412617 0.315553 -0.218250
C60   C     C_R   0.856582 0.586109 0.682153 -0.217877
H5    H     H_    0.769265 0.214360 0.089099 0.168632
H6    H     H_    0.231151 0.788202 0.910968 0.168747
H7    H     H_    0.239453 0.153083 0.411073 0.169514
H8    H     H_    0.769330 0.284922 0.588365 0.168683
C61   C     C_R   0.478938 0.010168 0.917711 0.109923
C62   C     C_R   0.521226 0.998669 0.082495 0.102350
C63   C     C_R   0.521211 0.492355 0.581410 0.099897
C64   C     C_R   0.479053 0.488746 0.416570 0.102190
C65   C     C_R   0.469635 0.990197 0.057311 -0.034252
C66   C     C_R   0.530533 0.018334 0.942916 -0.033967
C67   C     C_R   0.530622 0.480710 0.441795 -0.034087
C68   C     C_R   0.469664 0.493343 0.556100 -0.032279
C69   C     C_R   0.448930 0.007050 0.975027 -0.005668
C70   C     C_R   0.551224 0.001216 0.025181 -0.005643
C71   C     C_R   0.551263 0.494172 0.524208 -0.004651
C72   C     C_R   0.449012 0.482309 0.473698 -0.004120
C73   C     C_R   0.455881 0.992952 0.836708 -0.105999
C74   C     C_R   0.544301 0.016406 0.163461 -0.104838
C75   C     C_R   0.544135 0.476962 0.662493 -0.107803
C76   C     C_R   0.456107 0.515589 0.336064 -0.106648
C77   C     C_R   0.406114 0.008817 0.811951 -0.166996
C78   C     C_R   0.594056 0.999834 0.188219 -0.155569
C79   C     C_R   0.593862 0.495429 0.687384 -0.157586
C80   C     C_R   0.406274 0.502546 0.310973 -0.152713
O25   O     O_2   0.306239 0.051621 0.763973 -0.495551
O26   O     O_2   0.693894 0.954542 0.236155 -0.497711
O27   O     O_2   0.693704 0.541325 0.735626 -0.498089
O28   O     O_2   0.306481 0.458363 0.261857 -0.497736
C81   C     C_R   0.562255 0.052810 0.889495 0.228855
C82   C     C_R   0.437953 0.955417 0.110776 0.226955
C83   C     C_R   0.437778 0.518650 0.609616 0.224849
C84   C     C_R   0.562316 0.450662 0.388047 0.225139
H9    H     H_    0.247768 0.336701 0.822471 0.148429
H10   H     H_    0.751902 0.666222 0.177401 0.149058
H11   H     H_    0.751795 0.831857 0.677573 0.149076
H12   H     H_    0.239523 0.705626 0.317016 0.148574
H13   H     H_    0.390723 0.001583 0.748831 0.174442
H14   H     H_    0.609458 0.007128 0.251317 0.172815
H15   H     H_    0.609176 0.489371 0.750530 0.173261
H16   H     H_    0.390925 0.517796 0.248137 0.171707
H17   H     H_    0.475000 0.957846 0.790705 0.185193
H18   H     H_    0.525196 0.052191 0.209406 0.196690
H19   H     H_    0.524763 0.443051 0.708399 0.208231
H20   H     H_    0.475475 0.556505 0.291060 0.195938
F1    F     F_    0.862240 0.221602 0.128359 -0.654200
F2    F     F_    0.138152 0.778932 0.871433 -0.654423
F3    F     F_    0.146836 0.104095 0.371883 -0.658705
F4    F     F_    0.862312 0.278491 0.627773 -0.654402
O29   O     O_3   0.644124 0.079407 0.865410 -0.591641
H21   H     H_    0.630055 0.180828 0.828919 0.308787
O30   O     O_3   0.356127 0.926985 0.134881 -0.591051
H22   H     H_    0.370399 0.826300 0.171640 0.307934
O31   O     O_3   0.358290 0.467494 0.639647 -0.589738
H23   H     H_    0.378206 0.428204 0.691467 0.308791
O32   O     O_3   0.644213 0.425931 0.363973 -0.591521
H24   H     H_    0.630023 0.326418 0.326477 0.308241
O33   O     O_3   0.153588 0.395528 0.765937 -0.597290
H25   H     H_    0.179619 0.486186 0.762764 0.317316
O34   O     O_3   0.846063 0.605225 0.233595 -0.597133
H26   H     H_    0.819914 0.515061 0.236739 0.317338
O35   O     O_3   0.845950 0.893572 0.733906 -0.597749
H27   H     H_    0.819775 0.983338 0.737191 0.317083
O36   O     O_3   0.144296 0.722282 0.260046 -0.599434
H28   H     H_    0.167501 0.823178 0.255175 0.323057
O37   O     O_3   0.543874 0.118004 0.813893 -0.664477
H29   H     H_    0.561617 0.056794 0.776809 0.296335
O38   O     O_3   0.456418 0.891131 0.186504 -0.665988
H30   H     H_    0.438617 0.952527 0.223484 0.297897
O39   O     O_3   0.454792 0.601396 0.682656 -0.660662
H31   H     H_    0.427868 0.665138 0.700692 0.300894
O40   O     O_3   0.543809 0.390653 0.311634 -0.665204
H32   H     H_    0.561861 0.453526 0.275368 0.298554

loop_
_geom_bond_atom_site_label_1
_geom_bond_atom_site_label_2
_ccdc_geom_bond_type
O17   V3    S    
C47   C51   A    
N1    C17   A    
C22   C26   A    
O39   H31   S    
O19   V1    S    
O13   V1    S    
O3    C7    A    
O30   H22   S    
C14   C46   A    
C27   O36   S    
C44   C48   A    
C31   F3    S    
C50   O30   S    
C51   C83   A    
O37   H29   S    
C42   C54   A    
O1    C5    A    
C66   C81   A    
C41   C53   A    
C32   C60   A    
C43   C72   A    
C63   C71   A    
C83   O39   S    
C56   C79   A    
N3    C39   S    
C67   C84   A    
C18   C54   A    
C17   O26   S    
N2    C38   S    
C66   C70   A    
O4    C8    A    
C25   C57   A    
C31   C35   A    
C50   C82   A    
C22   H9    S    
C61   C69   A    
C27   C59   A    
C15   C47   A    
O1    V3    S    
C61   C73   A    
C62   C65   A    
O2    V4    S    
C14   O22   S    
C21   C37   A    
O3    V1    S    
C34   C38   A    
C19   C55   A    
C77   H13   S    
C64   C76   A    
C49   C81   A    
C1    O15   A    
O35   H27   S    
C11   C12   D    
C2    O16   A    
C7    C9    S    
C28   O35   S    
O2    C6    A    
C84   O40   S    
O32   H24   S    
C33   C37   A    
C63   C68   A    
O14   V2    S    
C43   C55   A    
C78   H14   S    
C36   C40   A    
C30   C58   A    
C68   C72   A    
C16   N4    A    
O11   C7    A    
O15   V3    S    
O12   C8    A    
C31   C59   A    
O10   V2    S    
C25   O34   S    
C24   H11   S    
C13   N1    A    
C45   C49   A    
O29   H21   S    
O5    V1    S    
C23   H12   S    
O7    V3    S    
O8    V4    S    
C20   O27   S    
C21   H10   S    
C12   H4    S    
C28   C60   A    
O40   H32   S    
C64   C72   A    
O18   V4    S    
N4    C40   S    
C46   C50   A    
C35   H7    S    
C24   C40   A    
C8    C10   S    
C76   C80   A    
C32   C36   A    
C80   H16   S    
C44   C56   A    
C11   H3    S    
C54   C77   A    
O5    C1    A    
C63   C75   A    
C62   C74   A    
C29   F1    S    
C42   C46   A    
O7    C3    A    
O36   H28   S    
C41   C45   A    
O8    C4    A    
C13   C45   A    
C9    C10   D    
O9    C5    A    
N2    C18   A    
O11   V3    S    
C1    C60   S    
C74   C78   A    
C14   N2    A    
C73   C77   A    
C65   C82   A    
C3    C58   S    
O6    V2    S    
C18   O25   S    
C75   H19   S    
C75   C79   A    
C26   C58   A    
C17   C53   A    
C52   O32   S    
N1    C37   S    
C4    C57   S    
C62   C70   A    
C82   O38   S    
C23   C39   A    
C22   C38   A    
C9    H1    S    
O16   V4    S    
O9    V1    S    
C61   C66   A    
C65   C69   A    
C19   O28   S    
C3    O13   A    
C10   H2    S    
C67   C71   A    
C81   O37   S    
C48   C52   A    
C49   O29   S    
C16   C48   A    
C36   H8    S    
C21   C25   A    
C30   F2    S    
O12   V4    S    
C6    C12   S    
C23   C27   A    
C26   O33   S    
C24   C28   A    
C73   H17   S    
O10   C6    A    
O20   V2    S    
C5    C11   S    
C52   C84   A    
O31   H23   S    
C35   C39   A    
C15   N3    A    
C30   C34   A    
N4    C20   A    
C2    C59   S    
C29   C33   A    
C44   C71   A    
C29   C57   A    
C32   F4    S    
C42   C69   A    
N3    C19   A    
C74   H18   S    
C68   C83   A    
C41   C70   A    
C79   H15   S    
O38   H30   S    
O6    C2    A    
C43   C47   A    
C16   O24   S    
C20   C56   A    
C53   C78   A    
C51   O31   S    
C4    O14   A    
O34   H26   S    
C13   O21   S    
C55   C80   A    
O33   H25   S    
C15   O23   S    
C64   C67   A    
O4    V2    S    
C34   H6    S    
C76   H20   S    
C33   H5    S    
