data_mof_unit_39834.cif
_audit_creation_date              2012-12-10T17:38:51-0500
_audit_creation_method            fapswitch 2.2
_symmetry_space_group_name_H-M    P1
_symmetry_Int_Tables_number       1
_space_group_crystal_system       triclinic
_cell_length_a                    12.362445
_cell_length_b                    13.180444
_cell_length_c                    23.515399
_cell_angle_alpha                 76.880531
_cell_angle_beta                  101.944634
_cell_angle_gamma                 116.743414
_cell_volume                      3308.18211128

loop_
_atom_site_label
_atom_site_type_symbol
_atom_type_description
_atom_site_fract_x
_atom_site_fract_y
_atom_site_fract_z
_atom_type_partial_charge
C1    C     C_R   0.854971 0.286601 0.503879 0.789050
C2    C     C_R   0.948260 0.294001 0.049127 0.409207
C3    C     C_R   0.943015 0.296317 0.989222 -0.156964
C4    C     C_R   0.975039 0.399868 0.950011 -0.093372
C5    C     C_R   0.012349 0.504366 0.970854 -0.034599
C6    C     C_R   0.047189 0.609977 0.931252 -0.056098
C7    C     C_R   0.084612 0.715033 0.953562 0.121124
C8    C     C_R   0.084514 0.709657 0.014059 -0.142807
C9    C     C_R   0.971961 0.400702 0.890183 0.555855
C10   C     C_R   0.042889 0.604818 0.870937 0.523141
C11   C     C_R   0.914837 0.522212 0.749440 -0.101408
C12   C     C_R   0.999998 0.499391 0.609038 0.791554
C13   C     C_R   0.913322 0.521601 0.690053 -0.221806
C14   C     C_R   0.000529 0.498818 0.671803 -0.039849
C15   C     C_R   0.088560 0.475859 0.714101 -0.210508
C16   C     C_R   0.089738 0.476385 0.773439 -0.104291
C17   C     C_R   0.003156 0.499839 0.791276 0.362916
C18   C     C_R   0.893748 0.467871 0.230196 -0.190651
C19   C     C_R   0.889288 0.466745 0.289647 0.370532
C20   C     C_R   0.998731 0.498747 0.328566 -0.067918
C21   C     C_R   0.109678 0.529517 0.307690 -0.300142
C22   C     C_R   0.112777 0.530365 0.248759 -0.113688
C23   C     C_R   0.145185 0.714400 0.492325 0.817616
C24   C     C_R   0.005038 0.499704 0.209929 0.319712
C25   C     C_R   0.270174 0.034723 0.433146 0.124332
C26   C     C_R   0.227787 0.838297 0.482131 -0.182893
C27   C     C_R   0.817436 0.081789 0.532464 -0.163511
C28   C     C_R   0.739614 0.965567 0.539191 -0.120065
C29   C     C_R   0.615575 0.929429 0.520144 -0.191634
C30   C     C_R   0.567013 0.009620 0.491308 0.109978
C31   C     C_R   0.649907 0.125908 0.477261 0.078404
C32   C     C_R   0.439301 0.978921 0.476453 0.043867
C33   C     C_R   0.397243 0.061903 0.443346 0.063276
C34   C     C_R   0.999152 0.499298 0.391109 0.834617
C35   C     C_R   0.483675 0.170085 0.421276 -0.214576
C36   C     C_R   0.607205 0.200665 0.437190 -0.177158
C37   C     C_R   0.352683 0.868655 0.495082 -0.311908
C38   C     C_R   0.186274 0.923896 0.454964 0.348468
C39   C     C_R   0.773513 0.163537 0.503012 -0.111186
C40   C     C_R   0.340134 0.312980 0.585519 -0.270573
C41   C     C_R   0.759001 0.654543 0.423487 0.275536
C42   C     C_R   0.681088 0.707789 0.422540 0.403579
C43   C     C_R   0.580713 0.649828 0.453856 -0.364246
C44   C     C_R   0.560309 0.544027 0.488939 -0.027018
C45   C     C_R   0.047416 0.602639 0.112454 0.550398
C46   C     C_R   0.655757 0.506060 0.499292 0.224092
C47   C     C_R   0.451529 0.478742 0.517076 0.008674
C48   C     C_R   0.444636 0.380562 0.558180 0.066886
C49   C     C_R   0.542258 0.350085 0.572190 -0.261925
C50   C     C_R   0.646041 0.412235 0.543919 -0.145593
C51   C     C_R   0.347572 0.504714 0.505161 -0.063372
C52   C     C_R   0.242277 0.342328 0.573550 0.577765
C53   C     C_R   0.972385 0.398326 0.129870 0.548160
C54   C     C_R   0.978742 0.396883 0.070766 -0.123533
C55   C     C_R   0.013623 0.502292 0.031410 -0.061731
C56   C     C_R   0.048987 0.605490 0.052592 -0.045561
Cu1   Cu    Cu3+1 0.098270 0.475410 0.513370 0.939173
Cu2   Cu    Cu3+1 0.901730 0.524590 0.486630 0.931113
H1    H     H_    0.194476 0.554134 0.336937 0.171149
H2    H     H_    0.198948 0.554695 0.233181 0.149381
H3    H     H_    0.458006 0.234010 0.392311 0.160410
H4    H     H_    0.380261 0.803582 0.520434 0.176359
H5    H     H_    0.911958 0.107664 0.551219 0.192638
H6    H     H_    0.561216 0.837991 0.527789 0.127381
H7    H     H_    0.774919 0.903109 0.561214 0.151739
H8    H     H_    0.917043 0.216030 0.973802 0.209062
H9    H     H_    0.668479 0.283558 0.416744 0.209077
H10   H     H_    0.538233 0.276667 0.605327 0.158584
H11   H     H_    0.334032 0.236649 0.616774 0.170382
H12   H     H_    0.344000 0.575196 0.472244 0.145006
H13   H     H_    0.520643 0.690424 0.451004 0.139310
H14   H     H_    0.716852 0.384272 0.559386 0.202192
H15   H     H_    0.111617 0.787133 0.032052 0.201333
H16   H     H_    0.847481 0.540125 0.763030 0.140547
H17   H     H_    0.844169 0.539256 0.658523 0.163414
H18   H     H_    0.156739 0.457810 0.701413 0.164933
H19   H     H_    0.158345 0.459203 0.805616 0.141519
H20   H     H_    0.810940 0.443508 0.199583 0.138037
N1    N     N_R   0.008606 0.500239 0.149340 -0.457334
N2    N     N_R   0.005615 0.501766 0.852309 -0.459135
N3    N     N_R   0.246280 0.438190 0.533650 -0.226246
N4    N     N_R   0.754320 0.561190 0.466710 -0.257920
O1    O     O_R   0.972510 0.318130 0.516820 -0.571304
O2    O     O_2   0.928230 0.299341 0.167527 -0.509610
O3    O     O_2   0.935103 0.300997 0.869727 -0.539966
O4    O     O_2   0.076141 0.700872 0.830754 -0.568229
O5    O     O_R   0.806530 0.359650 0.494230 -0.603719
O6    O     O_R   0.082990 0.479200 0.593420 -0.605689
O7    O     O_R   0.917010 0.520720 0.570830 -0.597023
O8    O     O_R   0.193470 0.640350 0.505770 -0.584980
O9    O     O_R   0.027490 0.681870 0.483180 -0.587044
O10   O     O_R   0.082990 0.479280 0.429170 -0.588448
O11   O     O_R   0.917010 0.520800 0.406580 -0.569992
O12   O     O_2   0.082672 0.701298 0.133628 -0.538904
O13   O     O_3   0.925203 0.189924 0.084896 -0.678807
H21   H     H_    0.992212 0.203523 0.117834 0.352243
O14   O     O_3   0.779563 0.431627 0.310698 -0.753929
H22   H     H_    0.712600 0.412011 0.277809 0.322018
O15   O     O_3   0.064811 0.901949 0.449306 -0.737578
H23   H     H_    0.035058 0.861420 0.487811 0.342488
C57   C     C_3   0.222034 0.123464 0.401379 -0.366810
C58   C     C_3   0.242809 0.209181 0.441150 -0.787010
H24   H     H_    0.195498 0.163304 0.480931 0.268079
H25   H     H_    0.341457 0.257531 0.455004 0.249424
H26   H     H_    0.205521 0.271682 0.417102 0.247325
H27   H     H_    0.263972 0.168853 0.360195 0.180977
H28   H     H_    0.122727 0.082191 0.386542 0.259354
O16   O     O_3   0.142310 0.268578 0.602082 -0.757357
H29   H     H_    0.097412 0.311315 0.605705 0.363593
C59   C     C_3   0.837011 0.690513 0.373358 -0.328680
C60   C     C_3   0.835934 0.788770 0.324177 -0.732624
H30   H     H_    0.741637 0.771249 0.302727 0.271702
H31   H     H_    0.880080 0.872177 0.341098 0.308778
H32   H     H_    0.889952 0.796015 0.289914 0.224003
H33   H     H_    0.933605 0.714457 0.390427 0.254576
H34   H     H_    0.801608 0.614940 0.350493 0.234249
O17   O     O_3   0.704300 0.816552 0.391578 -0.726302
H35   H     H_    0.642529 0.841260 0.396728 0.332232
C61   C     C_3   0.123687 0.831618 0.913469 -0.324727
C62   C     C_3   0.161249 0.937860 0.942182 -0.860600
H36   H     H_    0.083973 0.931581 0.962060 0.263763
H37   H     H_    0.241646 0.948715 0.975891 0.261388
H38   H     H_    0.187156 0.015627 0.908093 0.260716
H39   H     H_    0.203383 0.846306 0.892592 0.246749
H40   H     H_    0.046570 0.829206 0.878890 0.245416

loop_
_geom_bond_atom_site_label_1
_geom_bond_atom_site_label_2
_ccdc_geom_bond_type
C57   H28   S    
C55   C56   A    
C1    O5    A    
C57   C58   S    
Cu1   O10   S    
O13   H21   S    
C41   C42   A    
C19   C20   A    
C34   O11   A    
Cu2   O5    S    
C8    C56   A    
C37   H4    S    
C19   O14   S    
C36   H9    S    
C7    C8    A    
C53   C54   A    
C53   O2    S    
C18   C24   A    
C28   C29   A    
C49   H10   S    
Cu2   O11   S    
C21   H1    S    
Cu2   N4    S    
C22   H2    S    
C5    C6    A    
C15   C16   A    
O16   H29   S    
C58   H26   S    
C18   C19   A    
C23   C26   S    
C50   H14   S    
C59   C60   S    
C40   H11   S    
C9    O3    S    
C46   N4    A    
C10   O4    S    
C47   C48   A    
C45   C56   A    
C27   C39   A    
C16   C17   A    
Cu1   O1    S    
C13   H17   S    
C51   H12   S    
Cu2   O9    S    
C51   N3    A    
C44   C47   A    
C20   C34   S    
C15   H18   S    
C29   H6    S    
C21   C22   A    
C52   N3    A    
C45   O12   S    
Cu2   O7    S    
C62   H37   S    
O14   H22   S    
Cu1   O8    S    
C12   O6    A    
C7    C61   S    
C12   O7    A    
C45   N1    A    
C2    C54   A    
C10   N2    A    
C26   C38   A    
C47   C51   A    
C44   C46   A    
C61   H39   S    
C17   N2    S    
C9    N2    A    
C43   C44   A    
C29   C30   A    
C25   C38   A    
C24   N1    S    
O15   H23   S    
C18   H20   S    
C23   O8    A    
C60   H31   S    
C32   C37   A    
C58   H25   S    
C27   H5    S    
C61   H40   S    
C48   C49   A    
C42   O17   S    
C12   C14   S    
C41   C59   S    
C23   O9    A    
C3    H8    S    
C42   C43   A    
C3    C4    A    
C59   H34   S    
C62   H36   S    
C57   H27   S    
C40   C48   A    
C54   C55   A    
C11   C17   A    
C43   H13   S    
C60   H30   S    
C53   N1    A    
C14   C15   A    
C5    C55   A    
C38   O15   S    
C11   H16   S    
C2    O13   S    
C6    C10   A    
C61   C62   S    
C62   H38   S    
C26   C37   A    
C6    C7    A    
C1    O1    A    
C46   C50   A    
Cu1   O6    S    
C32   C33   A    
C2    C3    A    
C40   C52   A    
O17   H35   S    
C30   C32   A    
C11   C13   A    
C25   C57   S    
Cu1   Cu2   S    
C30   C31   A    
C35   H3    S    
C41   N4    A    
C8    H15   S    
C33   C35   A    
C31   C39   A    
C28   H7    S    
C60   H32   S    
C22   C24   A    
C58   H24   S    
Cu1   N3    S    
C34   O10   A    
C1    C39   S    
C4    C5    A    
C20   C21   A    
C52   O16   S    
C49   C50   A    
C27   C28   A    
C31   C36   A    
C16   H19   S    
C35   C36   A    
C4    C9    A    
C13   C14   A    
C59   H33   S    
C25   C33   A    
