data_mof_unit_46031.cif
_audit_creation_date              2012-12-11T14:56:24-0500
_audit_creation_method            fapswitch 2.2
_symmetry_space_group_name_H-M    P1
_symmetry_Int_Tables_number       1
_space_group_crystal_system       triclinic
_cell_length_a                    10.542776
_cell_length_b                    10.691018
_cell_length_c                    17.135389
_cell_angle_alpha                 80.160511
_cell_angle_beta                  89.789828
_cell_angle_gamma                 119.221663
_cell_volume                      1652.25395593

loop_
_atom_site_label
_atom_site_type_symbol
_atom_type_description
_atom_site_fract_x
_atom_site_fract_y
_atom_site_fract_z
_atom_type_partial_charge
Br1   Br    Br    0.419970 0.511876 0.716088 -0.469202
Br2   Br    Br    0.935181 0.153158 0.784489 -0.449317
C1    C     C_R   0.222351 0.854048 0.128699 0.546953
C2    C     C_1   0.683869 0.400364 0.709808 -0.000536
C3    C     C_R   0.606827 0.709737 0.806347 -0.135100
C4    C     C_R   0.636024 0.279438 0.086515 0.538415
C5    C     C_R   0.581570 0.697419 0.728849 0.132587
C6    C     C_R   0.668052 0.818991 0.667323 0.000032
C7    C     C_R   0.773639 0.951412 0.686365 -0.124191
C8    C     C_R   0.788013 0.966826 0.765084 0.143162
C9    C     C_R   0.695745 0.846686 0.825496 -0.001666
C10   C     C_R   0.243639 0.968615 0.758712 -0.101970
C11   C     C_R   0.229760 0.955794 0.680349 -0.117270
C12   C     C_R   0.798064 0.419435 0.263520 -0.127954
C13   C     C_R   0.161373 0.817153 0.661214 0.022635
C14   C     C_R   0.120584 0.691922 0.720431 -0.108493
C15   C     C_R   0.137598 0.705262 0.799416 -0.122292
C16   C     C_R   0.640517 0.858249 0.125363 0.547455
C17   C     C_R   0.193503 0.843243 0.818782 0.026064
C18   C     C_R   0.686623 0.809995 0.357159 0.550225
C19   C     C_R   0.689624 0.396846 0.394413 0.550353
C20   C     C_R   0.103847 0.810409 0.359166 0.550130
C21   C     C_R   0.678030 0.797442 0.586936 0.552470
C22   C     C_R   0.716766 0.445229 0.626016 0.561752
C23   C     C_R   0.788021 0.405741 0.185166 -0.135441
C24   C     C_R   0.100580 0.802095 0.585744 0.539789
C25   C     C_R   0.225334 0.864585 0.898689 0.544541
C26   C     C_R   0.640030 0.289962 0.861697 0.547911
C27   C     C_R   0.649026 0.866210 0.900139 0.560963
C28   C     C_R   0.524812 0.302897 0.205946 -0.125120
C29   C     C_R   0.535303 0.318755 0.284711 -0.134338
C30   C     C_R   0.671290 0.370770 0.314390 0.031256
C31   C     C_R   0.650819 0.340147 0.157221 0.027408
C32   C     C_1   0.668894 0.848368 0.205398 -0.025063
C33   C     C_1   0.680586 0.839165 0.274748 -0.027899
C34   C     C_1   0.180402 0.825511 0.211250 -0.045468
C35   C     C_1   0.151274 0.819923 0.279757 -0.043949
C36   C     C_1   0.661385 0.356458 0.780252 -0.006459
Cr1   Cr    Cr6+3 0.402240 0.783890 0.019450 1.036859
Cr2   Cr    Cr6+3 0.382360 0.097900 0.991800 1.052984
Cr3   Cr    Cr6+3 0.715380 0.118170 0.988700 1.076228
Cr4   Cr    Cr6+3 0.936650 0.882420 0.465510 1.030297
Cr5   Cr    Cr6+3 0.605770 0.565620 0.493360 1.070248
Cr6   Cr    Cr6+3 0.921340 0.550490 0.496380 1.043847
H1    H     H_    0.417435 0.252413 0.185055 0.146278
H2    H     H_    0.540048 0.614613 0.852463 0.173975
H3    H     H_    0.263872 0.053686 0.635288 0.156628
H4    H     H_    0.067185 0.583553 0.706571 0.172633
H5    H     H_    0.104304 0.608609 0.845238 0.148987
H6    H     H_    0.886489 0.437582 0.148013 0.137455
H7    H     H_    0.845816 0.043090 0.639869 0.170895
H8    H     H_    0.295063 0.077383 0.772090 0.175359
H9    H     H_    0.437825 0.286757 0.322758 0.133959
H10   H     H_    0.905747 0.468252 0.284210 0.144489
O1    O     O_R   0.521780 0.757110 0.108900 -0.509859
O2    O     O_R   0.805020 0.410040 0.421340 -0.517776
O3    O     O_R   0.049240 0.685450 0.403290 -0.500568
O4    O     O_R   0.275160 0.783810 0.101120 -0.498515
O5    O     O_R   0.077520 0.903010 0.551800 -0.515385
O6    O     O_R   0.802980 0.872780 0.546830 -0.514175
O7    O     O_R   0.578090 0.681300 0.569920 -0.461515
O8    O     O_R   0.608530 0.436370 0.586530 -0.466462
O9    O     O_R   0.798770 0.401880 0.597100 -0.495819
O10   O     O_R   0.043450 0.677890 0.566230 -0.514509
O11   O     O_3   0.821250 0.666180 0.485090 -0.289696
O12   O     O_R   0.513330 0.228330 0.898660 -0.494356
O13   O     O_R   0.237900 0.972600 0.090980 -0.508591
O14   O     O_R   0.511190 0.220540 0.061620 -0.511401
O15   O     O_R   0.736920 0.257720 0.063840 -0.519093
O16   O     O_R   0.710450 0.984050 0.081720 -0.495665
O17   O     O_R   0.524090 0.765520 0.933110 -0.525663
O18   O     O_R   0.277300 0.791600 0.938160 -0.499128
O19   O     O_R   0.240210 0.981010 0.915190 -0.501539
O20   O     O_R   0.739230 0.266130 0.888050 -0.480781
O21   O     O_R   0.712580 0.991850 0.918770 -0.449029
O22   O     O_3   0.499990 0.999980 0.999980 -0.266268
O23   O     O_R   0.083770 0.911170 0.376030 -0.506862
O24   O     O_R   0.808770 0.880340 0.383890 -0.494420
O25   O     O_R   0.584340 0.689460 0.394160 -0.506670
O26   O     O_R   0.614320 0.443940 0.423590 -0.499746

loop_
_geom_bond_atom_site_label_1
_geom_bond_atom_site_label_2
_ccdc_geom_bond_type
C16   O16   A    
C4    O15   A    
C28   H1    S    
C7    H7    S    
C26   O20   A    
C14   H4    S    
C20   O3    A    
C5    C6    A    
Cr6   O10   S    
C34   C35   T    
C3    C9    A    
C28   C29   A    
C2    C22   S    
Cr5   O25   S    
C13   C14   A    
C6    C21   S    
Cr2   O19   S    
C10   C17   A    
C32   C33   T    
C24   O10   A    
C23   H6    S    
Cr3   O20   S    
C18   C33   S    
C11   H3    S    
Cr1   O1    S    
C14   C15   A    
Cr2   O13   S    
Cr4   O11   S    
Cr1   O18   S    
C17   C25   S    
C7    C8    A    
C18   O25   A    
C4    O14   A    
Cr2   O12   S    
Cr6   O11   S    
C10   H8    S    
Cr6   O9    S    
C21   O6    A    
C19   C30   S    
C15   H5    S    
C3    C5    A    
C6    C7    A    
C13   C24   S    
Cr5   O26   S    
C20   C35   S    
Cr2   O22   S    
C26   O12   A    
Cr3   O21   S    
Cr6   O2    S    
C29   C30   A    
C26   C36   S    
Cr6   O3    S    
Cr5   O11   S    
Cr1   O22   S    
C29   H9    S    
C16   C32   S    
C16   O1    A    
C12   H10   S    
C2    C36   T    
Cr4   O24   S    
C22   O9    A    
C11   C13   A    
Cr4   O6    S    
Br2   C8    S    
Cr5   O7    S    
Cr3   O15   S    
C24   O5    A    
C22   O8    A    
C28   C31   A    
Br1   C5    S    
C1    O13   A    
C20   O23   A    
C12   C30   A    
Cr4   O5    S    
C19   O2    A    
C27   O21   A    
C3    H2    S    
C4    C31   S    
C18   O24   A    
Cr3   O22   S    
Cr1   O4    S    
C1    C34   S    
C19   O26   A    
C15   C17   A    
C12   C23   A    
C8    C9    A    
C1    O4    A    
C21   O7    A    
C10   C11   A    
C9    C27   S    
Cr4   O23   S    
Cr2   O14   S    
Cr1   O17   S    
C25   O19   A    
C25   O18   A    
Cr5   O8    S    
C23   C31   A    
Cr3   O16   S    
C27   O17   A    
