data_mof_unit_23207.cif
_audit_creation_date              2012-10-26T21:05:41-0400
_audit_creation_method            fapswitch 2.2
_symmetry_space_group_name_H-M    P1
_symmetry_Int_Tables_number       1
_space_group_crystal_system       triclinic
_cell_length_a                    13.027472
_cell_length_b                    9.095804
_cell_length_c                    7.788008
_cell_angle_alpha                 90.024263
_cell_angle_beta                  95.777127
_cell_angle_gamma                 89.976495
_cell_volume                      918.155304785

loop_
_atom_site_label
_atom_site_type_symbol
_atom_type_description
_atom_site_fract_x
_atom_site_fract_y
_atom_site_fract_z
_atom_type_partial_charge
Br1   Br    Br    0.800795 0.714729 0.271223 -0.487024
Br2   Br    Br    0.199205 0.285256 0.728755 -0.487025
C1    C     C_R   0.500000 0.220038 0.499981 0.559792
C2    C     C_R   0.861166 0.408823 0.676522 -0.153368
C3    C     C_R   0.131578 0.427380 0.569427 0.146940
C4    C     C_R   0.868421 0.572609 0.430565 0.146937
C5    C     C_R   0.024784 0.452555 0.564041 0.037294
C6    C     C_R   0.975216 0.547437 0.435957 0.037288
C7    C     C_1   0.499997 0.065372 0.499974 -0.008744
C8    C     C_1   0.500003 0.934628 0.500026 -0.008745
C9    C     C_R   0.500000 0.779962 0.500019 0.559790
C10   C     C_R   0.300375 0.496444 0.468836 0.569530
C11   C     C_R   0.699625 0.503556 0.531164 0.569529
C12   C     C_R   0.811598 0.498233 0.548140 0.026619
C13   C     C_R   0.188402 0.501766 0.451860 0.026623
C14   C     C_R   0.033460 0.613654 0.315058 -0.104731
C15   C     C_R   0.966542 0.386351 0.684954 -0.104724
C16   C     C_R   0.138837 0.591192 0.323495 -0.153371
Cu1   Cu    Cu3+1 0.500010 0.500000 0.669080 1.099398
Cu2   Cu    Cu3+1 0.499990 0.500000 0.330920 1.099398
H1    H     H_    0.817580 0.352216 0.767826 0.150314
H2    H     H_    0.182426 0.647816 0.232209 0.150309
H3    H     H_    0.999099 0.684511 0.213770 0.184369
H4    H     H_    0.000904 0.315497 0.786254 0.184363
N1    N     N_1   0.499980 0.500000 0.076820 -0.057233
N2    N     N_1   0.500020 0.500000 0.923180 -0.057233
O1    O     O_R   0.500000 0.288400 0.642760 -0.487568
O2    O     O_R   0.500000 0.711600 0.357240 -0.487569
O3    O     O_R   0.500000 0.288400 0.357240 -0.497993
O4    O     O_R   0.500000 0.711600 0.642760 -0.497992
O5    O     O_R   0.349000 0.500000 0.619590 -0.466694
O6    O     O_R   0.651000 0.500000 0.380410 -0.466692
O7    O     O_R   0.348990 0.500000 0.334020 -0.510892
O8    O     O_R   0.651010 0.500000 0.665980 -0.510893

loop_
_geom_bond_atom_site_label_1
_geom_bond_atom_site_label_2
_ccdc_geom_bond_type
C13   C16   A    
C1    C7    S    
C4    C12   A    
Cu1   O1    S    
C7    C8    T    
C11   O6    A    
Cu1   Cu2   S    
C10   C13   S    
Cu1   O5    S    
C1    O1    A    
N1    N2    T    
C8    C9    S    
C5    C6    A    
C6    C14   A    
C11   C12   S    
C2    H1    S    
C9    O2    A    
Cu2   O7    S    
C14   H3    S    
C3    C5    A    
Cu2   O3    S    
C10   O5    A    
C2    C12   A    
C3    C13   A    
Br2   C3    S    
Cu2   N1    S    
C2    C15   A    
Br1   C4    S    
C15   H4    S    
C11   O8    A    
C14   C16   A    
Cu2   O6    S    
C1    O3    A    
Cu1   N2    S    
C4    C6    A    
Cu2   O2    S    
C10   O7    A    
C16   H2    S    
Cu1   O4    S    
C9    O4    A    
C5    C15   A    
Cu1   O8    S    
