data_mof_unit_54389.cif
_audit_creation_date              2013-03-05T15:55:04-0500
_audit_creation_method            fapswitch 2.2
_symmetry_space_group_name_H-M    P1
_symmetry_Int_Tables_number       1
_space_group_crystal_system       triclinic
_cell_length_a                    15.199604
_cell_length_b                    14.976715
_cell_length_c                    14.900682
_cell_angle_alpha                 109.336835
_cell_angle_beta                  109.900499
_cell_angle_gamma                 109.158155
_cell_volume                      2611.65340951

loop_
_atom_site_label
_atom_site_type_symbol
_atom_site_description
_atom_site_fract_x
_atom_site_fract_y
_atom_site_fract_z
_atom_type_partial_charge
C1    C     C_R   0.187769 0.277054 0.249027 -0.144746
H1    H     H_    0.126154 0.298827 0.243214 0.117744
N1    N     N_R   0.291070 0.347930 0.293870 -0.044433
C2    C     C_R   0.595393 0.503666 0.803394 -0.106522
H2    H     H_    0.660651 0.488313 0.833803 0.182602
N2    N     N_R   0.554050 0.497220 0.706150 -0.055663
C3    C     C_R   0.503983 0.200788 0.409466 -0.174310
H3    H     H_    0.481098 0.149840 0.325478 0.124556
N3    N     N_R   0.497240 0.291100 0.443210 -0.065056
C4    C     C_R   0.291269 0.590720 0.592234 0.554908
N4    N     N_R   0.347890 0.554050 0.556810 -0.082552
C5    C     C_R   0.592159 0.290452 0.592152 0.370932
N5    N     N_R   0.554050 0.347900 0.556830 -0.090108
C6    C     C_R   0.198071 0.497325 0.408957 -0.186868
H4    H     H_    0.138746 0.463618 0.324099 0.137032
N6    N     N_R   0.291070 0.497250 0.443190 -0.071802
C7    C     C_R   0.502189 0.591100 0.803719 -0.016160
H5    H     H_    0.478271 0.649775 0.833333 0.190547
N7    N     N_R   0.497240 0.554030 0.706140 -0.054009
C8    C     C_R   0.278297 0.185210 0.244811 -0.107673
H6    H     H_    0.301360 0.123832 0.232969 0.163972
N8    N     N_R   0.347890 0.291110 0.293870 -0.055567
C9    C     C_R   0.176345 0.173425 0.215605 0.125207
C10   C     C_R   0.564941 0.561813 0.866599 -0.014451
C11   C     C_R   0.565683 0.199021 0.501210 -0.075379
C12   C     C_R   0.195018 0.552275 0.501091 -0.160916
C13   C     C_R   0.458395 0.722601 0.407042 -0.153860
H7    H     H_    0.412416 0.703093 0.324251 0.164327
N9    N     N_R   0.445950 0.652100 0.443170 -0.050369
C14   C     C_R   0.806766 0.514307 0.592212 -0.058686
H8    H     H_    0.868915 0.556166 0.677507 0.115178
N10   N     N_R   0.708930 0.502750 0.556810 -0.042229
C15   C     C_R   0.560243 0.467213 0.246563 -0.137871
H9    H     H_    0.615480 0.438697 0.241835 0.107540
N11   N     N_R   0.502760 0.445970 0.293860 -0.042229
C16   C     C_R   0.702106 0.793315 0.807134 0.273104
N12   N     N_R   0.652110 0.708890 0.706130 -0.091965
C17   C     C_R   0.799261 0.709742 0.804445 -0.193053
H10   H     H_    0.854572 0.681263 0.831378 0.136546
N13   N     N_R   0.708930 0.652070 0.706130 -0.061558
C18   C     C_R   0.462374 0.550566 0.234554 -0.140373
H11   H     H_    0.420157 0.589370 0.205977 0.129663
N14   N     N_R   0.445950 0.502780 0.293850 -0.041201
C19   C     C_R   0.561607 0.814234 0.589950 -0.065386
H12   H     H_    0.619345 0.877942 0.674143 0.125555
N15   N     N_R   0.502760 0.708900 0.556790 -0.038200
C20   C     C_R   0.712295 0.415828 0.408216 -0.166872
H13   H     H_    0.686386 0.361163 0.324098 0.105099
N16   N     N_R   0.652110 0.445950 0.443190 -0.044722
Ni1   Ni    Ni4+2 0.369690 0.500010 0.369700 0.214968
Ni2   Ni    Ni4+2 0.630310 0.499990 0.630300 0.262677
Ni3   Ni    Ni4+2 0.500000 0.369720 0.369720 0.198773
Ni4   Ni    Ni4+2 0.500000 0.630280 0.630280 0.296796
C21   C     C_R   0.535867 0.824120 0.496165 0.034218
C22   C     C_R   0.809970 0.460888 0.499536 0.048506
C23   C     C_R   0.538841 0.534723 0.210426 0.075364
C24   C     C_R   0.796742 0.798887 0.869354 -0.031666
H14   H     H_    0.103971 0.732152 0.193084 0.129063
C25   C     C_R   0.161886 0.747081 0.353536 -0.075707
H15   H     H_    0.235958 0.822530 0.391572 0.129663
C26   C     C_R   0.140717 0.700809 0.416527 -0.151334
H16   H     H_    0.198752 0.741969 0.503445 0.094873
C27   C     C_R   0.045111 0.602196 0.367498 0.130560
C28   C     C_R   0.970428 0.552017 0.254858 -0.171176
H17   H     H_    0.896600 0.475819 0.215170 0.114126
C29   C     C_R   0.991626 0.598965 0.192338 -0.124568
H18   H     H_    0.934017 0.559686 0.105575 0.125493
C30   C     C_R   0.087425 0.696191 0.241584 -0.049517
C31   C     C_R   0.925489 0.520896 0.430762 -0.254806
H19   H     H_    0.867078 0.536245 0.381741 0.134756
C32   C     C_R   0.905260 0.476562 0.495727 0.073410
C33   C     C_R   0.980311 0.459522 0.562848 -0.019086
C34   C     C_R   0.076066 0.487399 0.563787 -0.198591
H20   H     H_    0.133380 0.470509 0.612039 0.159958
C35   C     C_R   0.097668 0.534114 0.501295 0.071622
C36   C     C_R   0.022883 0.551373 0.433482 0.026864
C37   C     C_R   0.005900 0.473704 0.742476 -0.135430
H21   H     H_    0.048045 0.561800 0.781122 0.103312
C38   C     C_R   0.998295 0.425098 0.807087 -0.000669
H22   H     H_    0.032622 0.475411 0.894724 0.113101
C39   C     C_R   0.948397 0.311634 0.758907 -0.087976
H23   H     H_    0.943719 0.274025 0.809140 0.107415
C40   C     C_R   0.905100 0.246687 0.645893 -0.138362
H24   H     H_    0.868023 0.158940 0.608919 0.124524
C41   C     C_R   0.909786 0.294819 0.580517 -0.125627
H25   H     H_    0.877045 0.243785 0.493280 0.113266
C42   C     C_R   0.960686 0.408646 0.628639 0.118514
C43   C     C_R   0.654231 0.546728 0.029850 0.111432
C44   C     C_R   0.605436 0.596887 0.982791 0.036793
C45   C     C_R   0.577874 0.664933 0.044053 -0.105961
H26   H     H_    0.548684 0.713082 0.016454 0.189747
C46   C     C_R   0.569511 0.655646 0.131298 -0.198381
H27   H     H_    0.534820 0.696368 0.168720 0.169041
C47   C     C_R   0.588699 0.579334 0.156326 0.012982
C48   C     C_R   0.645585 0.537762 0.115890 0.167252
C49   C     C_3   0.632750 0.425999 0.073342 -0.548254
C50   C     C_3   0.642496 0.435724 0.979411 -0.409203
H28   H     H_    0.701768 0.423868 0.128891 0.189643
H29   H     H_    0.551561 0.361273 0.045784 0.207847
H30   H     H_    0.717399 0.439524 0.981198 0.218079
H31   H     H_    0.566921 0.375985 0.898826 0.220853
C51   C     C_R   0.520143 0.921820 0.392579 0.066721
C52   C     C_R   0.575111 0.923102 0.490661 0.007903
C53   C     C_R   0.652408 0.022783 0.587806 -0.214023
H32   H     H_    0.699394 0.026554 0.663544 0.131209
C54   C     C_R   0.662553 0.119207 0.590851 -0.144164
H33   H     H_    0.718255 0.193379 0.668348 0.195444
C55   C     C_R   0.597192 0.116673 0.496324 0.080523
C56   C     C_R   0.536412 0.020025 0.396424 0.081420
C57   C     C_3   0.561343 0.997750 0.305723 -0.577505
C58   C     C_3   0.535487 0.887282 0.294355 0.202593
H34   H     H_    0.504358 0.996639 0.234408 0.219547
H35   H     H_    0.647856 0.050250 0.335350 0.181960
H36   H     H_    0.603785 0.870894 0.308075 0.050695
C59   C     C_R   0.979375 0.078089 0.105415 0.068996
C60   C     C_R   0.072741 0.072283 0.153011 -0.125420
C61   C     C_R   0.062796 0.967662 0.126633 0.556428
C62   C     C_R   0.961281 0.873780 0.045477 -0.413240
H37   H     H_    0.952326 0.793539 0.022564 0.148498
C63   C     C_R   0.877488 0.884330 0.982162 0.045871
C64   C     C_R   0.884686 0.986254 0.020149 0.277421
C65   C     C_3   0.855905 0.043094 0.958893 -0.475931
C66   C     C_3   0.959596 0.144542 0.052270 -0.519796
H38   H     H_    0.855848 0.013393 0.879840 0.167994
H39   H     H_    0.783560 0.049066 0.953796 0.232491
H40   H     H_    0.019056 0.173850 0.026758 0.202976
H41   H     H_    0.945827 0.208010 0.099971 0.201342
N17   N     N_R   0.643428 0.832325 0.852048 0.210557
O1    O     O_R   0.666071 0.856311 0.952345 -0.448950
O2    O     O_R   0.554273 0.823071 0.787260 -0.462541
N18   N     N_R   0.435274 0.801647 0.190568 0.228043
O3    O     O_R   0.432464 0.783223 0.097676 -0.443267
O4    O     O_R   0.346210 0.751266 0.188773 -0.466151
O5    O     O_3   0.323103 0.646966 0.702519 -0.649707
C67   C     C_3   0.309451 0.739327 0.726330 0.244985
H42   H     H_    0.223022 0.715916 0.685881 0.083116
H43   H     H_    0.352222 0.792375 0.700279 0.127431
C68   C     C_3   0.355813 0.804863 0.849909 -0.745134
H44   H     H_    0.442458 0.829990 0.894954 0.299083
H45   H     H_    0.347549 0.878938 0.870248 0.184107
H46   H     H_    0.311563 0.754737 0.877045 0.253202
O6    O     O_3   0.152787 0.958073 0.174189 -0.639096
C69   C     C_3   0.162012 0.886643 0.091808 0.197267
H47   H     H_    0.135337 0.892974 0.015490 0.087942
H48   H     H_    0.113653 0.801084 0.070342 0.115006
C70   C     C_3   0.278558 0.913454 0.134659 -0.815689
H49   H     H_    0.312466 0.919950 0.216847 0.284703
H50   H     H_    0.282356 0.848059 0.076037 0.265801
H51   H     H_    0.327368 0.991039 0.140602 0.201093
N19   N     N_R   0.673186 0.335479 0.702917 0.195960
O7    O     O_R   0.650854 0.296410 0.763265 -0.468793
O8    O     O_R   0.763950 0.423942 0.747885 -0.477817

loop_
_geom_bond_atom_site_label_1
_geom_bond_atom_site_label_2
_geom_bond_distance
_ccdc_geom_bond_type
C67   C68   1.521997 S    
C29   C30   1.397264 A    
C3    N3    1.329843 A    
C59   C64   1.369665 A    
C13   N9    1.324805 A    
C34   C35   1.397564 A    
C34   H20   1.085596 S    
C48   C49   1.496808 S    
N17   O1    1.301590 A    
C33   C42   1.474841 S    
C62   C63   1.396402 A    
C53   C54   1.384543 A    
C39   H23   1.082470 S    
C13   C21   1.372961 A    
C3    H3    1.080034 S    
C18   C23   1.394774 A    
C41   H25   1.083302 S    
C19   H12   1.078234 S    
C23   C47   1.452848 S    
N2    N7    1.397045 A    
N8    Ni3   1.887373 S    
C16   N12   1.331108 A    
N6    Ni1   1.875434 S    
N12   N13   1.397291 A    
C31   H19   1.085494 S    
C17   H10   1.081098 S    
C2    C10   1.370309 A    
C27   C36   1.487678 S    
C59   C60   1.400395 A    
C17   C24   1.386739 A    
C49   H29   1.112396 S    
C55   C56   1.386977 A    
C31   C36   1.380156 A    
C26   C27   1.407380 A    
C1    H1    1.074631 S    
C18   H11   1.073997 S    
C31   C32   1.402407 A    
N3    N5    1.380016 A    
C62   H37   1.080996 S    
C52   C53   1.401541 A    
C15   N11   1.321550 A    
C9    C60   1.463941 S    
N5    Ni2   1.866081 S    
C45   C46   1.395061 A    
C40   H24   1.082220 S    
C49   H28   1.111299 S    
N2    Ni2   1.874572 S    
C14   N10   1.325206 A    
N11   N14   1.397042 A    
N1    N8    1.397292 A    
C43   C50   1.499043 S    
N4    Ni4   1.887859 S    
N12   Ni4   1.887372 S    
N7    Ni4   1.854532 S    
C15   C23   1.369386 A    
C41   C42   1.402157 A    
C29   H18   1.082490 S    
C43   C48   1.376988 A    
C25   H15   1.082647 S    
C67   H43   1.114244 S    
C10   C44   1.453403 S    
C18   N14   1.344185 A    
C51   C58   1.508085 S    
C16   N17   1.440172 S    
N3    Ni3   1.854743 S    
C53   H32   1.081425 S    
C39   C40   1.398453 A    
N1    Ni1   1.866134 S    
C19   N15   1.337773 A    
C7    H5    1.077589 S    
C70   H50   1.109262 S    
N9    Ni1   1.866081 S    
C37   C38   1.398150 A    
C25   C26   1.398132 A    
C7    C10   1.385063 A    
C59   C66   1.504747 S    
C5    N19   1.424646 S    
C21   C52   1.446901 S    
C67   H42   1.109352 S    
C38   H22   1.082476 S    
C2    N2    1.323428 A    
C16   C24   1.377564 A    
C68   H44   1.110052 S    
C69   C70   1.516667 S    
C38   C39   1.397781 A    
C2    H2    1.074606 S    
C66   H40   1.112646 S    
C37   H21   1.083390 S    
C6    C12   1.372730 A    
C57   C58   1.504224 S    
C1    N1    1.326907 A    
C28   C29   1.398383 A    
C35   C36   1.401367 A    
N10   Ni2   1.875436 S    
C25   C30   1.396835 A    
C70   H51   1.108927 S    
N4    N6    1.380018 A    
C66   H41   1.112180 S    
C20   H13   1.081286 S    
C8    C9    1.390106 A    
N16   Ni3   1.887859 S    
C50   H31   1.112118 S    
C49   C50   1.504695 S    
C46   C47   1.399051 A    
C15   H9    1.071424 S    
C47   C48   1.399236 A    
C8    H6    1.070147 S    
C57   H35   1.112905 S    
C64   C65   1.495436 S    
C68   H45   1.110455 S    
C24   C63   1.452427 S    
H14   C30   1.080819 S    
C40   C41   1.397241 A    
C8    N8    1.331693 A    
C1    C9    1.392591 A    
C6    N6    1.329987 A    
C65   H38   1.112417 S    
N18   O3    1.301131 A    
N11   Ni3   1.854531 S    
C50   H30   1.111736 S    
C63   C64   1.392313 A    
C20   C22   1.367519 A    
C70   H49   1.110582 S    
C58   N18   1.468766 S    
C69   H48   1.111255 S    
O6    C69   1.420186 S    
C4    O5    1.385147 S    
C33   C34   1.369745 A    
N18   O4    1.301621 A    
C68   H46   1.110936 S    
N17   O2    1.298099 A    
N14   Ni1   1.874572 S    
O5    C67   1.412760 S    
C20   N16   1.323501 A    
N13   Ni2   1.866134 S    
C14   C22   1.374463 A    
C5    C11   1.382583 A    
C3    C11   1.384374 A    
N9    N15   1.380017 A    
C28   H17   1.082614 S    
C65   H39   1.111365 S    
C26   H16   1.082645 S    
C61   O6    1.389322 S    
C65   C66   1.504597 S    
C32   C33   1.396478 A    
C61   C62   1.414177 A    
C17   N13   1.338525 A    
C4    C12   1.375833 A    
C45   H26   1.080801 S    
C14   H8    1.080279 S    
C54   C55   1.399848 A    
N15   Ni4   1.854742 S    
C46   H27   1.070957 S    
C7    N7    1.338472 A    
C60   C61   1.424315 A    
C58   H36   1.111594 S    
N19   O8    1.300245 A    
C51   C52   1.404987 A    
C57   H34   1.109924 S    
N10   N16   1.380018 A    
C4    N4    1.322270 A    
C27   C28   1.406462 A    
C19   C21   1.389515 A    
C43   C44   1.402343 A    
C37   C42   1.404034 A    
C12   C35   1.415235 S    
C54   H33   1.073265 S    
C13   H7    1.065838 S    
C6    H4    1.081231 S    
C51   C56   1.386908 A    
C5    N5    1.331258 A    
C44   C45   1.404237 A    
C56   C57   1.488122 S    
C22   C32   1.413401 S    
C69   H47   1.117717 S    
C11   C55   1.451771 S    
N19   O7    1.300785 A    
