data_mof_unit_40608.cif
_audit_creation_date              2012-12-10T18:57:05-0500
_audit_creation_method            fapswitch 2.2
_symmetry_space_group_name_H-M    P1
_symmetry_Int_Tables_number       1
_space_group_crystal_system       triclinic
_cell_length_a                    10.785143
_cell_length_b                    9.829613
_cell_length_c                    10.817936
_cell_angle_alpha                 90.000418
_cell_angle_beta                  89.49063
_cell_angle_gamma                 89.998535
_cell_volume                      1146.80498608

loop_
_atom_site_label
_atom_site_type_symbol
_atom_type_description
_atom_site_fract_x
_atom_site_fract_y
_atom_site_fract_z
_atom_type_partial_charge
C1    C     C_R   0.259856 0.499895 0.509969 0.974792
C2    C     C_R   0.740138 0.499892 0.490003 0.974716
C3    C     C_R   0.580014 0.070566 0.573479 0.343775
C4    C     C_R   0.419987 0.070569 0.426519 0.343788
C5    C     C_R   0.582758 0.927225 0.569228 -0.048761
C6    C     C_R   0.417242 0.927229 0.430771 -0.048856
C7    C     C_R   0.497490 0.500026 0.260327 0.910655
C8    C     C_R   0.502518 0.500027 0.739673 0.910712
C9    C     C_R   0.495931 0.619248 0.061978 -0.034195
C10   C     C_R   0.504063 0.619250 0.938025 -0.034161
C11   C     C_R   0.495596 0.499050 0.129078 -0.074141
C12   C     C_R   0.504445 0.499053 0.870921 -0.074144
C13   C     C_R   0.498690 0.374827 0.064280 -0.139858
C14   C     C_R   0.501432 0.374827 0.935718 -0.139857
C15   C     C_3   0.512448 0.770701 0.929259 0.427580
C16   C     C_3   0.487420 0.770692 0.070743 0.427569
C17   C     C_R   0.061298 0.375860 0.517751 0.254734
C18   C     C_R   0.938699 0.375853 0.482170 0.254733
C19   C     C_R   0.873598 0.500077 0.480782 -0.377015
C20   C     C_R   0.126392 0.500088 0.519121 -0.377001
C21   C     C_R   0.937701 0.624845 0.487002 0.362762
C22   C     C_R   0.062285 0.624851 0.512827 0.362785
H1    H     H_    0.498850 0.277981 0.112009 0.220846
H2    H     H_    0.501326 0.277982 0.887986 0.220858
H3    H     H_    0.649672 0.871577 0.622742 0.220296
H4    H     H_    0.350336 0.871583 0.377247 0.220358
N1    N     N_R   0.500000 0.857200 0.500000 -0.131642
N2    N     N_R   0.500000 0.142810 0.500000 -0.145486
O1    O     O_R   0.316770 0.614620 0.499990 -0.593340
O2    O     O_R   0.683230 0.614620 0.500010 -0.593353
O3    O     O_R   0.316800 0.385290 0.500000 -0.557334
O4    O     O_R   0.683200 0.385290 0.500000 -0.557331
O5    O     O_R   0.500000 0.614690 0.316780 -0.596858
O6    O     O_R   0.500000 0.614690 0.683220 -0.596838
O7    O     O_R   0.500020 0.385360 0.316780 -0.604331
O8    O     O_R   0.499980 0.385360 0.683220 -0.604325
Zn1   Zn    Zn3+2 0.500000 0.653120 0.500000 1.018838
Zn2   Zn    Zn3+2 0.500000 0.346880 0.500000 1.072642
Br1   Br    Br    0.679611 0.821572 0.877138 -0.481763
Br2   Br    Br    0.320219 0.821410 0.122871 -0.481687
Br3   Br    Br    0.388244 0.858434 0.828598 -0.506625
Br4   Br    Br    0.611548 0.858555 0.171398 -0.506612
Br5   Br    Br    0.128375 0.207449 0.582174 -0.429798
Br6   Br    Br    0.871613 0.207401 0.417825 -0.429655
O9    O     O_3   0.878851 0.749784 0.479399 -0.616801
C23   C     C_3   0.862729 0.786873 0.354333 0.147279
H5    H     H_    0.790837 0.867373 0.354395 0.224319
H6    H     H_    0.827623 0.700966 0.297067 0.141348
C24   C     C_3   0.981298 0.847229 0.296842 -0.323729
H7    H     H_    0.018461 0.927792 0.358366 0.300569
H8    H     H_    0.052423 0.766337 0.285795 0.245141
C25   C     C_3   0.956318 0.908609 0.169894 -0.783633
H9    H     H_    0.920490 0.829506 0.106147 0.275937
H10   H     H_    0.043743 0.950495 0.130575 0.297541
H11   H     H_    0.887703 0.992495 0.177571 0.302801
O10   O     O_3   0.121131 0.749795 0.520376 -0.616752
C26   C     C_3   0.137195 0.786978 0.645428 0.147340
H12   H     H_    0.209160 0.867404 0.645357 0.224242
H13   H     H_    0.172184 0.701082 0.702794 0.141365
C27   C     C_3   0.018628 0.847519 0.702779 -0.323649
H14   H     H_    0.981589 0.928072 0.641164 0.300593
H15   H     H_    0.947413 0.766721 0.713833 0.245192
C28   C     C_3   0.043557 0.908981 0.829699 -0.783474
H16   H     H_    0.079108 0.829840 0.893576 0.275830
H17   H     H_    0.956162 0.951167 0.868848 0.297604
H18   H     H_    0.112388 0.992665 0.822043 0.302819
Br7   Br    Br    0.688104 0.157176 0.688467 -0.389770
Br8   Br    Br    0.311914 0.157182 0.311514 -0.389585

loop_
_geom_bond_atom_site_label_1
_geom_bond_atom_site_label_2
_ccdc_geom_bond_type
C3    Br7   S    
C28   H17   S    
O4    Zn2   S    
O6    Zn1   S    
C11   C13   A    
C9    C10   A    
C6    N1    A    
O3    Zn2   S    
C5    N1    A    
C8    C12   S    
C24   C25   S    
O7    Zn2   S    
O8    Zn2   S    
C17   C18   A    
C2    C19   S    
C28   H18   S    
C8    O6    A    
O9    C23   S    
C25   H9    S    
C27   H15   S    
C7    C11   S    
C7    O5    A    
C23   C24   S    
C15   Br1   S    
C26   H12   S    
C6    H4    S    
C10   C12   A    
C16   Br2   S    
C27   C28   S    
C5    H3    S    
C7    O7    A    
C4    C6    A    
C3    N2    A    
C19   C21   A    
C25   H11   S    
C25   H10   S    
C18   C19   A    
C21   O9    S    
C10   C15   S    
C9    C11   A    
C20   C22   A    
C23   H6    S    
C26   H13   S    
C2    O2    A    
C1    O1    A    
O1    Zn1   S    
C15   C16   S    
C16   Br4   S    
C18   Br6   S    
C1    O3    A    
C17   C20   A    
O10   C26   S    
C15   Br3   S    
C2    O4    A    
C24   H7    S    
C8    O8    A    
C14   H2    S    
C17   Br5   S    
C4    Br8   S    
C23   H5    S    
C27   H14   S    
C26   C27   S    
C22   O10   S    
C3    C5    A    
C13   C14   A    
C24   H8    S    
N2    Zn2   S    
C21   C22   A    
C4    N2    A    
C9    C16   S    
O5    Zn1   S    
N1    Zn1   S    
O2    Zn1   S    
C12   C14   A    
C28   H16   S    
C1    C20   S    
C13   H1    S    
