data_mof_unit_64767.cif
_audit_creation_date              2012-12-10T19:30:50-0500
_audit_creation_method            fapswitch 2.2
_symmetry_space_group_name_H-M    P1
_symmetry_Int_Tables_number       1
_space_group_crystal_system       triclinic
_cell_length_a                    17.733371
_cell_length_b                    16.443886
_cell_length_c                    23.552479
_cell_angle_alpha                 89.77823
_cell_angle_beta                  90.483463
_cell_angle_gamma                 89.997261
_cell_volume                      6867.73717911

loop_
_atom_site_label
_atom_site_type_symbol
_atom_type_description
_atom_site_fract_x
_atom_site_fract_y
_atom_site_fract_z
_atom_type_partial_charge
C1    C     C_R   0.355237 0.500002 0.499905 0.879844
C2    C     C_R   0.644763 0.499998 0.500095 0.879847
C3    C     C_R   0.501821 0.572806 0.237720 0.551971
C4    C     C_R   0.498186 0.427193 0.762280 0.551970
C5    C     C_R   0.501984 0.574001 0.296951 0.556475
C6    C     C_R   0.498024 0.425998 0.703048 0.556474
C7    C     C_R   0.499761 0.500473 0.327965 -0.364936
C8    C     C_R   0.500239 0.499527 0.672035 -0.364938
C9    C     C_R   0.497376 0.426353 0.298387 -0.327118
C10   C     C_R   0.502615 0.573647 0.701613 -0.327116
C11   C     C_R   0.497228 0.425457 0.239193 0.646186
C12   C     C_R   0.502761 0.574543 0.760807 0.646187
C13   C     C_R   0.499444 0.498675 0.208717 -0.021159
C14   C     C_R   0.500554 0.501325 0.791283 -0.021165
C15   C     C_R   0.846259 0.573805 0.500222 0.616178
C16   C     C_R   0.153741 0.426195 0.499777 0.616178
C17   C     C_R   0.153733 0.573813 0.499742 0.617349
C18   C     C_R   0.846266 0.426187 0.500259 0.617348
C19   C     C_R   0.767641 0.573797 0.500235 -0.211123
C20   C     C_R   0.232359 0.426203 0.499764 -0.211125
C21   C     C_R   0.232352 0.573805 0.499729 -0.215101
C22   C     C_R   0.767647 0.426194 0.500272 -0.215100
C23   C     C_R   0.727677 0.499996 0.500208 -0.227282
C24   C     C_R   0.272323 0.500004 0.499791 -0.227281
C25   C     C_R   0.885567 0.499997 0.500200 -0.189011
C26   C     C_R   0.114433 0.500003 0.499800 -0.189011
C27   C     C_R   0.499911 0.500205 0.390641 0.932410
C28   C     C_R   0.500089 0.499795 0.609358 0.932409
C29   C     C_1   0.966192 0.499999 0.500064 0.214092
C30   C     C_1   0.033808 0.500001 0.499936 0.214092
C31   C     C_R   0.548297 0.828870 0.536053 -0.289453
C32   C     C_R   0.451702 0.171129 0.463948 -0.289453
C33   C     C_R   0.451700 0.829260 0.463927 -0.284146
C34   C     C_R   0.548300 0.170739 0.536073 -0.284147
C35   C     C_R   0.547538 0.743057 0.535491 0.711180
C36   C     C_R   0.452462 0.256943 0.464509 0.711178
C37   C     C_R   0.452458 0.743437 0.464506 0.763064
C38   C     C_R   0.547542 0.256563 0.535493 0.763067
C39   C     C_R   0.500000 0.873168 0.499987 -0.056223
C40   C     C_R   0.500000 0.126832 0.500013 -0.056224
C41   C     C_1   0.499998 0.962727 0.499994 0.091232
C42   C     C_1   0.500002 0.037273 0.500006 0.091232
C43   C     C_R   0.565098 0.481754 0.881010 0.704814
C44   C     C_R   0.434901 0.518248 0.118990 0.704814
C45   C     C_R   0.435597 0.521953 0.879894 0.702503
C46   C     C_R   0.564400 0.478045 0.120106 0.702503
C47   C     C_R   0.433766 0.521787 0.939624 -0.160994
C48   C     C_R   0.566231 0.478212 0.060376 -0.160993
C49   C     C_R   0.499960 0.500579 0.970004 -0.077712
C50   C     C_R   0.500038 0.499421 0.029996 -0.077712
C51   C     C_R   0.566135 0.480464 0.940523 -0.107074
C52   C     C_R   0.433863 0.519537 0.059477 -0.107073
C53   C     C_R   0.368004 0.541760 0.969789 0.682526
C54   C     C_R   0.631994 0.458240 0.030211 0.682527
C55   C     C_R   0.368339 0.540544 0.028987 -0.175783
C56   C     C_R   0.631659 0.459457 0.971013 -0.175782
Cu1   Cu    Cu3+1 0.500000 0.580420 0.500000 1.093700
Cu2   Cu    Cu3+1 0.500000 0.419580 0.500000 1.093698
N1    N     N_R   0.500512 0.502073 0.852143 -0.426360
N2    N     N_R   0.499486 0.497927 0.147857 -0.426358
N3    N     N_R   0.500000 0.701220 0.500000 -0.293797
N4    N     N_R   0.500000 0.298780 0.500000 -0.293798
O1    O     O_R   0.391260 0.567930 0.500000 -0.564101
O2    O     O_R   0.608740 0.432070 0.500000 -0.564099
O3    O     O_R   0.608740 0.567930 0.500000 -0.553680
O4    O     O_R   0.391260 0.432070 0.500000 -0.553682
O5    O     O_R   0.499980 0.567930 0.417880 -0.494239
O6    O     O_R   0.500020 0.432070 0.582120 -0.494241
O7    O     O_R   0.500020 0.567930 0.582120 -0.567551
O8    O     O_R   0.499980 0.432070 0.417880 -0.567553
O9    O     O_2   0.628112 0.463032 0.852099 -0.471479
O10   O     O_2   0.371887 0.536973 0.147901 -0.471482
O11   O     O_2   0.373165 0.541192 0.849593 -0.401369
O12   O     O_2   0.626831 0.458803 0.150407 -0.401373
F1    F     F_    0.303007 0.562573 0.942538 -0.562290
F2    F     F_    0.696990 0.437426 0.057462 -0.562291
F3    F     F_    0.594829 0.701967 0.570819 -0.625183
F4    F     F_    0.405170 0.298033 0.429181 -0.625186
F5    F     F_    0.405136 0.702714 0.429221 -0.589956
F6    F     F_    0.594865 0.297286 0.570778 -0.589950
H1    H     H_    0.316883 0.556231 0.050856 0.226435
H2    H     H_    0.683115 0.443770 0.949144 0.226435
F7    F     F_    0.504462 0.643876 0.208307 -0.555115
F8    F     F_    0.495553 0.356123 0.791693 -0.555114
F9    F     F_    0.504610 0.647050 0.323568 -0.550210
F10   F     F_    0.495408 0.352949 0.676432 -0.550203
H3    H     H_    0.495510 0.368924 0.321005 0.251318
H4    H     H_    0.504474 0.631077 0.678995 0.251312
F11   F     F_    0.494569 0.353387 0.211389 -0.580753
F12   F     F_    0.505413 0.646614 0.788610 -0.580751
F13   F     F_    0.883945 0.645687 0.500195 -0.580215
F14   F     F_    0.116055 0.354313 0.499803 -0.580216
F15   F     F_    0.116041 0.645694 0.499733 -0.580839
F16   F     F_    0.883959 0.354305 0.500269 -0.580839
H5    H     H_    0.738177 0.631496 0.500237 0.225802
H6    H     H_    0.261823 0.368504 0.499761 0.225802
H7    H     H_    0.261811 0.631504 0.499698 0.222506
H8    H     H_    0.738189 0.368495 0.500304 0.222508
H9    H     H_    0.586472 0.860420 0.564559 0.206785
H10   H     H_    0.413528 0.139580 0.435441 0.206785
H11   H     H_    0.413516 0.861119 0.435421 0.207886
H12   H     H_    0.586484 0.138880 0.564578 0.207887

loop_
_geom_bond_atom_site_label_1
_geom_bond_atom_site_label_2
_ccdc_geom_bond_type
Cu2   N4    S    
C22   H8    S    
C41   C42   T    
C28   O7    A    
C2    O3    A    
C39   C41   S    
C13   N2    S    
C15   C19   A    
C14   N1    S    
C37   F5    S    
C10   H4    S    
C34   H12   S    
C33   H11   S    
C17   C26   A    
C32   C36   A    
C12   F12   S    
C28   O6    A    
C15   C25   A    
C7    C27   S    
C45   O11   S    
C51   C56   A    
C45   C47   A    
Cu2   O4    S    
C20   C24   A    
C49   C51   A    
C50   C52   A    
C31   H9    S    
C55   H1    S    
C3    C13   A    
C52   C55   A    
C43   N1    A    
C47   C53   A    
C5    F9    S    
C44   C52   A    
C48   C50   A    
C20   H6    S    
C34   C38   A    
C25   C29   S    
C53   F1    S    
C18   C25   A    
Cu1   O5    S    
C36   N4    A    
C1    O1    A    
C2    O2    A    
Cu1   O1    S    
C46   C48   A    
C53   C55   A    
Cu2   O2    S    
C54   C56   A    
C4    C6    A    
C5    C7    A    
Cu2   O8    S    
C6    C8    A    
C35   F3    S    
C33   C37   A    
C32   H10   S    
C48   C54   A    
C19   C23   A    
C29   C30   T    
C21   H7    S    
C11   F11   S    
C4    F8    S    
C16   C20   A    
C1    O4    A    
C35   N3    A    
C33   C39   A    
Cu1   N3    S    
C9    C11   A    
C27   O8    A    
C10   C12   A    
C54   F2    S    
Cu2   O6    S    
C12   C14   A    
C16   F14   S    
C3    F7    S    
C18   F16   S    
C31   C35   A    
C17   F15   S    
C46   O12   S    
C19   H5    S    
C7    C9    A    
C45   N1    A    
C43   O9    S    
C46   N2    A    
C18   C22   A    
Cu1   O3    S    
C3    C5    A    
C16   C26   A    
C37   N3    A    
C56   H2    S    
C47   C49   A    
C6    F10   S    
C36   F4    S    
C9    H3    S    
C11   C13   A    
C43   C51   A    
Cu1   Cu2   S    
C38   F6    S    
C44   N2    A    
C8    C28   S    
C40   C42   S    
C31   C39   A    
C44   O10   S    
C32   C40   A    
C4    C14   A    
C17   C21   A    
C27   O5    A    
C15   F13   S    
C1    C24   S    
C8    C10   A    
C49   C50   A    
C21   C24   A    
C2    C23   S    
C22   C23   A    
C34   C40   A    
Cu1   O7    S    
C38   N4    A    
C26   C30   S    
