data_mof_unit_14101.cif
_audit_creation_date              2012-12-11T14:21:04-0500
_audit_creation_method            fapswitch 2.2
_symmetry_space_group_name_H-M    P1
_symmetry_Int_Tables_number       1
_space_group_crystal_system       triclinic
_cell_length_a                    22.066388
_cell_length_b                    7.198011
_cell_length_c                    14.918664
_cell_angle_alpha                 89.430471
_cell_angle_beta                  107.059736
_cell_angle_gamma                 89.803718
_cell_volume                      2265.1673937

loop_
_atom_site_label
_atom_site_type_symbol
_atom_type_description
_atom_site_fract_x
_atom_site_fract_y
_atom_site_fract_z
_atom_type_partial_charge
O1    O     O_R   0.584770 0.505770 0.002090 -0.535205
O2    O     O_R   0.415230 0.005770 0.997910 -0.535411
O3    O     O_R   0.467060 0.173340 0.861950 -0.540166
O4    O     O_R   0.532940 0.673340 0.138050 -0.540505
C1    C     C_R   0.455007 0.345402 0.825989 0.678712
C2    C     C_R   0.545100 0.843093 0.174130 0.677606
O5    O     O_R   0.587510 0.175890 0.993210 -0.549320
O6    O     O_R   0.412490 0.675890 0.006790 -0.548714
O7    O     O_R   0.536540 0.008150 0.130100 -0.536263
O8    O     O_R   0.463460 0.508150 0.869900 -0.535455
C3    C     C_R   0.613418 0.344320 0.001772 0.715397
C4    C     C_R   0.386587 0.844964 0.998397 0.716705
O9    O     O_3   0.483140 0.340040 0.044760 -0.377367
O10   O     O_3   0.516860 0.840040 0.955240 -0.377285
V1    V     V_3+5 0.503130 0.064190 0.991700 1.417610
V2    V     V_3+5 0.496870 0.564190 0.008300 1.419577
C5    C     C_2   0.217832 0.729067 0.009325 0.176764
C6    C     C_2   0.782735 0.230180 0.992107 0.177772
C7    C     C_2   0.182382 0.884428 0.009461 -0.316007
C8    C     C_2   0.817621 0.385625 0.990652 -0.314037
H1    H     H_    0.206263 0.017144 0.022559 0.123666
H2    H     H_    0.793230 0.518531 0.976212 0.120727
C9    C     C_2   0.287771 0.741227 0.026406 -0.157575
C10   C     C_2   0.712697 0.242419 0.974134 -0.160234
C11   C     C_2   0.317125 0.858096 0.981328 0.008366
C12   C     C_2   0.682913 0.356046 0.019404 0.000137
H3    H     H_    0.316363 0.638089 0.074353 0.107442
H4    H     H_    0.684548 0.141732 0.925775 0.110032
C13   C     C_R   0.927674 0.893393 0.723513 -0.026833
C14   C     C_R   0.072323 0.378798 0.276087 -0.025073
C15   C     C_R   0.574067 0.845302 0.275644 -0.027652
C16   C     C_R   0.426027 0.358497 0.724713 -0.025365
C17   C     C_R   0.936182 0.962995 0.569424 -0.156834
C18   C     C_R   0.062852 0.292857 0.427765 -0.155727
C19   C     C_R   0.964058 0.945442 0.665590 -0.179712
C20   C     C_R   0.035146 0.324019 0.332378 -0.179709
C21   C     C_R   0.863070 0.859153 0.685286 -0.197243
C22   C     C_R   0.137444 0.402424 0.315026 -0.196796
C23   C     C_R   0.832596 0.881266 0.587781 0.044718
C24   C     C_R   0.167606 0.367337 0.411611 0.044698
C25   C     C_R   0.870509 0.934076 0.529145 0.121449
C26   C     C_R   0.128958 0.311615 0.468683 0.120594
C27   C     C_R   0.765761 0.856377 0.547651 0.055680
C28   C     C_R   0.234748 0.382995 0.452286 0.055369
C29   C     C_R   0.737501 0.884292 0.449184 0.014094
C30   C     C_R   0.262499 0.344893 0.549975 0.014038
C31   C     C_R   0.776925 0.935600 0.393816 -0.190093
C32   C     C_R   0.222470 0.289366 0.603687 -0.188977
C33   C     C_R   0.842169 0.960058 0.431956 0.148444
C34   C     C_R   0.156965 0.272834 0.564877 0.150126
C35   C     C_R   0.726079 0.805450 0.603013 -0.174222
C36   C     C_R   0.275238 0.434101 0.398178 -0.174046
C37   C     C_R   0.661413 0.782343 0.564040 -0.204826
C38   C     C_R   0.340197 0.448395 0.437753 -0.204265
C39   C     C_R   0.633243 0.807259 0.468320 0.144428
C40   C     C_R   0.367849 0.414726 0.532936 0.143554
C41   C     C_R   0.670508 0.859190 0.409118 0.094292
C42   C     C_R   0.329687 0.362895 0.590848 0.094726
C43   C     C_R   0.567868 0.776997 0.431207 -0.163838
C44   C     C_R   0.433665 0.435337 0.570840 -0.162804
C45   C     C_R   0.538664 0.793548 0.335286 -0.170456
C46   C     C_R   0.462491 0.408674 0.666351 -0.173357
C47   C     C_R   0.638998 0.879881 0.311891 -0.215497
C48   C     C_R   0.360576 0.334757 0.687733 -0.210726
H5    H     H_    0.488568 0.763946 0.307349 0.103242
H6    H     H_    0.513101 0.429235 0.694975 0.103004
H7    H     H_    0.633167 0.742494 0.609513 0.120062
H8    H     H_    0.369108 0.488158 0.393220 0.119298
H9    H     H_    0.966594 0.003333 0.527552 0.125110
H10   H     H_    0.031881 0.250718 0.468453 0.125193
H11   H     H_    0.014072 0.974545 0.695126 0.112225
H12   H     H_    0.984660 0.303286 0.302160 0.108621
H13   H     H_    0.837996 0.822450 0.734752 0.092981
H14   H     H_    0.162962 0.443354 0.266750 0.091491
H15   H     H_    0.758169 0.959268 0.319557 0.129061
H16   H     H_    0.240981 0.255032 0.676959 0.128984
H17   H     H_    0.743120 0.781095 0.677421 0.119154
H18   H     H_    0.258684 0.464238 0.324250 0.120005
H19   H     H_    0.539509 0.736421 0.476357 0.110921
H20   H     H_    0.462761 0.475186 0.526640 0.111092
O11   O     O_R   0.036450 0.233070 0.130130 -0.537254
O12   O     O_R   0.963550 0.733070 0.869870 -0.538482
O13   O     O_R   0.912470 0.560570 0.006790 -0.545481
O14   O     O_R   0.087530 0.060570 0.993210 -0.544882
C49   C     C_R   0.886655 0.391569 0.000474 0.734090
C50   C     C_R   0.113374 0.891091 0.999689 0.735517
O15   O     O_R   0.032920 0.562940 0.138050 -0.538963
O16   O     O_R   0.967080 0.062940 0.861950 -0.538430
O17   O     O_R   0.084790 0.730500 0.002090 -0.533719
O18   O     O_R   0.915210 0.230500 0.997910 -0.533006
C51   C     C_R   0.044598 0.393141 0.174537 0.683215
C52   C     C_R   0.955307 0.895592 0.825346 0.683010
O19   O     O_3   0.016820 0.396170 0.955260 -0.378012
O20   O     O_3   0.983180 0.896170 0.044740 -0.377885
V3    V     V_3+5 0.996880 0.672090 0.008300 1.406174
V4    V     V_3+5 0.003120 0.172090 0.991700 1.409593
C53   C     C_3   0.190514 0.535601 0.998224 -0.689119
H21   H     H_    0.227200 0.430430 0.996888 0.173347
H22   H     H_    0.172334 0.499695 0.058138 0.200749
H23   H     H_    0.152181 0.525326 0.930904 0.210295
C54   C     C_3   0.810848 0.036625 0.006236 -0.690283
H24   H     H_    0.774578 0.931968 0.009237 0.173033
H25   H     H_    0.829142 0.999286 0.946881 0.204153
H26   H     H_    0.849224 0.027166 0.073721 0.207366
C55   C     C_3   0.280992 0.993867 0.906264 -0.764927
H27   H     H_    0.310070 0.036242 0.860138 0.196949
H28   H     H_    0.237264 0.929681 0.860507 0.216869
H29   H     H_    0.269078 0.121463 0.938710 0.200405
C56   C     C_3   0.718724 0.487641 0.094868 -0.754236
H30   H     H_    0.689110 0.530271 0.139967 0.201205
H31   H     H_    0.761916 0.419513 0.141480 0.216189
H32   H     H_    0.731550 0.615541 0.062824 0.200000
C57   C     C_3   0.880444 0.016397 0.367001 -0.810146
H33   H     H_    0.903043 0.152993 0.388306 0.205590
H34   H     H_    0.917522 0.910060 0.369640 0.212107
H35   H     H_    0.850763 0.030066 0.292865 0.208753
C58   C     C_3   0.118043 0.210873 0.627950 -0.812978
H36   H     H_    0.082313 0.319165 0.629036 0.211945
H37   H     H_    0.093767 0.078559 0.602036 0.206039
H38   H     H_    0.147567 0.186514 0.701468 0.209045
H39   H     H_    0.663369 0.915659 0.261376 0.098968
H40   H     H_    0.335463 0.300156 0.737483 0.093629

loop_
_geom_bond_atom_site_label_1
_geom_bond_atom_site_label_2
_ccdc_geom_bond_type
C33   C57   S    
O16   V4    S    
O4    V2    S    
C54   H24   S    
O15   C51   A    
C34   C58   S    
C15   C45   A    
C18   C26   A    
C7    C50   S    
O2    C4    A    
C2    O7    A    
C53   H21   S    
C11   C55   S    
C31   C33   A    
O5    C3    A    
C55   H28   S    
C29   C41   A    
C5    C9    S    
C6    C10   S    
C7    H1    S    
O14   C50   A    
C39   C43   A    
C56   H31   S    
C17   C19   A    
C38   H8    S    
O12   C52   A    
C14   C22   A    
C44   C46   A    
O14   V4    S    
C29   C31   A    
C32   H16   S    
C53   H22   S    
O16   C52   A    
C36   C38   A    
O15   V3    S    
C9    H3    S    
C18   H10   S    
C18   C20   A    
C17   H9    S    
C57   H35   S    
C28   C36   A    
C32   C34   A    
C2    C15   S    
C19   H11   S    
O6    V2    S    
C30   C42   A    
C36   H18   S    
C25   C33   A    
C47   H39   S    
C28   C30   A    
C41   C47   A    
C30   C32   A    
C37   C39   A    
C42   C48   A    
C55   H29   S    
C38   C40   A    
C43   C45   A    
C46   H6    S    
C15   C47   A    
C16   C48   A    
C23   C25   A    
C58   H38   S    
C43   H19   S    
O11   V4    S    
C23   C27   A    
O5    V1    S    
C3    C12   S    
C40   C44   A    
C35   C37   A    
C6    C54   S    
O17   V3    S    
C35   H17   S    
O6    C4    A    
O13   V3    S    
C8    C49   S    
O1    V2    S    
O2    V1    S    
C27   C29   A    
C12   C56   S    
C26   C34   A    
O4    C2    A    
O13   C49   A    
C8    H2    S    
O19   V4    S    
C39   C41   A    
C56   H32   S    
C53   H23   S    
O3    V1    S    
C57   H33   S    
C22   H14   S    
C21   H13   S    
C44   H20   S    
O12   V3    S    
C10   H4    S    
C10   C12   D    
C14   C51   S    
O3    C1    A    
C50   O17   A    
C49   O18   A    
O18   V4    S    
C54   H26   S    
C55   H27   S    
C13   C19   A    
C14   C20   A    
C4    C11   S    
C17   C25   A    
C1    C16   S    
C58   H37   S    
O7    V1    S    
C31   H15   S    
C1    O8    A    
C21   C23   A    
O8    V2    S    
C58   H36   S    
C22   C24   A    
C27   C35   A    
C48   H40   S    
C24   C26   A    
C5    C7    D    
C40   C42   A    
C6    C8    D    
C9    C11   D    
O20   V3    S    
C37   H7    S    
C16   C46   A    
O11   C51   A    
C45   H5    S    
C24   C28   A    
C54   H25   S    
O9    V2    S    
C13   C21   A    
O10   V1    S    
O1    C3    A    
C56   H30   S    
C5    C53   S    
C13   C52   S    
C20   H12   S    
C57   H34   S    
