data_mof_unit_46180.cif
_audit_creation_date              2012-12-10T18:19:57-0500
_audit_creation_method            fapswitch 2.2
_symmetry_space_group_name_H-M    P1
_symmetry_Int_Tables_number       1
_space_group_crystal_system       triclinic
_cell_length_a                    10.715687
_cell_length_b                    10.656044
_cell_length_c                    9.415328
_cell_angle_alpha                 90.382548
_cell_angle_beta                  90.586452
_cell_angle_gamma                 89.135119
_cell_volume                      1074.9048125

loop_
_atom_site_label
_atom_site_type_symbol
_atom_type_description
_atom_site_fract_x
_atom_site_fract_y
_atom_site_fract_z
_atom_type_partial_charge
C1    C     C_R   0.502166 0.259495 0.499876 0.874549
C2    C     C_R   0.502933 0.740220 0.500331 0.884389
C3    C     C_3   0.510184 0.958515 0.635311 -0.217345
C4    C     C_3   0.501698 0.040846 0.364334 -0.296270
C5    C     C_3   0.422250 0.583316 0.050253 -0.011133
C6    C     C_3   0.577802 0.416728 0.949772 0.006476
C7    C     C_3   0.390469 0.474994 0.947971 0.050121
C8    C     C_3   0.609544 0.525049 0.052069 0.020926
C9    C     C_3   0.531877 0.608278 0.950748 -0.061205
C10   C     C_3   0.468158 0.391741 0.049269 -0.038232
C11   C     C_R   0.259458 0.500671 0.498944 0.911411
C12   C     C_R   0.740200 0.501891 0.500762 0.938165
C13   C     C_3   0.045078 0.428206 0.604156 -0.409812
C14   C     C_3   0.953365 0.575648 0.393663 -0.380956
C15   C     C_3   0.959456 0.385251 0.479868 0.369615
C16   C     C_3   0.039173 0.618628 0.517220 0.340741
C17   C     C_3   0.876370 0.502095 0.501949 -0.317581
C18   C     C_3   0.122703 0.501945 0.496020 -0.310967
C19   C     C_3   0.961294 0.546391 0.623926 0.419749
C20   C     C_3   0.037530 0.457972 0.373496 0.424424
C21   C     C_3   0.610470 0.040247 0.565537 -0.193984
C22   C     C_3   0.400946 0.958363 0.434807 -0.279419
C23   C     C_3   0.604669 0.956827 0.431387 0.574854
C24   C     C_3   0.407388 0.041770 0.568918 0.540652
C25   C     C_3   0.505853 0.876495 0.500560 -0.138585
C26   C     C_3   0.505720 0.122717 0.500234 -0.137369
Cu1   Cu    Cu3+1 0.500030 0.499990 0.643150 1.029530
Cu2   Cu    Cu3+1 0.499970 0.500010 0.356850 1.018041
H1    H     H_    0.082763 0.370917 0.693077 0.206337
H2    H     H_    0.914634 0.636131 0.307783 0.213422
H3    H     H_    0.694376 0.073610 0.622321 0.231183
H4    H     H_    0.317788 0.923015 0.378034 0.228198
H5    H     H_    0.512015 0.923758 0.746250 0.178928
H6    H     H_    0.497970 0.076967 0.254020 0.175800
H7    H     H_    0.298283 0.453272 0.899713 0.181476
H8    H     H_    0.701649 0.546960 0.100420 0.177776
H9    H     H_    0.357188 0.653679 0.097558 0.172292
H10   H     H_    0.643075 0.346534 0.902515 0.166148
H11   H     H_    0.559048 0.699502 0.904977 0.155758
H12   H     H_    0.441096 0.300530 0.095153 0.161199
N1    N     N_3   0.500090 0.499970 0.858290 -0.190991
N2    N     N_3   0.499910 0.500030 0.141710 -0.195009
O1    O     O_R   0.500060 0.316850 0.620870 -0.591191
O2    O     O_R   0.499940 0.683150 0.379130 -0.610263
O3    O     O_R   0.500000 0.316860 0.379090 -0.568110
O4    O     O_R   0.500000 0.683140 0.620910 -0.568166
O5    O     O_R   0.316880 0.499960 0.620870 -0.578601
O6    O     O_R   0.683120 0.500040 0.379130 -0.576499
O7    O     O_R   0.316830 0.499970 0.379090 -0.536647
O8    O     O_R   0.683170 0.500030 0.620910 -0.539134
S1    S     S_3+6 0.903180 0.229517 0.455696 0.014402
O9    O     O_2   0.897616 0.167863 0.598335 -0.326111
O10   O     O_2   0.775343 0.234303 0.389103 -0.297462
O11   O     O_3   0.998289 0.145800 0.349255 -0.484750
H13   H     H_    0.959949 0.061960 0.341979 0.402635
S2    S     S_3+6 0.089367 0.776674 0.532271 0.036434
O12   O     O_2   0.207810 0.781605 0.618684 -0.249568
O13   O     O_2   0.112167 0.825675 0.385795 -0.349821
O14   O     O_3   0.979420 0.866264 0.610992 -0.429573
H14   H     H_    0.904192 0.857330 0.550082 0.376929
S3    S     S_3+6 0.914011 0.604503 0.793432 0.048981
O15   O     O_2   0.812337 0.701917 0.775084 -0.315433
O16   O     O_2   0.866611 0.497596 0.879633 -0.295560
O17   O     O_3   0.037166 0.668683 0.876808 -0.442513
H15   H     H_    0.002908 0.705605 0.965304 0.385165
S4    S     S_3+6 0.084844 0.403002 0.202705 0.060336
O18   O     O_2   0.132929 0.511380 0.119371 -0.294415
O19   O     O_2   0.185953 0.304690 0.218792 -0.300007
O20   O     O_3   0.961422 0.341303 0.117352 -0.447788
H16   H     H_    0.996084 0.303353 0.029610 0.388737
O21   O     O_3   0.714327 0.907038 0.369244 -0.585789
C27   C     C_3   0.694922 0.886506 0.222852 -0.267644
H17   H     H_    0.691633 0.977276 0.165377 0.189012
H18   H     H_    0.608873 0.832318 0.200644 0.155339
H19   H     H_    0.774999 0.830827 0.181155 0.195736
O22   O     O_3   0.309945 0.087026 0.655339 -0.579972
C28   C     C_3   0.210908 0.130296 0.569650 -0.076249
H20   H     H_    0.170545 0.052397 0.506511 0.244100
H21   H     H_    0.239823 0.208173 0.499782 0.125633
H22   H     H_    0.136766 0.166120 0.640436 0.214522

loop_
_geom_bond_atom_site_label_1
_geom_bond_atom_site_label_2
_ccdc_geom_bond_type
C7    C10   S    
S4    O19   D    
C21   C26   S    
C11   C18   S    
C5    H9    S    
C10   N2    S    
C11   O5    A    
C12   O6    A    
C28   H20   S    
C2    O4    A    
C21   H3    S    
C22   H4    S    
C13   C18   S    
C22   C24   S    
C20   S4    S    
C24   C26   S    
S4    O20   S    
C3    H5    S    
C9    H11   S    
S2    O12   D    
C10   H12   S    
C8    H8    S    
S3    O16   D    
C1    O1    A    
C2    O2    A    
C8    C9    S    
C6    N1    S    
C12   C17   S    
C6    H10   S    
C15   S1    S    
S2    O13   D    
Cu1   O8    S    
C23   C25   S    
S4    O18   D    
O14   H14   S    
C14   C17   S    
C3    C24   S    
S3    O15   D    
C14   H2    S    
C27   H19   S    
C28   H21   S    
C15   C20   S    
C4    H6    S    
Cu2   O3    S    
C13   C19   S    
S1    O9    D    
C23   O21   S    
C3    C25   S    
O22   C28   S    
C27   H18   S    
C5    C7    S    
C4    C23   S    
C24   O22   S    
C6    C8    S    
C22   C25   S    
S1    O10   D    
S3    O17   S    
C16   S2    S    
C5    C9    S    
C11   O7    A    
C14   C20   S    
C4    C22   S    
Cu2   O7    S    
Cu1   N1    S    
C4    C26   S    
Cu1   O4    S    
C13   C15   S    
C1    C26   S    
C14   C16   S    
C3    C21   S    
C13   H1    S    
C5    N2    S    
C28   H22   S    
Cu1   O5    S    
C15   C17   S    
O11   H13   S    
Cu2   O6    S    
C7    H7    S    
C8    N2    S    
C27   H17   S    
C6    C10   S    
C12   O8    A    
C9    N1    S    
S2    O14   S    
S1    O11   S    
O17   H15   S    
C21   C23   S    
O21   C27   S    
C1    O3    A    
C19   S3    S    
C16   C19   S    
Cu2   N2    S    
C17   C19   S    
Cu2   O2    S    
C2    C25   S    
C18   C20   S    
C7    N1    S    
O20   H16   S    
Cu1   O1    S    
C16   C18   S    
Cu1   Cu2   S    
