data_mof_unit_11563.cif
_audit_creation_date              2012-12-10T17:23:41-0500
_audit_creation_method            fapswitch 2.2
_symmetry_space_group_name_H-M    P1
_symmetry_Int_Tables_number       1
_space_group_crystal_system       triclinic
_cell_length_a                    9.634032
_cell_length_b                    10.806479
_cell_length_c                    17.229613
_cell_angle_alpha                 94.13287
_cell_angle_beta                  85.525214
_cell_angle_gamma                 89.478782
_cell_volume                      1783.4607986

loop_
_atom_site_label
_atom_site_type_symbol
_atom_type_description
_atom_site_fract_x
_atom_site_fract_y
_atom_site_fract_z
_atom_type_partial_charge
C1    C     C_R   0.497617 0.737474 0.508686 0.890416
C2    C     C_R   0.421819 0.420844 0.777869 -0.321438
C3    C     C_R   0.429677 0.604632 0.152612 -0.377899
C4    C     C_R   0.413022 0.570612 0.229619 0.461550
C5    C     C_R   0.665618 0.538183 0.225271 0.414235
C6    C     C_R   0.677399 0.556041 0.144864 0.099565
C7    C     C_R   0.558187 0.592049 0.109121 -0.077507
C8    C     C_2   0.471466 0.543391 0.982556 -0.307308
C9    C     C_2   0.561950 0.609186 0.024391 0.535715
C10   C     C_R   0.532241 0.537308 0.266934 -0.300741
C11   C     C_R   0.323354 0.898155 0.637183 0.512681
C12   C     C_R   0.481666 0.501981 0.649708 0.863554
C13   C     C_R   0.247135 0.983488 0.691849 -0.239717
C14   C     C_R   0.252415 0.109585 0.685572 -0.234605
C15   C     C_R   0.334555 0.156660 0.626157 -0.207136
C16   C     C_R   0.412911 0.078344 0.569778 0.030127
C17   C     C_R   0.408774 0.946965 0.574161 -0.011114
C18   C     C_R   0.494171 0.872620 0.515980 -0.085714
C19   C     C_R   0.580462 0.928143 0.459705 -0.239946
C20   C     C_R   0.582192 0.054957 0.456699 -0.184171
C21   C     C_R   0.498341 0.130026 0.510091 -0.037749
C22   C     C_R   0.865553 0.315021 0.411236 -0.152747
C23   C     C_R   0.500117 0.262850 0.501708 0.783830
C24   C     C_R   0.931918 0.203051 0.388687 -0.386811
C25   C     C_R   0.072604 0.190740 0.396848 0.401240
C26   C     C_R   0.148833 0.299866 0.411395 0.469322
C27   C     C_R   0.080116 0.404388 0.456768 0.025646
C28   C     C_R   0.930720 0.407566 0.456657 0.051385
C29   C     C_R   0.919747 0.591428 0.539422 0.580260
C30   C     C_R   0.068036 0.590294 0.539094 -0.177221
C31   C     C_R   0.519039 0.509397 0.350361 0.857512
C32   C     C_R   0.473005 0.517165 0.734473 -0.100276
C33   C     C_R   0.521121 0.627102 0.771628 0.481117
C34   C     C_R   0.510965 0.639235 0.853879 -0.226243
C35   C     C_R   0.469551 0.538821 0.897066 0.145196
C36   C     C_R   0.421822 0.430930 0.858626 -0.163816
Cu1   Cu    Cu3+1 0.359340 0.500010 0.500010 1.015737
Cu2   Cu    Cu3+1 0.640660 0.499990 0.499990 1.003123
H1    H     H_    0.644953 0.872217 0.415879 0.133453
H2    H     H_    0.182905 0.955508 0.741531 0.132251
H3    H     H_    0.193696 0.171985 0.728309 0.157679
H4    H     H_    0.337287 0.256178 0.626562 0.158360
H5    H     H_    0.646122 0.094744 0.410715 0.130591
H6    H     H_    0.762915 0.324349 0.393323 0.231379
H7    H     H_    0.876048 0.127451 0.361370 0.176397
H8    H     H_    0.119117 0.663610 0.570628 0.178904
H9    H     H_    0.386137 0.353544 0.891151 0.138758
H10   H     H_    0.340498 0.637807 0.125125 0.161618
H11   H     H_    0.386185 0.336214 0.749345 0.153948
H12   H     H_    0.399574 0.482339 0.012623 0.109492
H13   H     H_    0.532435 0.726866 0.884108 0.169130
N1    N     N_R   0.852190 0.498790 0.499250 -0.217926
N2    N     N_R   0.148060 0.498710 0.499220 -0.190864
O1    O     O_R   0.381190 0.680360 0.500010 -0.565233
O2    O     O_R   0.618760 0.680340 0.500000 -0.557107
O3    O     O_R   0.367440 0.500030 0.613600 -0.594512
O4    O     O_R   0.605010 0.500010 0.613590 -0.531467
O5    O     O_R   0.381240 0.319660 0.500000 -0.545938
O6    O     O_R   0.618810 0.319640 0.499990 -0.614136
O7    O     O_R   0.394990 0.499990 0.386410 -0.469451
O8    O     O_R   0.632560 0.499970 0.386400 -0.579009
O9    O     O_3   0.565408 0.722113 0.725133 -0.547724
C37   C     C_3   0.663697 0.800175 0.759660 -0.257401
H14   H     H_    0.745363 0.746549 0.785711 0.167164
H15   H     H_    0.610833 0.869242 0.803267 0.136667
H16   H     H_    0.716837 0.853356 0.713746 0.192502
C38   C     C_3   0.815668 0.533159 0.097749 -0.777764
H17   H     H_    0.893263 0.487210 0.130837 0.236695
H18   H     H_    0.860095 0.622146 0.080184 0.239684
H19   H     H_    0.801393 0.470993 0.044882 0.232973
O10   O     O_3   0.321050 0.769980 0.644750 -0.564950
C39   C     C_3   0.224452 0.733244 0.704986 -0.313719
H20   H     H_    0.117051 0.766800 0.697717 0.135323
H21   H     H_    0.258815 0.763420 0.763404 0.166730
H22   H     H_    0.217973 0.631174 0.702535 0.201231
O11   O     O_3   0.841481 0.683153 0.583427 -0.536914
C40   C     C_3   0.876327 0.800447 0.556803 -0.345081
H23   H     H_    0.884152 0.799210 0.491870 0.145737
H24   H     H_    0.974032 0.834800 0.580398 0.137502
H25   H     H_    0.792312 0.867873 0.578521 0.202858
O12   O     O_3   0.283555 0.580280 0.271636 -0.544229
C41   C     C_3   0.177576 0.527032 0.228264 -0.299046
H26   H     H_    0.215015 0.447904 0.186574 0.130322
H27   H     H_    0.127681 0.599167 0.196575 0.163355
H28   H     H_    0.097188 0.489827 0.269535 0.205239
O13   O     O_3   0.140369 0.079207 0.374048 -0.576261
C42   C     C_3   0.112748 0.997164 0.433146 -0.302974
H29   H     H_    0.000794 0.972639 0.438382 0.148633
H30   H     H_    0.145158 0.036644 0.490356 0.166274
H31   H     H_    0.173875 0.910242 0.417379 0.202231
O14   O     O_3   0.283337 0.305509 0.377426 -0.529211
C43   C     C_3   0.297704 0.258939 0.298068 -0.229678
H32   H     H_    0.200918 0.268262 0.267475 0.132566
H33   H     H_    0.334383 0.160882 0.293494 0.198889
H34   H     H_    0.379670 0.311412 0.266610 0.146061
O15   O     O_3   0.785194 0.520359 0.262914 -0.574341
C44   C     C_3   0.834636 0.638106 0.288201 -0.289282
H35   H     H_    0.751708 0.697510 0.321247 0.147726
H36   H     H_    0.880913 0.686824 0.237937 0.152983
H37   H     H_    0.916811 0.625214 0.328628 0.186309
O16   O     O_3   0.668115 0.674687 0.987499 -0.577837
C45   C     C_3   0.668023 0.797251 0.021913 -0.383464
H38   H     H_    0.701685 0.800289 0.082261 0.177136
H39   H     H_    0.563953 0.842982 0.021798 0.155259
H40   H     H_    0.743494 0.851703 0.986853 0.185460

loop_
_geom_bond_atom_site_label_1
_geom_bond_atom_site_label_2
_ccdc_geom_bond_type
C23   O5    A    
C42   H29   S    
C37   H15   S    
C16   C21   A    
C28   N1    A    
C31   O8    A    
C35   C36   A    
C20   H5    S    
C44   H35   S    
C29   O11   S    
C40   H23   S    
C23   O6    A    
C1    C18   S    
O9    C37   S    
C45   H40   S    
C24   H7    S    
Cu1   Cu2   S    
C18   C19   A    
C3    C7    A    
C5    C6    A    
C11   O10   S    
Cu2   N1    S    
C15   C16   A    
C3    H10   S    
C36   H9    S    
C2    C32   A    
C34   C35   A    
C25   O13   S    
C13   H2    S    
Cu1   O3    S    
C10   C31   S    
C22   H6    S    
Cu2   O2    S    
C19   C20   A    
C8    C9    D    
Cu1   O5    S    
Cu2   O8    S    
Cu1   N2    S    
C37   H16   S    
C22   C28   A    
C13   C14   A    
C12   C32   S    
C39   H22   S    
C44   H36   S    
O12   C41   S    
C40   H24   S    
C30   N2    A    
C4    O12   S    
C38   H17   S    
O16   C45   S    
C24   C25   A    
C39   H21   S    
O14   C43   S    
O13   C42   S    
C16   C17   A    
C25   C26   A    
C33   O9    S    
C43   H34   S    
C37   H14   S    
C38   H18   S    
C8    C35   S    
C31   O7    A    
C1    O1    A    
C29   C30   A    
C2    H11   S    
Cu2   O4    S    
O15   C44   S    
C43   H33   S    
C17   C18   A    
C34   H13   S    
O11   C40   S    
C45   H39   S    
C12   O3    A    
C19   H1    S    
C14   H3    S    
Cu1   O1    S    
C6    C38   S    
C41   H27   S    
C21   C23   S    
C26   C27   A    
C22   C24   A    
C12   O4    A    
C4    C10   A    
C3    C4    A    
C8    H12   S    
C5    O15   S    
C40   H25   S    
C2    C36   A    
C7    C9    S    
C11   C17   A    
C44   H37   S    
C30   H8    S    
C15   H4    S    
C39   H20   S    
C27   N2    A    
C6    C7    A    
C41   H28   S    
C38   H19   S    
C32   C33   A    
C42   H30   S    
C26   O14   S    
C5    C10   A    
C11   C13   A    
C43   H32   S    
C33   C34   A    
C1    O2    A    
C45   H38   S    
Cu1   O7    S    
Cu2   O6    S    
O10   C39   S    
C20   C21   A    
C9    O16   S    
C41   H26   S    
C42   H31   S    
C27   C28   A    
C14   C15   A    
C29   N1    A    
