data_mof_unit_34648.cif
_audit_creation_date              2012-12-11T18:09:03-0500
_audit_creation_method            fapswitch 2.2
_symmetry_space_group_name_H-M    P1
_symmetry_Int_Tables_number       1
_space_group_crystal_system       triclinic
_cell_length_a                    8.252111
_cell_length_b                    12.632716
_cell_length_c                    19.029454
_cell_angle_alpha                 99.956668
_cell_angle_beta                  91.761126
_cell_angle_gamma                 98.437436
_cell_volume                      1929.52318451

loop_
_atom_site_label
_atom_site_type_symbol
_atom_type_description
_atom_site_fract_x
_atom_site_fract_y
_atom_site_fract_z
_atom_type_partial_charge
Ba1   Ba    Ba6+2 0.853180 0.547790 0.465300 1.643454
Ba2   Ba    Ba6+2 0.336650 0.452300 0.534710 1.645280
C1    C     C_3   0.592444 0.903522 0.251810 -0.421161
C2    C     C_3   0.642352 0.827046 0.299233 0.344204
C3    C     C_3   0.465014 0.280868 0.316746 0.311327
C4    C     C_3   0.441733 0.247773 0.235935 -0.398274
C5    C     C_3   0.972267 0.162960 0.719879 0.327424
C6    C     C_3   0.006805 0.139417 0.794064 -0.348318
C7    C     C_3   0.527733 0.205891 0.748317 0.377578
C8    C     C_3   0.462684 0.128742 0.797494 -0.361414
C9    C     C_R   0.091088 0.534116 0.798391 -0.128538
C10   C     C_R   0.031055 0.536718 0.727637 0.076468
C11   C     C_R   0.834410 0.431047 0.818761 -0.161639
C12   C     C_3   0.129526 0.769034 0.269597 0.369953
C13   C     C_R   0.776259 0.435926 0.750019 -0.013137
C14   C     C_R   0.347747 0.573401 0.182376 -0.165072
C15   C     C_R   0.412704 0.571796 0.251022 0.006854
C16   C     C_R   0.128621 0.432179 0.198684 -0.138643
C17   C     C_R   0.169683 0.455363 0.272821 0.061300
C18   C     C_R   0.999582 0.469364 0.843797 0.009050
C19   C     C_R   0.876399 0.483201 0.703892 -0.233159
C20   C     C_R   0.210671 0.496032 0.151471 0.001895
C21   C     C_R   0.316112 0.521716 0.297862 -0.257429
C22   C     C_R   0.830907 0.319107 0.946478 -0.082924
C23   C     C_3   0.107285 0.798439 0.196052 -0.371440
C24   C     C_R   0.714825 0.290032 0.994228 -0.059210
C25   C     C_R   0.727431 0.347399 0.063885 -0.068877
C26   C     C_R   0.865484 0.424742 0.087296 -0.108972
C27   C     C_R   0.997026 0.439517 0.042909 0.022198
C28   C     C_R   0.961063 0.405862 0.967912 0.037550
C29   C     C_R   0.161916 0.478651 0.070705 -0.012595
C30   C     C_R   0.282199 0.489105 0.018363 0.036616
C31   C     C_R   0.232811 0.479673 0.943951 0.006072
C32   C     C_R   0.065114 0.451107 0.918456 -0.022768
C33   C     C_R   0.452853 0.503431 0.036801 -0.076676
C34   C     C_3   0.218221 0.790489 0.618578 0.295967
C35   C     C_R   0.568255 0.530233 0.988661 -0.082157
C36   C     C_R   0.519028 0.522816 0.917883 -0.076369
C37   C     C_R   0.356082 0.485526 0.895340 -0.071099
C38   C     C_R   0.767574 0.182584 0.524306 -0.276002
C39   C     C_R   0.429720 0.807356 0.470132 -0.275154
C40   C     C_R   0.403224 0.983633 0.444026 -0.107459
C41   C     C_R   0.338676 0.875292 0.441109 -0.014079
C42   C     C_R   0.579044 0.848964 0.508821 0.048638
C43   C     C_R   0.644580 0.960632 0.514637 -0.051258
C44   C     C_R   0.555723 0.028017 0.480561 -0.056072
C45   C     C_3   0.271205 0.912845 0.636903 -0.395677
C46   C     C_R   0.619555 0.138953 0.485696 0.046625
C47   C     C_R   0.859295 0.116627 0.554788 -0.041206
C48   C     C_R   0.796296 0.007056 0.552151 -0.098394
C49   C     C_3   0.957555 0.208904 0.379037 0.280316
C50   C     C_3   0.956792 0.086915 0.364326 -0.336360
C51   C     C_3   0.622233 0.745997 0.691368 0.282493
C52   C     C_3   0.630407 0.820103 0.765581 -0.072707
H1    H     H_    0.735388 0.872893 0.341049 0.076541
H2    H     H_    0.389602 0.931951 0.669060 0.080508
H3    H     H_    0.286810 0.947007 0.587314 0.104880
H4    H     H_    0.176292 0.951043 0.667744 0.147663
H5    H     H_    0.831929 0.225686 0.388596 -0.000314
H6    H     H_    0.040250 0.243847 0.427165 0.071952
H7    H     H_    0.880914 0.049887 0.314759 0.116814
H8    H     H_    0.905825 0.050157 0.409209 0.080368
H9    H     H_    0.083932 0.069647 0.357416 0.140206
H10   H     H_    0.658468 0.665983 0.695473 0.042470
H11   H     H_    0.495885 0.734843 0.669478 0.045609
H12   H     H_    0.545647 0.972754 0.284865 0.106970
H13   H     H_    0.586406 0.895458 0.755716 0.072207
H14   H     H_    0.532077 0.798081 0.326805 -0.060982
H15   H     H_    0.494340 0.859245 0.211690 0.109330
H16   H     H_    0.351461 0.308575 0.337507 0.012110
H17   H     H_    0.568988 0.348932 0.329152 0.073214
H18   H     H_    0.333365 0.183219 0.221495 0.125182
H19   H     H_    0.422342 0.319065 0.211660 0.059042
H20   H     H_    0.552572 0.216751 0.214174 0.123680
H21   H     H_    0.699171 0.935232 0.223262 0.128679
H22   H     H_    0.145549 0.735196 0.154595 0.066949
H23   H     H_    0.939735 0.246114 0.724920 -0.005128
H24   H     H_    0.866924 0.101673 0.694566 -0.049960
H25   H     H_    0.094972 0.207062 0.825705 0.128534
H26   H     H_    0.890652 0.128995 0.821536 0.054726
H27   H     H_    0.058200 0.062433 0.790133 0.102104
H28   H     H_    0.661449 0.228410 0.761967 -0.095423
H29   H     H_    0.507587 0.163223 0.691748 0.027373
H30   H     H_    0.456071 0.174466 0.852446 0.114779
H31   H     H_    0.546488 0.068365 0.799750 0.046316
H32   H     H_    0.054066 0.688524 0.269730 0.079231
H33   H     H_    0.339263 0.085354 0.777288 0.128338
H34   H     H_    0.205837 0.585085 0.817037 0.065603
H35   H     H_    0.742778 0.401877 0.851916 0.075143
H36   H     H_    0.412424 0.629463 0.152061 0.071514
H37   H     H_    0.033718 0.364089 0.179319 0.070626
H38   H     H_    0.827914 0.486656 0.650950 0.066673
H39   H     H_    0.359933 0.528710 0.352900 0.067161
H40   H     H_    0.819597 0.272016 0.893218 0.061205
H41   H     H_    0.612730 0.225653 0.976582 0.060528
H42   H     H_    0.632494 0.330427 0.100166 0.072063
H43   H     H_    0.261174 0.764012 0.279431 -0.070924
H44   H     H_    0.871730 0.469663 0.140708 0.129385
H45   H     H_    0.501418 0.491654 0.087419 0.076488
H46   H     H_    0.697225 0.550395 0.005332 0.082719
H47   H     H_    0.608563 0.540659 0.880014 0.079459
H48   H     H_    0.326853 0.454605 0.839876 0.149514
H49   H     H_    0.330041 0.032288 0.419024 0.098898
H50   H     H_    0.868655 0.960025 0.579009 0.111838
H51   H     H_    0.816308 0.267691 0.527311 0.062170
H52   H     H_    0.378801 0.722461 0.466290 0.070945
H53   H     H_    0.976580 0.804082 0.184266 0.153020
H54   H     H_    0.183289 0.877944 0.194053 0.109304
H55   H     H_    0.314862 0.752355 0.589625 -0.041853
H56   H     H_    0.107312 0.773685 0.582761 0.107361
O1    O     O_2   0.875110 0.423180 0.326290 -0.462784
O2    O     O_3   0.726884 0.798060 0.647345 -0.656030
O3    O     O_3   0.078491 0.849209 0.321072 -0.597743
O4    O     O_2   0.314600 0.576860 0.673750 -0.464055
O5    O     O_3   0.066300 0.567050 0.585060 -0.491343
O6    O     O_3   0.528700 0.375020 0.630330 -0.452313
O7    O     O_3   0.186524 0.750246 0.681744 -0.649654
O8    O     O_3   0.611760 0.365720 0.463870 -0.483239
O9    O     O_3   0.107460 0.315620 0.594570 -0.462392
O10   O     O_2   0.197643 0.123635 0.549602 -0.473948
O11   O     O_3   0.112508 0.155184 0.680588 -0.574332
O12   O     O_3   0.123410 0.433040 0.414950 -0.496176
O13   O     O_3   0.577950 0.634370 0.536140 -0.487748
O14   O     O_2   0.341900 0.231310 0.465740 -0.461909
O15   O     O_3   0.497583 0.191190 0.346160 -0.652846
O16   O     O_2   0.485321 0.503172 0.749510 -0.514950
O17   O     O_3   0.445557 0.296887 0.758945 -0.574170
O18   O     O_3   0.661010 0.625070 0.369680 -0.467611
O19   O     O_2   0.738088 0.536350 0.243258 -0.503700
O20   O     O_3   0.010259 0.250058 0.318659 -0.635331
O21   O     O_3   0.712261 0.743905 0.257311 -0.587484
O22   O     O_2   0.847800 0.768730 0.534310 -0.452881
O23   O     O_3   0.082250 0.684470 0.405440 -0.486980
O24   O     O_2   0.006107 0.878781 0.454440 -0.486105
P1    P     P_3+3 0.042930 0.392230 0.337410 0.977293
P2    P     P_3+3 0.672230 0.754900 0.555730 0.962836
P3    P     P_3+3 0.127339 0.823330 0.405965 0.946590
P4    P     P_3+3 0.146790 0.607860 0.662600 0.969486
P5    P     P_3+3 0.066920 0.175713 0.594073 0.974928
P6    P     P_3+3 0.630278 0.618462 0.278379 0.951145
P7    P     P_3+3 0.520138 0.229733 0.439237 0.931201
P8    P     P_3+3 0.559665 0.400160 0.722688 0.950268
C53   C     C_3   0.808912 0.855292 0.798619 -0.168850
C54   C     C_3   0.881026 0.766325 0.828645 -0.399685
H57   H     H_    0.826988 0.754208 0.880087 0.121631
H58   H     H_    0.857481 0.688457 0.790187 0.105256
H59   H     H_    0.015877 0.790995 0.838573 0.120041
H60   H     H_    0.890855 0.882980 0.757857 0.144611
H61   H     H_    0.813491 0.927113 0.841982 0.088438
C55   C     C_3   0.510733 0.769236 0.816134 -0.199588
C56   C     C_3   0.486081 0.850419 0.883620 -0.219929
C57   C     C_3   0.370565 0.796942 0.932932 -0.426944
H62   H     H_    0.251199 0.760229 0.904179 0.128092
H63   H     H_    0.426326 0.732874 0.953648 0.145261
H64   H     H_    0.348174 0.858987 0.979046 0.126548
H65   H     H_    0.604979 0.882744 0.914107 0.127190
H66   H     H_    0.433180 0.919560 0.868028 0.123098
H67   H     H_    0.389063 0.741067 0.787290 0.134587
H68   H     H_    0.554139 0.696821 0.831210 0.132391

loop_
_geom_bond_atom_site_label_1
_geom_bond_atom_site_label_2
_ccdc_geom_bond_type
C42   P2    S    
C8    H31   S    
O23   P3    S    
O20   P1    S    
Ba1   O18   S    
Ba1   O22   S    
C40   H49   S    
O24   P3    D    
Ba2   O8    S    
C5    C6    S    
C52   C55   S    
C51   C52   S    
C4    H18   S    
C24   C25   A    
C31   C37   A    
C4    H19   S    
C16   H37   S    
C56   H66   S    
C26   C27   A    
C1    H15   S    
C22   C24   A    
C16   C17   A    
C36   H47   S    
C50   H7    S    
C36   C37   A    
C51   H10   S    
C33   H45   S    
C14   H36   S    
C3    H16   S    
C17   P1    S    
C38   C47   A    
C34   C45   S    
Ba1   Ba2   S    
C40   C44   A    
Ba1   O12   S    
O21   P6    S    
Ba2   O6    S    
O7    P4    S    
Ba2   O9    S    
O15   P7    S    
C14   C15   A    
C6    H25   S    
C56   C57   S    
O5    P4    S    
Ba1   P2    S    
C51   H11   S    
C7    C8    S    
C7    H28   S    
C5    H23   S    
C18   C32   S    
O8    P7    S    
C52   C53   S    
C39   C41   A    
C25   H42   S    
C5    O11   S    
C54   H59   S    
Ba1   O23   S    
C49   O20   S    
C4    H20   S    
C2    O21   S    
C11   H35   S    
C12   H43   S    
Ba2   O12   S    
C53   H60   S    
C9    C18   A    
C44   C46   A    
C8    H33   S    
C55   H68   S    
C28   C32   A    
C21   H39   S    
C49   C50   S    
Ba2   P4    S    
C30   C33   A    
C12   H32   S    
C54   H58   S    
C39   H52   S    
C2    H14   S    
C52   H13   S    
Ba2   O13   S    
C10   C19   A    
O16   P8    D    
C6    H27   S    
O17   P8    S    
C17   C21   A    
Ba1   O13   S    
C35   C36   A    
C22   H40   S    
C45   H3    S    
C13   P8    S    
Ba2   O5    S    
C29   C30   A    
C57   H64   S    
C53   H61   S    
C9    H34   S    
O22   P2    D    
C20   C29   S    
C31   C32   A    
O10   P5    D    
C15   C21   A    
C56   H65   S    
C34   O7    S    
C7    H29   S    
C5    H24   S    
O6    P8    S    
C51   O2    S    
C57   H63   S    
C11   C13   A    
C2    H1    S    
C34   H56   S    
C39   C42   A    
O3    P3    S    
O14   P7    D    
C1    H12   S    
C49   H5    S    
C40   C41   A    
C1    C2    S    
C34   H55   S    
C1    H21   S    
C42   C43   A    
C23   H53   S    
C37   H48   S    
C26   H44   S    
C24   H41   S    
C38   C46   A    
C14   C20   A    
C55   H67   S    
C11   C18   A    
C33   C35   A    
C16   C20   A    
C54   H57   S    
C50   H9    S    
C9    C10   A    
C7    O17   S    
Ba2   O14   S    
C12   O3    S    
O13   P2    S    
C23   H22   S    
O9    P5    S    
C30   C31   A    
O11   P5    S    
C47   P5    S    
O18   P6    S    
O2    P2    S    
C3    H17   S    
C50   H8    S    
Ba1   O1    S    
C45   H4    S    
Ba2   O4    S    
O1    P1    D    
C3    C4    S    
O19   P6    D    
C43   C48   A    
C8    H30   S    
C46   P7    S    
C41   P3    S    
C15   P6    S    
C10   P4    S    
Ba1   O8    S    
O4    P4    D    
C12   C23   S    
C22   C28   A    
O12   P1    S    
C27   C28   A    
C43   C44   A    
C13   C19   A    
C57   H62   S    
C27   C29   A    
C47   C48   A    
C3    O15   S    
C25   C26   A    
C6    H26   S    
C55   C56   S    
C38   H51   S    
C49   H6    S    
Ba1   O5    S    
Ba1   P1    S    
C35   H46   S    
C48   H50   S    
C53   C54   S    
C23   H54   S    
C45   H2    S    
C19   H38   S    
