data_mof_unit_14836.cif
_audit_creation_date              2012-12-10T16:36:35-0500
_audit_creation_method            fapswitch 2.2
_symmetry_space_group_name_H-M    P1
_symmetry_Int_Tables_number       1
_space_group_crystal_system       triclinic
_cell_length_a                    14.12757
_cell_length_b                    16.54889
_cell_length_c                    15.116636
_cell_angle_alpha                 90.404844
_cell_angle_beta                  91.868529
_cell_angle_gamma                 89.816611
_cell_volume                      3532.22001564

loop_
_atom_site_label
_atom_site_type_symbol
_atom_type_description
_atom_site_fract_x
_atom_site_fract_y
_atom_site_fract_z
_atom_type_partial_charge
C1    C     C_R   0.680435 0.845660 0.519751 0.537540
C2    C     C_R   0.960601 0.533297 0.109738 0.253442
C3    C     C_R   0.601825 0.948642 0.127652 0.199380
C4    C     C_R   0.101756 0.448554 0.127660 0.199393
C5    C     C_R   0.608397 0.942406 0.035411 0.061782
C6    C     C_R   0.108311 0.442291 0.035420 0.061779
C7    C     C_2   0.241029 0.214064 0.480638 0.035133
C8    C     C_2   0.245651 0.781983 0.474391 0.040931
C9    C     C_2   0.741036 0.714070 0.480629 0.035129
C10   C     C_2   0.745649 0.281985 0.474394 0.040917
C11   C     C_2   0.754611 0.785568 0.523440 0.249631
C12   C     C_R   0.679557 0.155206 0.519445 0.520558
C13   C     C_2   0.752259 0.216224 0.527699 0.258536
C14   C     C_2   0.254610 0.285567 0.523436 0.249642
C15   C     C_2   0.252259 0.716224 0.527700 0.258552
C16   C     C_R   0.318753 0.155293 0.481729 0.535279
C17   C     C_R   0.320264 0.843527 0.479831 0.521897
C18   C     C_R   0.818755 0.655295 0.481727 0.535284
C19   C     C_R   0.820264 0.343527 0.479831 0.521888
C20   C     C_R   0.520799 0.999379 0.260672 0.529686
C21   C     C_R   0.020799 0.499377 0.260673 0.529692
C22   C     C_R   0.476973 0.000470 0.738066 0.573686
C23   C     C_R   0.180435 0.345659 0.519749 0.537552
C24   C     C_R   0.976967 0.500470 0.738066 0.573678
C25   C     C_R   0.529299 0.995194 0.164428 -0.000693
C26   C     C_R   0.029300 0.495188 0.164432 -0.000652
C27   C     C_R   0.466996 0.002872 0.833243 -0.020636
C28   C     C_R   0.966986 0.502875 0.833245 -0.020670
C29   C     C_R   0.382617 0.046414 0.962304 0.281355
C30   C     C_R   0.882706 0.546571 0.962305 0.281373
C31   C     C_R   0.382872 0.031070 0.870572 -0.016748
C32   C     C_R   0.882912 0.531188 0.870578 -0.016816
C33   C     C_R   0.545534 0.980813 0.886494 0.252454
C34   C     C_R   0.179557 0.655206 0.519445 0.520549
C35   C     C_R   0.045492 0.480729 0.886497 0.252447
C36   C     C_3   0.431164 0.158257 0.166897 -0.076182
C37   C     C_3   0.931404 0.658337 0.166969 -0.076176
C38   C     C_3   0.633749 0.831608 0.200980 -0.057164
C39   C     C_3   0.133521 0.331502 0.201009 -0.057235
C40   C     C_3   0.299030 0.164118 0.978650 -0.033717
C41   C     C_3   0.799442 0.664435 0.978634 -0.033807
C42   C     C_2   0.683702 0.889073 0.000901 0.640057
C43   C     C_2   0.183534 0.388867 0.000917 0.640086
C44   C     C_2   0.293588 0.041651 0.816152 0.572118
C45   C     C_R   0.538465 0.979966 0.979459 -0.111453
C46   C     C_2   0.793623 0.541851 0.816176 0.572150
C47   C     C_3   0.686953 0.029384 0.843713 -0.117615
C48   C     C_3   0.186989 0.529109 0.843678 -0.117592
C49   C     C_2   0.648815 0.690386 0.435845 0.544682
C50   C     C_2   0.663777 0.295447 0.410642 0.537434
C51   C     C_2   0.148798 0.190365 0.435883 0.544664
C52   C     C_2   0.163785 0.795440 0.410632 0.537428
C53   C     C_3   0.342383 0.353726 0.632325 -0.065659
C54   C     C_3   0.317239 0.654802 0.654450 -0.085249
C55   C     C_3   0.842360 0.853720 0.632352 -0.065633
C56   C     C_R   0.038432 0.479918 0.979464 -0.111467
C57   C     C_3   0.817245 0.154811 0.654450 -0.085241
C58   C     C_R   0.459963 0.020114 0.017394 -0.037656
C59   C     C_R   0.960004 0.520174 0.017397 -0.037655
C60   C     C_R   0.460541 0.033230 0.109734 0.253454
H1    H     H_    0.372751 0.200392 0.182670 0.149778
H2    H     H_    0.124937 0.294059 0.139899 0.121733
H3    H     H_    0.065447 0.334385 0.235890 0.128198
H4    H     H_    0.186133 0.300719 0.245321 0.176232
H5    H     H_    0.261693 0.173644 0.913860 0.170312
H6    H     H_    0.369905 0.193489 0.978453 0.068088
H7    H     H_    0.257364 0.195439 0.029613 0.170362
H8    H     H_    0.762279 0.674022 0.913771 0.170168
H9    H     H_    0.870394 0.693681 0.978582 0.068133
H10   H     H_    0.757730 0.695829 0.029510 0.170424
H11   H     H_    0.822333 0.859521 0.002566 0.319711
H12   H     H_    0.468753 0.183878 0.109898 0.101501
H13   H     H_    0.322124 0.359177 0.002569 0.319689
H14   H     H_    0.151092 0.032067 0.809651 0.340658
H15   H     H_    0.651098 0.532559 0.809770 0.340679
H16   H     H_    0.706757 0.051166 0.911618 0.139959
H17   H     H_    0.652267 0.078811 0.804915 0.104710
H18   H     H_    0.753289 0.013052 0.810492 0.131173
H19   H     H_    0.206834 0.550895 0.911572 0.139962
H20   H     H_    0.152384 0.578561 0.804859 0.104603
H21   H     H_    0.253296 0.512680 0.810461 0.131180
H22   H     H_    0.529318 0.724109 0.368735 0.343377
H23   H     H_    0.480016 0.155840 0.225894 0.116144
H24   H     H_    0.522677 0.289581 0.385360 0.345571
H25   H     H_    0.029263 0.224070 0.368819 0.343373
H26   H     H_    0.022688 0.789564 0.385335 0.345537
H27   H     H_    0.297607 0.324027 0.681893 0.130279
H28   H     H_    0.317333 0.416402 0.619287 0.108419
H29   H     H_    0.415276 0.357814 0.661538 0.160655
H30   H     H_    0.302740 0.590713 0.636240 0.102473
H31   H     H_    0.258200 0.680804 0.692642 0.109443
H32   H     H_    0.381675 0.655607 0.698379 0.158813
H33   H     H_    0.797568 0.824022 0.681909 0.130301
H34   H     H_    0.873041 0.700557 0.182638 0.149747
H35   H     H_    0.817318 0.916397 0.619310 0.108457
H36   H     H_    0.915246 0.857803 0.661582 0.160639
H37   H     H_    0.802732 0.090721 0.636254 0.102494
H38   H     H_    0.758215 0.180827 0.692643 0.109406
H39   H     H_    0.881685 0.155615 0.698373 0.158829
H40   H     H_    0.969167 0.683905 0.110043 0.101502
H41   H     H_    0.980131 0.655851 0.226049 0.116181
H42   H     H_    0.625274 0.794156 0.139867 0.121775
H43   H     H_    0.565640 0.834411 0.235812 0.128195
H44   H     H_    0.686375 0.800887 0.245332 0.176224
O1    O     O_3   0.500000 0.000000 0.500000 -0.490110
O2    O     O_R   0.885830 0.337110 0.539910 -0.478527
O3    O     O_R   0.692160 0.095230 0.468550 -0.538905
O4    O     O_R   0.692160 0.904770 0.468550 -0.514868
O5    O     O_R   0.192160 0.595230 0.468550 -0.538923
O6    O     O_R   0.192160 0.404770 0.468550 -0.514863
O7    O     O_R   0.316720 0.904790 0.427870 -0.498873
O8    O     O_R   0.316720 0.095210 0.427870 -0.510792
O9    O     O_R   0.816720 0.404790 0.427870 -0.498888
O10   O     O_R   0.816720 0.595210 0.427870 -0.510773
O11   O     O_R   0.594900 0.000000 0.310900 -0.496999
O12   O     O_3   1.000000 0.500000 0.500000 -0.490112
O13   O     O_R   0.094900 0.500000 0.310900 -0.497025
O14   O     O_R   0.483090 0.932320 0.697550 -0.505708
O15   O     O_R   0.483090 0.067680 0.697550 -0.535455
O16   O     O_R   0.983090 0.432320 0.697550 -0.505639
O17   O     O_R   0.983090 0.567680 0.697550 -0.535457
O18   O     O_R   0.438930 0.000000 0.294000 -0.498093
O19   O     O_R   0.938930 0.500000 0.294000 -0.498138
O20   O     O_3   0.391953 0.081475 0.147252 -0.481976
O21   O     O_3   0.892077 0.581609 0.147258 -0.481987
O22   O     O_3   0.667749 0.909560 0.182327 -0.508213
O23   O     O_R   0.605310 0.837110 0.563680 -0.525639
O24   O     O_3   0.167629 0.409415 0.182339 -0.508237
O25   O     O_3   0.303414 0.080922 0.999407 -0.461666
O26   O     O_3   0.803590 0.581234 0.999399 -0.461574
O27   O     O_2   0.662866 0.833620 0.950077 -0.506844
O28   O     O_R   0.777835 0.900304 0.029601 -0.654322
O29   O     O_2   0.162612 0.333415 0.950123 -0.506861
O30   O     O_R   0.277688 0.400016 0.029594 -0.654348
O31   O     O_2   0.295243 0.067432 0.740635 -0.521462
O32   O     O_R   0.206741 0.022116 0.852278 -0.637790
O33   O     O_2   0.795298 0.567465 0.740591 -0.521452
O34   O     O_R   0.605310 0.162890 0.563680 -0.525728
O35   O     O_R   0.706742 0.522573 0.852393 -0.637667
O36   O     O_3   0.628914 0.960233 0.845970 -0.524162
O37   O     O_3   0.128833 0.460032 0.845970 -0.524097
O38   O     O_2   0.625813 0.619200 0.432599 -0.448467
O39   O     O_R   0.589154 0.748386 0.396435 -0.728082
O40   O     O_2   0.677611 0.323450 0.337544 -0.465600
O41   O     O_R   0.571296 0.277748 0.434421 -0.670072
O42   O     O_2   0.125815 0.119175 0.432636 -0.448480
O43   O     O_R   0.089103 0.248356 0.396501 -0.728075
O44   O     O_2   0.177625 0.823442 0.337535 -0.465604
O45   O     O_R   0.105310 0.337110 0.563680 -0.525602
O46   O     O_R   0.071302 0.777736 0.434401 -0.670090
O47   O     O_3   0.345398 0.308487 0.552876 -0.535843
O48   O     O_3   0.334855 0.701017 0.578544 -0.536566
O49   O     O_3   0.845393 0.808482 0.552904 -0.535853
O50   O     O_3   0.834860 0.201011 0.578533 -0.536562
O51   O     O_R   0.105310 0.662890 0.563680 -0.525724
O52   O     O_R   0.385830 0.162890 0.539910 -0.463613
O53   O     O_R   0.385830 0.837110 0.539910 -0.478533
O54   O     O_R   0.885830 0.662890 0.539910 -0.463590
Zn1   Zn    Zn3+2 0.493670 0.096680 0.574000 0.997308
Zn2   Zn    Zn3+2 0.493670 0.903320 0.574000 1.015011
Zn3   Zn    Zn3+2 0.993670 0.596680 0.574000 0.997305
Zn4   Zn    Zn3+2 0.993670 0.403320 0.574000 1.015027
Zn5   Zn    Zn3+2 0.617760 0.000000 0.438070 0.993533
Zn6   Zn    Zn3+2 0.117760 0.500000 0.438070 0.993510
Zn7   Zn    Zn3+2 0.394920 0.000000 0.413930 1.038117
Zn8   Zn    Zn3+2 0.894920 0.500000 0.413930 1.038108

loop_
_geom_bond_atom_site_label_1
_geom_bond_atom_site_label_2
_ccdc_geom_bond_type
C44   O32   S    
C37   H41   S    
C40   O25   S    
C33   C45   A    
O14   Zn2   S    
C1    C11   S    
C5    C42   S    
C18   O10   A    
C1    O23   A    
C3    O22   S    
H24   O41   S    
C27   C33   A    
C39   H4    S    
C48   H19   S    
O12   Zn4   S    
C36   O20   S    
C47   H16   S    
C54   H30   S    
H26   O46   S    
C41   O26   S    
O1    Zn2   S    
C20   C25   S    
C57   H38   S    
C33   O36   S    
C58   C60   A    
C57   H39   S    
C48   H21   S    
C60   O20   S    
C48   O37   S    
C43   O29   D    
C38   H44   S    
O54   Zn3   S    
H11   O28   S    
O19   Zn8   S    
O34   Zn1   S    
C7    C14   D    
C29   O25   S    
C28   C35   A    
C40   H7    S    
H14   O32   S    
C47   O36   S    
C16   O52   A    
C21   O13   A    
O1    Zn5   S    
C52   O46   S    
C42   O27   D    
O7    Zn7   S    
C25   C60   A    
C17   O53   A    
C8    C52   S    
C15   C34   S    
C20   O18   A    
O16   Zn4   S    
C44   O31   D    
C23   O45   A    
C57   H37   S    
C52   O44   D    
O18   Zn7   S    
C40   H6    S    
C49   O38   D    
O12   Zn8   S    
C17   O7    A    
C15   O48   S    
C38   O22   S    
C21   C26   S    
C50   O40   D    
O10   Zn8   S    
C41   H8    S    
C37   O21   S    
O13   Zn6   S    
C22   O15   A    
O4    Zn5   S    
C45   C58   A    
C24   O16   A    
C31   C44   S    
C4    O24   S    
C27   C31   A    
H25   O43   S    
O12   Zn3   S    
C28   C32   A    
C9    C49   S    
C4    C6    A    
O9    Zn8   S    
O6    Zn6   S    
C2    C59   A    
H22   O39   S    
C54   O48   S    
C51   O42   D    
C34   O51   A    
C5    C45   A    
O5    Zn6   S    
O51   Zn3   S    
C14   C23   S    
C21   O19   A    
C43   O30   S    
C19   O2    A    
C54   H32   S    
C38   H43   S    
C18   O54   A    
C20   O11   A    
C51   O43   S    
C10   C19   S    
C29   C31   A    
O17   Zn3   S    
C30   C59   A    
C53   H27   S    
C29   C58   A    
C9    C11   D    
C35   O37   S    
C46   O33   D    
C50   O41   S    
C55   H35   S    
C7    C16   S    
O3    Zn5   S    
C8    C15   D    
C40   H5    S    
C53   H29   S    
C14   O47   S    
C12   O34   A    
C47   H17   S    
C36   H1    S    
C10   C50   S    
C16   O8    A    
C41   H9    S    
C55   O49   S    
C23   O6    A    
C22   O14   A    
C39   O24   S    
C35   C56   A    
C32   C46   S    
O12   Zn6   S    
O52   Zn1   S    
C24   C28   S    
C6    C56   A    
C55   H36   S    
C3    C5    A    
C10   C13   D    
C2    C26   A    
C12   O3    A    
C4    C26   A    
O53   Zn2   S    
C39   H3    S    
C57   O50   S    
C8    C17   S    
C56   C59   A    
C22   C27   S    
C48   H20   S    
C7    C51   S    
C54   H31   S    
C38   H42   S    
C30   O26   S    
C30   C32   A    
O1    Zn1   S    
C42   O28   S    
O8    Zn7   S    
C49   O39   S    
C24   O17   A    
O1    Zn7   S    
C37   H34   S    
C53   H28   S    
O2    Zn4   S    
O11   Zn5   S    
C13   O50   S    
C11   O49   S    
C1    O4    A    
C2    O21   S    
C9    C18   S    
C3    C25   A    
H13   O30   S    
O15   Zn1   S    
C39   H2    S    
C34   O5    A    
C19   O9    A    
C6    C43   S    
C41   H10   S    
H15   O35   S    
O45   Zn4   S    
C36   H23   S    
C47   H18   S    
C12   C13   S    
C55   H33   S    
C37   H40   S    
C36   H12   S    
C53   O47   S    
C46   O35   S    
O23   Zn2   S    
