data_mof_unit_44058.cif
_audit_creation_date              2013-03-05T15:48:21-0500
_audit_creation_method            fapswitch 2.2
_symmetry_space_group_name_H-M    P1
_symmetry_Int_Tables_number       1
_space_group_crystal_system       triclinic
_cell_length_a                    8.329607
_cell_length_b                    19.198119
_cell_length_c                    18.9917
_cell_angle_alpha                 99.973037
_cell_angle_beta                  93.952444
_cell_angle_gamma                 92.582454
_cell_volume                      2978.98582903

loop_
_atom_site_label
_atom_site_type_symbol
_atom_site_description
_atom_site_fract_x
_atom_site_fract_y
_atom_site_fract_z
_atom_type_partial_charge
P1    P     P_3+3 0.945400 0.662120 0.569160 0.599724
O1    O     O_2   0.116570 0.673370 0.549300 -0.327579
O2    O     O_3   0.869340 0.584760 0.542960 -0.319928
O3    O     O_3   0.352540 0.630870 0.419750 -0.372826
O4    O     O_2   0.293969 0.753163 0.491371 -0.422833
O5    O     O_3   0.963750 0.678515 0.662861 -0.415730
O6    O     O_3   0.295524 0.748119 0.351139 -0.506561
H1    H     H_    0.287234 0.655356 0.276983 0.152439
C1    C     C_3   0.333464 0.747083 0.227149 -0.645929
H2    H     H_    0.203611 0.752114 0.212983 0.213764
H3    H     H_    0.392629 0.801168 0.242754 0.218695
P2    P     P_3+3 0.355390 0.445380 0.336430 0.469732
P3    P     P_3+3 0.912554 0.590392 0.288466 0.449020
O7    O     O_2   0.181320 0.466870 0.327560 -0.360136
O8    O     O_3   0.937730 0.595370 0.381630 -0.396586
O9    O     O_2   0.041306 0.542644 0.254546 -0.368399
O10   O     O_3   0.335734 0.352912 0.312026 -0.544455
O11   O     O_3   0.964370 0.672916 0.266571 -0.513346
C2    C     C_3   0.886756 0.725002 0.310761 0.443549
H4    H     H_    0.934918 0.729467 0.367553 0.121923
H5    H     H_    0.754866 0.712440 0.305746 0.024926
C3    C     C_3   0.917350 0.796193 0.287523 -0.914190
H6    H     H_    0.046232 0.814227 0.299056 0.296666
H7    H     H_    0.883540 0.791624 0.229238 0.275474
C4    C     C_3   0.799158 0.379575 0.309765 0.348885
H8    H     H_    0.675096 0.391321 0.323649 0.086174
H9    H     H_    0.881635 0.426555 0.331516 0.124285
C5    C     C_3   0.806828 0.365214 0.228255 -0.721820
H10   H     H_    0.791041 0.415091 0.207631 0.152780
H11   H     H_    0.928210 0.347448 0.215242 0.207633
Ba1   Ba    Ba6+2 0.152000 0.534910 0.469330 1.611133
C6    C     C_3   0.918616 0.746732 0.691828 0.390927
H12   H     H_    0.861026 0.742797 0.742092 0.107289
H13   H     H_    0.828926 0.768495 0.657388 0.005314
C7    C     C_3   0.065617 0.797998 0.711466 -0.942484
H14   H     H_    0.148162 0.779333 0.751785 0.280678
H15   H     H_    0.027306 0.851213 0.734732 0.224352
H16   H     H_    0.129583 0.802375 0.663066 0.244115
C8    C     C_3   0.298301 0.322861 0.371388 0.446083
H17   H     H_    0.183647 0.342427 0.390501 0.069780
H18   H     H_    0.395436 0.335729 0.415359 0.138677
C9    C     C_3   0.280450 0.242675 0.349054 -0.917542
H19   H     H_    0.178582 0.227683 0.307472 0.261881
H20   H     H_    0.257113 0.217517 0.395943 0.224055
H21   H     H_    0.393163 0.222503 0.327323 0.283978
P4    P     P_3+3 0.864900 0.337880 0.430780 0.482484
O12   O     O_2   0.693730 0.326590 0.450680 -0.357573
O13   O     O_3   0.940960 0.415230 0.456980 -0.399633
O14   O     O_3   0.457750 0.369120 0.580200 -0.380712
O15   O     O_3   0.846811 0.319683 0.336879 -0.548090
P5    P     P_3+3 0.895753 0.399036 0.710885 0.529138
O16   O     O_3   0.373690 0.535540 0.586160 -0.374544
O17   O     O_3   0.872560 0.404620 0.618320 -0.344891
O18   O     O_2   0.761278 0.442497 0.745905 -0.350985
O19   O     O_3   0.838162 0.313419 0.722875 -0.500526
Ba2   Ba    Ba6+2 0.658180 0.465080 0.530610 1.643397
P6    P     P_3+3 0.385712 0.721075 0.426896 0.439450
C10   C     C_3   0.354797 0.707811 0.290209 0.389711
H22   H     H_    0.485196 0.699060 0.298457 -0.031581
O20   O     O_3   0.436600 0.464450 0.413780 -0.421634
C11   C     C_3   0.502513 0.678703 0.648911 0.517558
H23   H     H_    0.621100 0.663783 0.629699 0.025502
H24   H     H_    0.407398 0.664383 0.604184 0.138226
C12   C     C_3   0.505938 0.758587 0.672455 -1.053531
H25   H     H_    0.591281 0.775855 0.720375 0.252284
H26   H     H_    0.541298 0.785447 0.628072 0.223294
H27   H     H_    0.385393 0.774559 0.686889 0.283806
P7    P     P_3+3 0.450018 0.553777 0.677560 0.565288
O21   O     O_2   0.628980 0.533090 0.672420 -0.298322
O22   O     O_3   0.469677 0.645633 0.707242 -0.511102
H28   H     H_    0.845126 0.836913 0.317195 0.219367
C13   C     C_3   0.914148 0.264433 0.674619 0.423015
H29   H     H_    0.870281 0.266870 0.618515 0.115180
H30   H     H_    0.046907 0.274454 0.682366 0.012800
C14   C     C_3   0.873302 0.190253 0.688783 -0.866908
H31   H     H_    0.741759 0.177201 0.678470 0.287508
H32   H     H_    0.936539 0.150430 0.653110 0.199437
H33   H     H_    0.910906 0.187024 0.745323 0.274571
P8    P     P_3+3 0.421471 0.279129 0.577118 0.434843
C15   C     C_3   0.428706 0.299788 0.714903 0.367922
H34   H     H_    0.309843 0.319174 0.699340 0.009493
O23   O     O_2   0.526677 0.243261 0.519187 -0.413129
O24   O     O_3   0.495964 0.256515 0.657951 -0.511161
H35   H     H_    0.511482 0.346977 0.734780 0.130884
H36   H     H_    0.331413 0.288754 0.815784 0.158468
C16   C     C_3   0.402208 0.257948 0.775109 -0.898229
H37   H     H_    0.330030 0.207941 0.752411 0.230923
C17   C     C_R   0.946409 0.198748 0.458279 -0.289764
H38   H     H_    0.858699 0.177869 0.414215 0.159509
C18   C     C_R   0.982245 0.273213 0.472921 0.295020
C19   C     C_R   0.142140 0.186311 0.554229 -0.352356
H39   H     H_    0.191968 0.160498 0.596268 0.147710
C20   C     C_R   0.208153 0.253752 0.551005 0.237162
C21   C     C_R   0.673507 0.806099 0.433740 -0.366843
H40   H     H_    0.626817 0.825311 0.386818 0.150367
C22   C     C_R   0.600834 0.743278 0.447170 0.252462
C23   C     C_R   0.878373 0.799485 0.527414 -0.308939
H41   H     H_    0.974596 0.822142 0.566436 0.138254
C24   C     C_R   0.831289 0.726253 0.523319 0.198309
C25   C     C_R   0.018078 0.153142 0.502975 0.117464
C26   C     C_R   0.118549 0.299276 0.517368 -0.476841
H42   H     H_    0.161457 0.354015 0.521714 0.163939
C27   C     C_R   0.802817 0.841871 0.480057 0.119148
C28   C     C_R   0.685517 0.701106 0.486805 -0.418487
H43   H     H_    0.634260 0.649501 0.491691 0.142711
C29   C     C_R   0.240041 0.037132 0.530082 -0.165979
C30   C     C_R   0.340685 0.987884 0.551755 -0.149211
C31   C     C_R   0.293446 0.916926 0.534404 -0.106713
C32   C     C_R   0.141818 0.896684 0.500012 -0.089791
C33   C     C_R   0.022015 0.945851 0.497286 0.042277
C34   C     C_R   0.074417 0.019900 0.508671 0.117130
C35   C     C_R   0.857094 0.921149 0.479420 -0.065574
C36   C     C_R   0.748323 0.974282 0.464149 0.097927
C37   C     C_R   0.800424 0.048368 0.477186 0.069154
C38   C     C_R   0.964396 0.073107 0.496971 -0.054612
C39   C     C_R   0.585695 0.957539 0.436210 -0.248101
C40   C     C_R   0.489785 0.007384 0.410759 -0.036250
C41   C     C_R   0.536020 0.078521 0.432829 -0.160494
C42   C     C_R   0.681487 0.097520 0.472822 -0.179398
H44   H     H_    0.300804 0.086268 0.525897 0.150894
H45   H     H_    0.463559 0.003881 0.572680 0.149989
H46   H     H_    0.379744 0.878094 0.542357 0.155665
H47   H     H_    0.118243 0.842340 0.474884 0.187392
H48   H     H_    0.522080 0.908983 0.438590 0.169448
H49   H     H_    0.455861 0.119278 0.423128 0.184345
H50   H     H_    0.701970 0.151424 0.499194 0.189058
C43   C     C_R   0.607849 0.529953 0.300063 -0.513811
C44   C     C_R   0.466754 0.489070 0.274250 0.315235
C45   C     C_R   0.423469 0.473651 0.200221 -0.245203
C46   C     C_R   0.523551 0.497853 0.151374 0.056438
C47   C     C_R   0.668766 0.537216 0.178688 -0.265410
C48   C     C_R   0.711373 0.552096 0.252591 0.223096
C49   C     C_R   0.517387 0.531982 0.029669 -0.091239
C50   C     C_R   0.471257 0.519769 0.956499 -0.159323
C51   C     C_R   0.386573 0.456297 0.922608 0.158618
C52   C     C_R   0.349349 0.405177 0.964782 -0.163766
C53   C     C_R   0.395261 0.417720 0.038804 -0.118887
C54   C     C_R   0.478716 0.481805 0.072346 0.163681
C55   C     C_R   0.171497 0.418002 0.818876 -0.333546
C56   C     C_R   0.098496 0.435484 0.755561 0.105543
C57   C     C_R   0.345941 0.499815 0.736852 0.129498
C58   C     C_R   0.420289 0.482423 0.799146 -0.354359
C59   C     C_R   0.328380 0.448419 0.845183 0.022384
C60   C     C_R   0.179789 0.486909 0.726130 0.171670
H51   H     H_    0.543607 0.501576 0.815235 0.197784
H52   H     H_    0.497476 0.561876 0.927057 0.130375
H53   H     H_    0.579255 0.582200 0.053144 0.124377
H54   H     H_    0.313143 0.442080 0.181090 0.146591
H55   H     H_    0.284726 0.355671 0.940783 0.127907
H56   H     H_    0.365974 0.377057 0.069585 0.136739
H57   H     H_    0.102465 0.386675 0.849621 0.180561
H58   H     H_    0.752839 0.553293 0.142731 0.152472
H59   H     H_    0.643212 0.539929 0.356978 0.169690
C61   C     C_2   0.680685 0.310607 0.189895 1.145102
O25   O     O_2   0.670132 0.297457 0.124372 -0.633877
O26   O     O_R   0.576566 0.274961 0.228182 -0.761771
H60   H     H_    0.497177 0.240055 0.195691 0.322782
C62   C     C_2   0.406899 0.708792 0.162714 1.035916
O27   O     O_2   0.348200 0.650989 0.132313 -0.637085
O28   O     O_R   0.541357 0.739841 0.137450 -0.787191
H61   H     H_    0.579531 0.709496 0.093344 0.316366
C63   C     C_2   0.558926 0.241883 0.811660 1.282776
O29   O     O_2   0.596056 0.180560 0.806876 -0.599194
O30   O     O_R   0.661430 0.295825 0.852532 -0.743278
H62   H     H_    0.617067 0.344386 0.855027 0.287707
C64   C     C_2   0.332379 0.985681 0.369296 1.013321
O31   O     O_2   0.292658 0.922873 0.349188 -0.648971
O32   O     O_R   0.229271 0.037101 0.352753 -0.813411
H63   H     H_    0.124818 0.015701 0.325351 0.331827
S1    S     S_3+6 0.074895 0.556416 0.706308 0.025579
O33   O     O_2   0.064560 0.543458 0.626577 -0.210409
O34   O     O_2   0.911331 0.559744 0.734097 -0.254835
O35   O     O_3   0.178003 0.633095 0.742078 -0.507309
H64   H     H_    0.183124 0.634539 0.794585 0.327275

loop_
_geom_bond_atom_site_label_1
_geom_bond_atom_site_label_2
_geom_bond_distance
_ccdc_geom_bond_type
C11   O22   1.405300 S    
O5    C6    1.407982 S    
C26   H42   1.082089 S    
C60   S1    1.708642 S    
C17   C18   1.422168 A    
C2    H4    1.112139 S    
Ba1   O16   2.785134 S    
C15   H35   1.108155 S    
C44   C45   1.403778 A    
P1    C24   1.881492 S    
C37   C38   1.428703 A    
C51   C52   1.407093 A    
C8    H18   1.109236 S    
O35   H64   0.990673 S    
C31   C32   1.388143 A    
C4    C5    1.530958 S    
P3    O11   1.749434 S    
O30   H62   1.012962 S    
C7    H15   1.110527 S    
P8    C20   1.832305 S    
C15   O24   1.410013 S    
C29   C30   1.387361 A    
C23   H41   1.075127 S    
P1    Ba1   3.427117 S    
O11   C2    1.401632 S    
C39   C40   1.401220 A    
P1    O1    1.515374 D    
O10   C8    1.399506 S    
C55   H57   1.081683 S    
C11   H24   1.109751 S    
C41   C42   1.383998 A    
C35   C36   1.447421 A    
C45   H54   1.082304 S    
C15   C16   1.529152 S    
H1    C10   1.111646 S    
C36   C37   1.442301 A    
C55   C59   1.427736 A    
C62   O28   1.397440 S    
C7    H14   1.110010 S    
P7    O21   1.565048 D    
P6    C22   1.822095 S    
O3    P6    1.721646 S    
C64   O32   1.399087 S    
C16   C63   1.505506 S    
C41   H49   1.082611 S    
Ba1   Ba2   4.557911 S    
C1    H2    1.109018 S    
O7    Ba1   2.813617 S    
O6    C10   1.408782 S    
C61   O26   1.398214 S    
C37   C42   1.406701 A    
O16   P7    1.776866 S    
C36   C39   1.422132 A    
P5    C56   1.884625 S    
C51   C59   1.496025 S    
C24   C28   1.379654 A    
C49   C54   1.402539 A    
C5    C61   1.504817 S    
C58   H51   1.080493 S    
C43   H59   1.082189 S    
C47   H58   1.082334 S    
C11   H23   1.108994 S    
C25   C38   1.563411 S    
C9    H20   1.108337 S    
C13   C14   1.522448 S    
C28   H43   1.082403 S    
C23   C24   1.429914 A    
C52   H55   1.082040 S    
C8    C9    1.521954 S    
C63   O30   1.398027 S    
C29   C34   1.418803 A    
O1    Ba1   2.862475 S    
C50   H52   1.082283 S    
P4    O13   1.571608 S    
O16   Ba2   2.949139 S    
P1    O5    1.747396 S    
C6    C7    1.519337 S    
C56   C60   1.388778 A    
C7    H16   1.107308 S    
C13   H30   1.109112 S    
C32   C33   1.408602 A    
C57   C60   1.389618 A    
C20   C26   1.383990 A    
C8    H17   1.103549 S    
C16   H37   1.112586 S    
C13   H29   1.111830 S    
C10   H22   1.111135 S    
H36   C16   1.109162 S    
Ba2   O20   2.784578 S    
C27   C35   1.570392 S    
P1    O2    1.571776 S    
C9    H21   1.110215 S    
C6    H13   1.102691 S    
Ba1   O20   2.949918 S    
P2    O10   1.752531 S    
C11   C12   1.519705 S    
C21   C22   1.395733 A    
C14   H31   1.109225 S    
C12   H27   1.101788 S    
C18   C26   1.386489 A    
C4    O15   1.401013 S    
C19   C20   1.396568 A    
C49   C50   1.392512 A    
C14   H32   1.107726 S    
O2    Ba2   2.796440 S    
C40   C64   1.485786 S    
C30   C31   1.377515 A    
C2    C3    1.523385 S    
P7    C57   1.884267 S    
C33   C34   1.443199 A    
C4    H8    1.107355 S    
C17   C25   1.441602 A    
O2    Ba1   2.933959 S    
C43   C48   1.394282 A    
C61   O25   1.222330 D    
C23   C27   1.445245 A    
P4    C18   1.866234 S    
O32   H63   1.013867 S    
P2    O7    1.531408 D    
C21   C27   1.413867 A    
Ba1   O13   2.795852 S    
C1    H3    1.111760 S    
P2    Ba1   3.397689 S    
C62   O27   1.222343 D    
C19   C25   1.417116 A    
C3    H7    1.110614 S    
C53   H56   1.082256 S    
C9    H19   1.110569 S    
C30   H45   1.083096 S    
C43   C44   1.393474 A    
C46   C54   1.496402 S    
C3    H28   1.107751 S    
C19   H39   1.079432 S    
C63   O29   1.220482 D    
O17   Ba2   2.785169 S    
O13   Ba2   2.934810 S    
C22   C28   1.381666 A    
P4    O12   1.515740 D    
C5    H10   1.105329 S    
C39   H48   1.060755 S    
C29   H44   1.068092 S    
C3    H6    1.108218 S    
C32   H47   1.072820 S    
O19   C13   1.400006 S    
C31   H46   1.080565 S    
C15   H34   1.112246 S    
P8    O23   1.541888 D    
C55   C56   1.409141 A    
O8    Ba1   2.784486 S    
C50   C51   1.408898 A    
P2    C44   1.839168 S    
C4    H9    1.109991 S    
O14   Ba2   2.758382 S    
C53   C54   1.411766 A    
P4    O15   1.751414 S    
O4    P6    1.540447 D    
P5    O18   1.545279 D    
C6    H12   1.109931 S    
P3    O8    1.752758 S    
C46   C47   1.413728 A    
C45   C46   1.411551 A    
C40   C41   1.386083 A    
O28   H61   1.013186 S    
P8    O24   1.747586 S    
C64   O31   1.223264 D    
S1    O34   1.494688 D    
C1    C62   1.498070 S    
C12   H25   1.108406 S    
C5    H11   1.111754 S    
P3    C48   1.836024 S    
P5    O19   1.748517 S    
C21   H40   1.077209 S    
C49   H53   1.080957 S    
C14   H33   1.110579 S    
C33   C35   1.431244 A    
O3    Ba1   2.758837 S    
P2    O20   1.550489 S    
C42   H50   1.069412 S    
O14   P8    1.730612 S    
O26   H60   1.013761 S    
C17   H38   1.080684 S    
C1    C10   1.526355 S    
P7    O22   1.752516 S    
Ba2   O21   2.813936 S    
S1    O33   1.487214 D    
P3    O9    1.544258 D    
P4    Ba2   3.427566 S    
C58   C59   1.421833 A    
C52   C53   1.407428 A    
C34   C38   1.437882 A    
P5    O17   1.777517 S    
C57   C58   1.396115 A    
O6    P6    1.746088 S    
C47   C48   1.400292 A    
C12   H26   1.110948 S    
O12   Ba2   2.862857 S    
C2    H5    1.108101 S    
S1    O35   1.680896 S    
