data_mof_unit_49542.cif
_audit_creation_date              2012-12-11T16:11:07-0500
_audit_creation_method            fapswitch 2.2
_symmetry_space_group_name_H-M    P1
_symmetry_Int_Tables_number       1
_space_group_crystal_system       triclinic
_cell_length_a                    12.845376
_cell_length_b                    13.356664
_cell_length_c                    26.940707
_cell_angle_alpha                 97.371276
_cell_angle_beta                  90.314658
_cell_angle_gamma                 118.720886
_cell_volume                      4008.08440264

loop_
_atom_site_label
_atom_site_type_symbol
_atom_type_description
_atom_site_fract_x
_atom_site_fract_y
_atom_site_fract_z
_atom_type_partial_charge
C1    C     C_R   0.627845 0.894882 0.424372 0.542372
C2    C     C_R   0.576068 0.318335 0.226752 0.040600
C3    C     C_R   0.569634 0.311044 0.278487 -0.048201
C4    C     C_R   0.670283 0.328450 0.307534 -0.042362
C5    C     C_R   0.684328 0.345480 0.204794 -0.048780
C6    C     C_1   0.693907 0.364956 0.153235 0.041098
C7    C     C_1   0.656642 0.305687 0.358607 -0.000835
C8    C     C_1   0.702832 0.391348 0.111930 0.062379
C9    C     C_1   0.113722 0.805449 0.135111 0.018179
C10   C     C_1   0.140268 0.823947 0.179468 -0.007471
C11   C     C_1   0.160435 0.836817 0.231819 0.032364
C12   C     C_R   0.601996 0.223946 0.443501 0.546411
C13   C     C_1   0.174697 0.843637 0.276499 0.020316
C14   C     C_1   0.194510 0.850423 0.328492 -0.035686
C15   C     C_1   0.220599 0.859033 0.372328 0.001007
C16   C     C_1   0.689693 0.798993 0.136181 0.016016
C17   C     C_1   0.673164 0.808656 0.180009 -0.015010
C18   C     C_1   0.661907 0.817842 0.232097 0.020005
C19   C     C_1   0.656063 0.826963 0.276849 0.011682
C20   C     C_1   0.650320 0.842115 0.329231 -0.033911
C21   C     C_1   0.642958 0.861609 0.373522 0.000701
C22   C     C_1   0.692914 0.382256 0.875198 -0.026925
C23   C     C_R   0.268454 0.875633 0.422510 0.551628
C24   C     C_1   0.683340 0.354628 0.830463 -0.041380
C25   C     C_1   0.674592 0.333637 0.777706 0.019821
C26   C     C_1   0.666880 0.319045 0.732594 0.007441
C27   C     C_1   0.653926 0.299099 0.679831 -0.047822
C28   C     C_1   0.635560 0.273298 0.635002 -0.018107
C29   C     C_1   0.217131 0.862880 0.609222 0.024069
C30   C     C_R   0.142947 0.736340 0.721287 0.043292
C31   C     C_R   0.144662 0.734530 0.773686 -0.048015
C32   C     C_R   0.192267 0.937469 0.789401 0.061328
C33   C     C_R   0.193653 0.941118 0.737446 -0.044821
C34   C     C_R   0.630910 0.899264 0.563792 0.544630
C35   C     C_R   0.168823 0.840884 0.703555 -0.028063
C36   C     C_R   0.165336 0.833929 0.806990 -0.037495
C37   C     C_1   0.144780 0.823232 0.858997 -0.006237
C38   C     C_1   0.188237 0.851015 0.651306 0.001529
C39   C     C_1   0.114321 0.801689 0.899973 0.025150
C40   C     C_1   0.649878 0.870097 0.610392 0.036552
C41   C     C_R   0.721364 0.937436 0.741457 0.047516
C42   C     C_R   0.711254 0.922894 0.792453 -0.034921
C43   C     C_R   0.577749 0.714755 0.768351 -0.017913
C44   C     C_R   0.587039 0.729540 0.717376 -0.032899
C45   C     C_R   0.602971 0.226676 0.583055 0.539486
C46   C     C_R   0.660110 0.839674 0.704314 -0.019077
C47   C     C_R   0.641822 0.811729 0.805664 -0.017644
C48   C     C_1   0.650368 0.797250 0.857349 -0.049974
C49   C     C_1   0.658715 0.854105 0.652471 0.007501
C50   C     C_1   0.671794 0.787943 0.899382 -0.006377
C51   C     C_R   0.065235 0.771662 0.084146 0.544704
C52   C     C_R   0.716043 0.438611 0.066496 0.546402
C53   C     C_R   0.720420 0.782241 0.086070 0.545594
C54   C     C_R   0.060737 0.765598 0.944910 0.544128
C55   C     C_R   0.709270 0.431650 0.926781 0.532455
C56   C     C_R   0.268837 0.879759 0.562251 0.548881
C57   C     C_R   0.711953 0.774894 0.946247 0.543083
C58   C     C_1   0.636601 0.275542 0.399153 0.024469
C59   C     C_R   0.778661 0.355214 0.285678 0.041184
C60   C     C_R   0.786270 0.365666 0.234054 0.026402
Cr1   Cr    Cr6+3 0.416010 0.828400 0.490230 1.045993
Cr2   Cr    Cr6+3 0.676380 0.087280 0.505260 1.067151
Cr3   Cr    Cr6+3 0.407590 0.084280 0.504540 1.020775
Cr4   Cr    Cr6+3 0.914090 0.832340 0.018020 1.068584
Cr5   Cr    Cr6+3 0.923310 0.576840 0.003860 1.037708
Cr6   Cr    Cr6+3 0.654200 0.573160 0.004700 1.040590
O1    O     O_R   0.294740 0.800910 0.434410 -0.488552
O2    O     O_R   0.664100 0.185180 0.560770 -0.475313
O3    O     O_R   0.500290 0.202770 0.565360 -0.530257
O4    O     O_R   0.310570 0.979360 0.548520 -0.497645
O5    O     O_3   0.499990 0.999990 0.500010 -0.262367
O6    O     O_R   0.819910 0.858260 0.073860 -0.494843
O7    O     O_R   0.018180 0.827180 0.067430 -0.488377
O8    O     O_R   0.044260 0.672570 0.062730 -0.501396
O9    O     O_R   0.818270 0.481940 0.049130 -0.492830
O10   O     O_R   0.635480 0.460400 0.052590 -0.489033
O11   O     O_R   0.662650 0.681410 0.060750 -0.491406
O12   O     O_R   0.526010 0.837250 0.440870 -0.497146
O13   O     O_R   0.814500 0.852290 0.965490 -0.492376
O14   O     O_R   0.013160 0.821640 0.966980 -0.482831
O15   O     O_R   0.038850 0.666600 0.954370 -0.510269
O16   O     O_R   0.813260 0.476410 0.948680 -0.496014
O17   O     O_R   0.630060 0.454430 0.944230 -0.514723
O18   O     O_R   0.657630 0.675880 0.960300 -0.501842
O19   O     O_3   0.830530 0.660780 0.008860 -0.262495
O20   O     O_R   0.704290 0.994500 0.446090 -0.501436
O21   O     O_R   0.662870 0.181760 0.460430 -0.484452
O22   O     O_R   0.498970 0.199080 0.457120 -0.514112
O23   O     O_R   0.309350 0.975930 0.448180 -0.503158
O24   O     O_R   0.296060 0.804610 0.542650 -0.495541
O25   O     O_R   0.527240 0.840670 0.541200 -0.504395
O26   O     O_R   0.705610 0.998200 0.554330 -0.486247
C61   C     C_2   0.882387 0.367857 0.316370 0.618302
O27   O     O_2   0.910401 0.424306 0.358403 -0.502500
O28   O     O_R   0.947617 0.314713 0.297134 -0.664705
H1    H     H_    0.015937 0.329753 0.321392 0.337183
C62   C     C_R   0.776809 0.022586 0.832682 0.068981
C63   C     C_R   0.715203 0.068972 0.861607 -0.051546
C64   C     C_R   0.775205 0.157452 0.901859 -0.100592
C65   C     C_R   0.896425 0.199064 0.913695 -0.111499
C66   C     C_R   0.958301 0.153538 0.884805 -0.100240
C67   C     C_R   0.898856 0.065796 0.844228 -0.059015
H2    H     H_    0.620785 0.035817 0.853212 0.123312
H3    H     H_    0.727548 0.193020 0.924149 0.117155
H4    H     H_    0.942620 0.267095 0.945071 0.118505
H5    H     H_    0.052317 0.186306 0.893898 0.146020
H6    H     H_    0.946970 0.030027 0.822396 0.134917
C68   C     C_R   0.495713 0.599506 0.782152 0.027126
C69   C     C_R   0.373843 0.546987 0.767365 -0.089424
C70   C     C_R   0.295073 0.438526 0.779390 -0.106911
C71   C     C_R   0.336519 0.382795 0.807687 -0.098685
C72   C     C_R   0.457594 0.434534 0.822913 -0.091432
C73   C     C_R   0.537565 0.541660 0.809554 -0.086638
H7    H     H_    0.339786 0.591148 0.747097 0.166304
H8    H     H_    0.201307 0.399006 0.767727 0.140437
H9    H     H_    0.274377 0.299986 0.817927 0.145314
H10   H     H_    0.489348 0.391936 0.845277 0.137340
H11   H     H_    0.631446 0.579630 0.820858 0.114430
C74   C     C_R   0.521307 0.630384 0.676810 0.029855
C75   C     C_R   0.567748 0.556899 0.660692 -0.085718
C76   C     C_R   0.513360 0.472130 0.618689 -0.115944
C77   C     C_R   0.411132 0.458475 0.593305 -0.111957
C78   C     C_R   0.363705 0.530675 0.609561 -0.110771
C79   C     C_R   0.419219 0.617196 0.650878 -0.088058
H12   H     H_    0.647718 0.567511 0.679705 0.120695
H13   H     H_    0.551141 0.417772 0.605495 0.132457
H14   H     H_    0.369045 0.392302 0.560946 0.125731
H15   H     H_    0.284991 0.520698 0.589746 0.135933
H16   H     H_    0.384019 0.675086 0.662287 0.138827
C80   C     C_2   0.902299 0.403649 0.211214 0.617550
O29   O     O_2   0.907391 0.352905 0.170935 -0.499840
O30   O     O_R   0.005498 0.498086 0.235813 -0.671114
H17   H     H_    0.078541 0.515945 0.216573 0.344849
C81   C     C_2   0.469306 0.297883 0.195716 0.576833
O31   O     O_2   0.373426 0.211953 0.197796 -0.502316
O32   O     O_R   0.478348 0.377363 0.164581 -0.695492
H18   H     H_    0.399841 0.353876 0.145530 0.349017
C82   C     C_R   0.458771 0.290264 0.302844 0.062151
C83   C     C_R   0.385147 0.183607 0.318754 -0.052863
C84   C     C_R   0.281264 0.165179 0.341713 -0.083992
C85   C     C_R   0.249962 0.252537 0.348625 -0.088614
C86   C     C_R   0.322621 0.358664 0.332705 -0.094713
C87   C     C_R   0.426817 0.377680 0.309924 -0.065548
H19   H     H_    0.408331 0.115171 0.313407 0.112606
H20   H     H_    0.224885 0.083247 0.354154 0.119474
H21   H     H_    0.169397 0.237990 0.366306 0.120512
H22   H     H_    0.298247 0.426220 0.338056 0.126071
H23   H     H_    0.482639 0.460324 0.297810 0.121177
C88   C     C_2   0.114185 0.630091 0.685195 0.557608
O33   O     O_2   0.055060 0.608827 0.645699 -0.511461
O34   O     O_R   0.153328 0.553768 0.696380 -0.745088
H24   H     H_    0.127410 0.484938 0.669043 0.334629
C89   C     C_R   0.125381 0.630690 0.795656 0.076073
C90   C     C_R   0.013596 0.530617 0.789715 -0.061815
C91   C     C_R   0.991892 0.441536 0.817367 -0.110826
C92   C     C_R   0.080354 0.452710 0.851527 -0.097670
C93   C     C_R   0.191330 0.551967 0.857777 -0.104121
C94   C     C_R   0.214560 0.639776 0.829415 -0.086298
H25   H     H_    0.942745 0.523208 0.764961 0.117313
H26   H     H_    0.905858 0.364812 0.813298 0.147233
H27   H     H_    0.063418 0.384753 0.873228 0.116717
H28   H     H_    0.259802 0.560432 0.884244 0.121684
H29   H     H_    0.300830 0.716980 0.835021 0.110302
C95   C     C_2   0.227841 0.043711 0.825727 0.559065
O35   O     O_2   0.159528 0.047627 0.856353 -0.556763
O36   O     O_R   0.342086 0.137249 0.826155 -0.706654
H30   H     H_    0.360480 0.199427 0.855884 0.325308
C96   C     C_R   0.214822 0.048378 0.718454 0.049455
C97   C     C_R   0.127324 0.082901 0.721600 -0.067827
C98   C     C_R   0.145746 0.182648 0.702968 -0.099284
C99   C     C_R   0.251173 0.248291 0.681150 -0.103651
C100  C     C_R   0.338982 0.215057 0.678402 -0.085367
C101  C     C_R   0.321325 0.115535 0.697047 -0.055503
H31   H     H_    0.044940 0.032307 0.738235 0.124729
H32   H     H_    0.079012 0.209989 0.705789 0.160063
H33   H     H_    0.265291 0.325755 0.667037 0.133893
H34   H     H_    0.420574 0.266508 0.661816 0.128431
H35   H     H_    0.390061 0.090556 0.694672 0.121731
C102  C     C_2   0.793753 0.054514 0.726862 0.555759
O37   O     O_2   0.853769 0.066915 0.690760 -0.541222
O38   O     O_R   0.791819 0.150173 0.753756 -0.709533
H36   H     H_    0.842662 0.223634 0.739241 0.331955

loop_
_geom_bond_atom_site_label_1
_geom_bond_atom_site_label_2
_ccdc_geom_bond_type
C100  H34   S    
C99   C100  A    
C1    C21   S    
C66   C67   A    
Cr3   O22   S    
C97   C98   A    
C57   O13   A    
C80   O30   S    
O28   H1    S    
C9    C51   S    
C51   O8    A    
C52   O9    A    
Cr6   O19   S    
C62   C63   A    
Cr5   O16   S    
C78   C79   A    
C74   C79   A    
C100  C101  A    
Cr2   O20   S    
C46   C49   S    
C65   H4    S    
C2    C81   S    
C41   C46   A    
C30   C35   A    
C34   C40   S    
C32   C36   A    
C36   C37   S    
C71   C72   A    
C82   C87   A    
C88   O34   S    
C5    C6    S    
C39   C54   S    
C98   C99   A    
C40   C49   T    
C89   C94   A    
C68   C69   A    
C18   C19   T    
C41   C42   A    
C23   O1    A    
C77   H14   S    
C34   O25   A    
Cr6   O17   S    
C70   C71   A    
C85   C86   A    
C93   C94   A    
Cr3   O3    S    
C16   C17   T    
Cr2   O26   S    
C29   C38   T    
C79   H16   S    
Cr4   O7    S    
C23   O23   A    
C71   H9    S    
C9    C10   T    
C8    C52   S    
C7    C58   T    
C62   C67   A    
C5    C60   A    
C42   C47   A    
C12   C58   S    
Cr1   O5    S    
C15   C23   S    
C64   H3    S    
C59   C60   A    
C61   O28   S    
C13   C14   S    
C1    O12   A    
Cr4   O14   S    
C95   O35   D    
C96   C101  A    
C4    C7    S    
C72   C73   A    
C31   C89   S    
C44   C46   A    
C54   O14   A    
C98   H32   S    
C74   C75   A    
C87   H23   S    
C28   C45   S    
C70   H8    S    
C12   O22   A    
Cr2   O21   S    
C45   O3    A    
C47   C48   S    
C35   C38   S    
C24   C25   S    
C82   C83   A    
C42   C62   S    
C60   C80   S    
C75   H12   S    
O30   H17   S    
C30   C88   S    
C81   O32   S    
C44   C74   S    
C25   C26   T    
O38   H36   S    
Cr5   O8    S    
C102  O37   D    
C76   H13   S    
C68   C73   A    
C97   H31   S    
C53   O11   A    
C43   C44   A    
C83   H19   S    
Cr1   O1    S    
Cr5   O15   S    
C64   C65   A    
Cr3   O4    S    
Cr1   O24   S    
Cr1   O12   S    
O34   H24   S    
Cr6   O10   S    
Cr3   O23   S    
C45   O2    A    
C17   C18   S    
C90   C91   A    
C57   O18   A    
C67   H6    S    
C3    C82   S    
C84   C85   A    
C55   O16   A    
C48   C50   T    
C76   C77   A    
C22   C55   S    
C69   H7    S    
C85   H21   S    
C96   C97   A    
Cr3   O5    S    
C92   H27   S    
C56   O4    A    
C26   C27   S    
O36   H30   S    
Cr4   O13   S    
C22   C24   T    
C33   C96   S    
C55   O17   A    
C3    C4    A    
Cr4   O19   S    
C27   C28   T    
C75   C76   A    
C99   H33   S    
C66   H5    S    
Cr6   O11   S    
C92   C93   A    
C12   O21   A    
C91   H26   S    
C86   C87   A    
C50   C57   S    
C86   H22   S    
C41   C102  S    
C94   H29   S    
C51   O7    A    
O32   H18   S    
C52   O10   A    
C84   H20   S    
C6    C8    T    
C83   C84   A    
Cr5   O19   S    
C81   O31   D    
C29   C56   S    
C61   O27   D    
Cr5   O9    S    
Cr2   O2    S    
C32   C33   A    
C19   C20   S    
C95   O36   S    
C2    C3    A    
C77   C78   A    
C90   H25   S    
C37   C39   T    
C63   H2    S    
C88   O33   D    
C11   C13   T    
C30   C31   A    
C78   H15   S    
C72   H10   S    
C101  H35   S    
C32   C95   S    
C4    C59   A    
C56   O24   A    
C65   C66   A    
C33   C35   A    
Cr2   O5    S    
C80   O29   D    
C43   C68   S    
Cr4   O6    S    
C34   O26   A    
C10   C11   S    
Cr6   O18   S    
C73   H11   S    
C2    C5    A    
C1    O20   A    
C20   C21   T    
C63   C64   A    
C91   C92   A    
C14   C15   T    
C31   C36   A    
C59   C61   S    
C102  O38   S    
C89   C90   A    
C69   C70   A    
C53   O6    A    
C43   C47   A    
C93   H28   S    
C54   O15   A    
Cr1   O25   S    
C16   C53   S    
