data_mof_unit_50329.cif
_audit_creation_date              2012-10-26T18:44:52-0400
_audit_creation_method            fapswitch 2.2
_symmetry_space_group_name_H-M    P1
_symmetry_Int_Tables_number       1
_space_group_crystal_system       triclinic
_cell_length_a                    15.996379
_cell_length_b                    14.73831
_cell_length_c                    10.951573
_cell_angle_alpha                 89.983819
_cell_angle_beta                  90.075029
_cell_angle_gamma                 90.020727
_cell_volume                      2581.93590327

loop_
_atom_site_label
_atom_site_type_symbol
_atom_type_description
_atom_site_fract_x
_atom_site_fract_y
_atom_site_fract_z
_atom_type_partial_charge
C1    C     C_1   0.251902 0.499918 0.499410 -0.000526
C2    C     C_R   0.575824 0.048383 0.496030 0.216068
C3    C     C_R   0.956198 0.580136 0.527698 0.234649
C4    C     C_R   0.043676 0.419877 0.470454 0.234932
C5    C     C_R   0.043949 0.579056 0.532217 0.235280
C6    C     C_R   0.955919 0.420919 0.466119 0.236465
C7    C     C_R   0.340872 0.499981 0.499779 0.532901
C8    C     C_R   0.659112 0.500016 0.500124 0.551470
C9    C     C_R   0.499705 0.500050 0.261484 0.542365
C10   C     C_R   0.500258 0.500045 0.738427 0.569458
C11   C     C_R   0.912573 0.500307 0.498234 -0.043884
C12   C     C_1   0.748050 0.500058 0.500019 0.000071
C13   C     C_R   0.087324 0.499676 0.500148 -0.043927
C14   C     C_1   0.500136 0.802697 0.500056 0.175905
C15   C     C_1   0.499854 0.197329 0.500072 0.186037
C16   C     C_1   0.822993 0.500133 0.499574 0.027865
C17   C     C_1   0.176938 0.499821 0.499363 0.029912
C18   C     C_R   0.456013 0.665598 0.108538 0.103368
C19   C     C_R   0.448570 0.337366 0.891839 0.104920
C20   C     C_R   0.549637 0.662755 0.892554 0.088327
C21   C     C_R   0.543361 0.335356 0.107569 0.104512
C22   C     C_R   0.482208 0.747580 0.055524 0.310558
C23   C     C_R   0.499263 0.500241 0.872240 0.003370
C24   C     C_R   0.468490 0.254284 0.947665 0.307903
C25   C     C_R   0.531721 0.746154 0.949451 0.264325
C26   C     C_R   0.517760 0.253143 0.054167 0.281516
C27   C     C_R   0.513328 0.581893 0.939029 -0.023736
C28   C     C_R   0.510997 0.418216 0.060456 -0.056033
C29   C     C_R   0.487121 0.582364 0.060809 -0.064302
C30   C     C_R   0.484314 0.418753 0.938849 -0.063959
C31   C     C_3   0.097783 0.661120 0.688500 -0.086470
C32   C     C_3   0.900479 0.339095 0.310711 -0.091744
C33   C     C_3   0.902376 0.711401 0.454160 -0.088647
C34   C     C_R   0.499151 0.500203 0.127449 -0.018839
C35   C     C_3   0.097824 0.288542 0.543314 -0.086163
C36   C     C_3   0.476555 0.139713 0.179967 -0.087042
C37   C     C_3   0.501062 0.867320 0.829813 -0.113059
C38   C     C_3   0.500139 0.133202 0.828944 -0.115522
C39   C     C_3   0.522423 0.862498 0.179732 -0.104520
C40   C     C_3   0.674990 0.110178 0.373914 -0.078325
C41   C     C_3   0.319744 0.895467 0.381246 -0.075759
C42   C     C_3   0.318204 0.105352 0.616472 -0.079733
C43   C     C_3   0.684852 0.895903 0.608849 -0.083735
C44   C     C_R   0.500170 0.902895 0.500070 -0.086676
C45   C     C_R   0.499862 0.097182 0.499995 -0.091450
C46   C     C_R   0.576053 0.951948 0.499374 0.212905
C47   C     C_R   0.424001 0.048143 0.502295 0.208891
C48   C     C_R   0.424184 0.951677 0.499023 0.215501
Cu1   Cu    Cu3+1 0.500000 0.589220 0.500000 0.979117
Cu2   Cu    Cu3+1 0.500000 0.410780 0.500000 1.004433
H1    H     H_    0.134403 0.602071 0.722636 0.100613
H2    H     H_    0.036802 0.267469 0.583010 0.153480
H3    H     H_    0.136158 0.324483 0.613102 0.103331
H4    H     H_    0.131929 0.225995 0.517233 0.149030
H5    H     H_    0.499681 0.080955 0.233119 0.110639
H6    H     H_    0.455274 0.191919 0.246526 0.145745
H7    H     H_    0.422997 0.115893 0.123738 0.174224
H8    H     H_    0.474383 0.819827 0.760946 0.125935
H9    H     H_    0.529616 0.924609 0.779355 0.109546
H10   H     H_    0.450451 0.895618 0.887816 0.180436
H11   H     H_    0.526053 0.180571 0.759401 0.121582
H12   H     H_    0.036514 0.665062 0.736265 0.151836
H13   H     H_    0.472338 0.075029 0.779397 0.109085
H14   H     H_    0.551192 0.106201 0.887452 0.173838
H15   H     H_    0.545013 0.810850 0.246300 0.126781
H16   H     H_    0.498510 0.920809 0.232907 0.115504
H17   H     H_    0.575245 0.887416 0.123089 0.174519
H18   H     H_    0.631286 0.157995 0.328296 0.157206
H19   H     H_    0.679480 0.045793 0.321107 0.144564
H20   H     H_    0.737778 0.142146 0.373686 0.148307
H21   H     H_    0.363850 0.854950 0.325065 0.139954
H22   H     H_    0.308108 0.962495 0.337587 0.157929
H23   H     H_    0.133390 0.723423 0.711520 0.151274
H24   H     H_    0.259436 0.858331 0.383520 0.157481
H25   H     H_    0.254651 0.135096 0.611277 0.132822
H26   H     H_    0.357979 0.153416 0.668527 0.140731
H27   H     H_    0.312962 0.039571 0.665949 0.156330
H28   H     H_    0.644852 0.851257 0.665786 0.126181
H29   H     H_    0.694271 0.962563 0.654655 0.159679
H30   H     H_    0.746913 0.862884 0.601149 0.144304
H31   H     H_    0.363648 0.603692 0.210361 0.236467
H32   H     H_    0.406131 0.699043 0.273707 0.269421
H33   H     H_    0.360737 0.404408 0.786972 0.227187
H34   H     H_    0.961167 0.335787 0.261305 0.155042
H35   H     H_    0.399579 0.306806 0.724971 0.265231
H36   H     H_    0.669403 0.681715 0.839875 0.236984
H37   H     H_    0.597931 0.704026 0.730799 0.264203
H38   H     H_    0.636518 0.397626 0.204033 0.214880
H39   H     H_    0.656900 0.291892 0.165174 0.224360
H40   H     H_    0.863053 0.397966 0.277934 0.094618
H41   H     H_    0.864945 0.276619 0.288256 0.134081
H42   H     H_    0.865248 0.674936 0.383474 0.104399
H43   H     H_    0.963564 0.733327 0.415891 0.154353
H44   H     H_    0.867180 0.773440 0.479391 0.146213
N1    N     N_1   0.500000 0.276710 0.500000 -0.188912
N2    N     N_1   0.500000 0.723290 0.500000 -0.209007
N3    N     N_3   0.386818 0.668624 0.192290 -0.583468
N4    N     N_3   0.380561 0.338300 0.805703 -0.588036
N5    N     N_3   0.613533 0.658932 0.800841 -0.577006
N6    N     N_3   0.608927 0.333456 0.197902 -0.559550
O1    O     O_R   0.380310 0.575320 0.500020 -0.493336
O2    O     O_3   0.912602 0.342365 0.438163 -0.541122
O3    O     O_3   0.913130 0.657908 0.559750 -0.550151
O4    O     O_3   0.086688 0.342184 0.437949 -0.541907
O5    O     O_3   0.542216 0.171804 0.105805 -0.587128
O6    O     O_3   0.563587 0.825723 0.901460 -0.590702
O7    O     O_3   0.437133 0.174480 0.899700 -0.565323
O8    O     O_3   0.456971 0.828967 0.106064 -0.569661
O9    O     O_3   0.651055 0.094619 0.495960 -0.549530
O10   O     O_3   0.349170 0.905098 0.501918 -0.554390
O11   O     O_3   0.348791 0.094208 0.496844 -0.559249
O12   O     O_R   0.619690 0.424680 0.499980 -0.474938
O13   O     O_3   0.651076 0.905826 0.490721 -0.560425
O14   O     O_R   0.619690 0.575320 0.499980 -0.485784
O15   O     O_R   0.380310 0.424680 0.500020 -0.499088
O16   O     O_R   0.499990 0.575350 0.319650 -0.517907
O17   O     O_R   0.500010 0.424650 0.680350 -0.517802
O18   O     O_R   0.500010 0.575350 0.680350 -0.478042
O19   O     O_R   0.499990 0.424650 0.319650 -0.462485
O20   O     O_3   0.087283 0.657468 0.560762 -0.544347

loop_
_geom_bond_atom_site_label_1
_geom_bond_atom_site_label_2
_ccdc_geom_bond_type
C48   O10   S    
C21   C26   A    
C2    O9    S    
C35   H3    S    
Cu2   O17   S    
C33   H44   S    
C2    C46   A    
C43   H28   S    
C42   H25   S    
C40   H20   S    
C36   H6    S    
C24   C26   A    
C8    O12   A    
Cu1   O1    S    
C47   O11   S    
Cu2   N1    S    
C31   H23   S    
C32   H41   S    
C27   C29   A    
C20   C25   A    
C43   H29   S    
C4    C13   A    
Cu2   O15   S    
C7    O15   A    
C38   O7    S    
H35   N4    S    
C41   H24   S    
C32   H40   S    
C47   C48   A    
C22   C25   A    
C18   N3    S    
C23   C27   A    
C5    C13   A    
C37   H8    S    
C8    O14   A    
C41   H21   S    
C38   H11   S    
Cu1   O14   S    
C28   C34   A    
C1    C7    S    
C35   H4    S    
C39   H15   S    
C31   H12   S    
C26   O5    S    
C14   N2    T    
C19   N4    S    
C44   C46   A    
C25   O6    S    
C38   H14   S    
C45   C47   A    
C2    C45   A    
C39   O8    S    
C32   H34   S    
C40   H19   S    
C5    O20   S    
Cu2   O19   S    
C23   C30   A    
C12   C16   T    
C4    C6    A    
C35   O4    S    
C33   H42   S    
C6    C11   A    
C18   C29   A    
C21   N6    S    
H39   N6    S    
C43   H30   S    
C29   C34   A    
H33   N4    S    
C42   O11   S    
C10   O18   A    
C11   C16   S    
Cu1   O18   S    
C8    C12   S    
Cu2   O12   S    
C24   O7    S    
C37   H9    S    
H36   N5    S    
H38   N6    S    
C41   H22   S    
C21   C28   A    
C36   H7    S    
C41   O10   S    
C7    O1    A    
C9    C34   S    
C9    O19   A    
H32   N3    S    
C32   O2    S    
C15   C45   S    
C14   C44   S    
C38   H13   S    
C3    O3    S    
C46   O13   S    
C36   O5    S    
C33   O3    S    
C9    O16   A    
C39   H17   S    
C31   H1    S    
C3    C5    A    
C33   H43   S    
C40   O9    S    
C20   C27   A    
C10   C23   S    
C42   H26   S    
C13   C17   S    
C18   C22   A    
C19   C24   A    
C37   O6    S    
C10   O17   A    
C43   O13   S    
C15   N1    T    
C20   N5    S    
H31   N3    S    
C22   O8    S    
C4    O4    S    
C28   C30   A    
C39   H16   S    
C6    O2    S    
Cu1   N2    S    
C31   O20   S    
C37   H10   S    
C3    C11   A    
H37   N5    S    
Cu1   O16   S    
C1    C17   T    
C42   H27   S    
Cu1   Cu2   S    
C40   H18   S    
C35   H2    S    
C36   H5    S    
C19   C30   A    
C44   C48   A    
