data_mof_unit_28679.cif
_audit_creation_date              2012-12-10T17:04:36-0500
_audit_creation_method            fapswitch 2.2
_symmetry_space_group_name_H-M    P1
_symmetry_Int_Tables_number       1
_space_group_crystal_system       triclinic
_cell_length_a                    14.321427
_cell_length_b                    11.119381
_cell_length_c                    9.949752
_cell_angle_alpha                 111.979372
_cell_angle_beta                  97.5891
_cell_angle_gamma                 91.150578
_cell_volume                      1452.25202569

loop_
_atom_site_label
_atom_site_type_symbol
_atom_type_description
_atom_site_fract_x
_atom_site_fract_y
_atom_site_fract_z
_atom_type_partial_charge
C1    C     C_R   0.494781 0.254420 0.440526 0.841640
C2    C     C_1   0.957370 0.496547 0.501754 -0.005566
C3    C     C_2   0.488011 0.115230 0.409052 -0.437355
C4    C     C_2   0.513608 0.884641 0.592314 -0.434763
C5    C     C_2   0.512973 0.068716 0.515231 0.432244
C6    C     C_2   0.485522 0.932563 0.488590 0.440817
C7    C     C_2   0.511437 0.509295 0.080941 0.540223
C8    C     C_2   0.482846 0.502611 0.923730 0.604500
C9    C     C_3   0.665635 0.695486 0.915876 -0.074574
C10   C     C_3   0.337164 0.298464 0.076959 -0.081221
C11   C     C_3   0.337696 0.854514 0.368678 -0.328556
C12   C     C_R   0.505529 0.745508 0.559675 0.839990
C13   C     C_3   0.656151 0.154674 0.651204 -0.318851
C14   C     C_3   0.321433 0.521661 0.902690 0.023654
C15   C     C_3   0.335343 0.668565 0.932694 -0.363090
C16   C     C_3   0.241422 0.731552 0.942864 -0.935214
C17   C     C_3   0.671477 0.513017 0.123391 0.092252
C18   C     C_3   0.762013 0.598893 0.204101 -0.307028
C19   C     C_3   0.849720 0.527500 0.159377 -0.946133
C20   C     C_R   0.331388 0.499878 0.500893 0.786139
C21   C     C_R   0.668589 0.498734 0.499135 0.774739
C22   C     C_1   0.229171 0.499405 0.502581 -0.207010
C23   C     C_1   0.770897 0.496402 0.498827 -0.231116
C24   C     C_1   0.143715 0.498616 0.502974 -0.037180
C25   C     C_1   0.856512 0.495921 0.500262 -0.022445
C26   C     C_1   0.042949 0.497468 0.502588 -0.012803
Cu1   Cu    Cu3+1 0.515060 0.521810 0.644910 0.991023
Cu2   Cu    Cu3+1 0.484940 0.478190 0.355090 0.992990
H1    H     H_    0.548230 0.947644 0.700738 0.165515
H2    H     H_    0.312006 0.952898 0.390688 0.153368
H3    H     H_    0.323058 0.819706 0.455762 0.155349
H4    H     H_    0.674671 0.198910 0.573748 0.158896
H5    H     H_    0.683617 0.056638 0.623024 0.141353
H6    H     H_    0.692071 0.217280 0.762329 0.179603
H7    H     H_    0.308219 0.512538 0.005329 0.126098
H8    H     H_    0.256235 0.479826 0.822344 0.186362
H9    H     H_    0.383196 0.718159 0.038052 0.238930
H10   H     H_    0.368101 0.685837 0.846350 0.265951
H11   H     H_    0.204158 0.712132 0.024507 0.246767
H12   H     H_    0.456808 0.050682 0.299217 0.166680
H13   H     H_    0.195611 0.692479 0.834436 0.265639
H14   H     H_    0.254389 0.838342 0.976709 0.260060
H15   H     H_    0.672734 0.478974 0.003589 0.105749
H16   H     H_    0.670837 0.424217 0.149597 0.155552
H17   H     H_    0.763433 0.688296 0.180005 0.213732
H18   H     H_    0.763585 0.630271 0.323995 0.223135
H19   H     H_    0.849770 0.436579 0.181175 0.264360
H20   H     H_    0.914081 0.590719 0.223346 0.261193
H21   H     H_    0.851683 0.503005 0.040862 0.247637
H22   H     H_    0.657100 0.735500 0.829364 0.172029
H23   H     H_    0.707314 0.608567 0.885097 0.127662
H24   H     H_    0.708025 0.772732 0.011539 0.109323
H25   H     H_    0.296281 0.383917 0.124521 0.123660
H26   H     H_    0.348749 0.244308 0.150071 0.166666
H27   H     H_    0.291868 0.232158 0.975805 0.122383
H28   H     H_    0.296942 0.786584 0.264292 0.189664
N1    N     N_2   0.462290 0.445430 0.137370 -0.042473
N2    N     N_2   0.537710 0.554570 0.862630 -0.053156
O1    O     O_R   0.508040 0.332330 0.577400 -0.491745
O2    O     O_3   0.422570 0.329512 0.037455 -0.513885
O3    O     O_3   0.434380 0.854156 0.354200 -0.564258
O4    O     O_3   0.557904 0.149111 0.653625 -0.554697
O5    O     O_3   0.395954 0.444780 0.844375 -0.578379
O6    O     O_3   0.591983 0.584354 0.165673 -0.575412
O7    O     O_R   0.491960 0.667670 0.422600 -0.485749
O8    O     O_R   0.482600 0.295500 0.332650 -0.580962
O9    O     O_R   0.517400 0.704500 0.667350 -0.589732
O10   O     O_R   0.388780 0.518420 0.622400 -0.531294
O11   O     O_R   0.611220 0.481580 0.377600 -0.543130
O12   O     O_R   0.363340 0.481590 0.377660 -0.593525
O13   O     O_R   0.636660 0.518410 0.622340 -0.592313
O14   O     O_3   0.578465 0.672382 0.956185 -0.519910

loop_
_geom_bond_atom_site_label_1
_geom_bond_atom_site_label_2
_ccdc_geom_bond_type
C5    O4    S    
C10   O2    S    
C17   H15   S    
C15   H10   S    
C13   H5    S    
Cu1   O10   S    
C4    C12   S    
C12   O7    A    
C19   H21   S    
C13   H4    S    
Cu2   O8    S    
C4    H1    S    
C9    H23   S    
C9    O14   S    
C3    C5    D    
C20   O12   A    
C1    O1    A    
C17   C18   S    
C17   H16   S    
C11   H3    S    
C13   H6    S    
C2    C26   T    
C11   H28   S    
Cu1   O1    S    
Cu2   N1    S    
C10   H27   S    
C24   C26   S    
N2    O14   S    
C9    H24   S    
C11   O3    S    
C21   O13   A    
C14   O5    S    
C18   H18   S    
C6    O3    S    
C20   C22   S    
C3    H12   S    
C1    O8    A    
C2    C25   S    
C19   H19   S    
C23   C25   T    
C21   C23   S    
C14   H8    S    
C5    C6    S    
C10   H26   S    
C12   O9    A    
C22   C24   T    
C7    O6    S    
Cu1   O9    S    
C7    N1    D    
C13   O4    S    
C8    O5    S    
C15   C16   S    
C18   H17   S    
C16   H14   S    
C7    C8    S    
Cu1   O13   S    
C4    C6    D    
C18   C19   S    
C21   O11   A    
Cu1   Cu2   S    
C10   H25   S    
C14   H7    S    
C15   H9    S    
N1    O2    S    
C17   O6    S    
C16   H11   S    
C8    N2    D    
C14   C15   S    
Cu2   O7    S    
C16   H13   S    
C20   O10   A    
Cu2   O12   S    
C9    H22   S    
Cu2   O11   S    
C11   H2    S    
C19   H20   S    
C1    C3    S    
Cu1   N2    S    
