data_mof_unit_22789.cif
_audit_creation_date              2012-12-11T15:12:49-0500
_audit_creation_method            fapswitch 2.2
_symmetry_space_group_name_H-M    P1
_symmetry_Int_Tables_number       1
_space_group_crystal_system       triclinic
_cell_length_a                    22.346554
_cell_length_b                    6.957256
_cell_length_c                    19.364287
_cell_angle_alpha                 89.997667
_cell_angle_beta                  99.209169
_cell_angle_gamma                 89.999409
_cell_volume                      2971.77483342

loop_
_atom_site_label
_atom_site_type_symbol
_atom_type_description
_atom_site_fract_x
_atom_site_fract_y
_atom_site_fract_z
_atom_type_partial_charge
O1    O     O_R   0.448420 0.506120 0.415750 -0.535744
O2    O     O_R   0.551580 0.006120 0.584250 -0.535752
O3    O     O_R   0.436490 0.174470 0.555610 -0.536031
O4    O     O_R   0.563510 0.674470 0.444390 -0.536036
C1    C     C_R   0.421068 0.344880 0.575677 0.715337
C2    C     C_R   0.578931 0.844884 0.424323 0.715345
O5    O     O_R   0.441310 0.176330 0.414520 -0.536257
O6    O     O_R   0.558690 0.676330 0.585480 -0.536256
O7    O     O_R   0.556430 0.007110 0.442150 -0.535733
O8    O     O_R   0.443570 0.507110 0.557850 -0.535723
C3    C     C_R   0.426746 0.345089 0.388442 0.685132
C4    C     C_R   0.573255 0.845079 0.611558 0.685128
O9    O     O_3   0.537770 0.339560 0.509230 -0.365534
O10   O     O_3   0.462230 0.839560 0.490770 -0.365522
V1    V     V_3+5 0.492990 0.064280 0.498290 1.428413
V2    V     V_3+5 0.507010 0.564280 0.501710 1.428416
C5    C     C_R   0.867318 0.972692 0.695321 -0.160347
C6    C     C_R   0.132656 0.472123 0.304694 -0.160349
H1    H     H_    0.954481 0.999711 0.759394 0.112431
H2    H     H_    0.045492 0.499125 0.240622 0.112443
H3    H     H_    0.785111 0.966684 0.580416 0.130040
H4    H     H_    0.214851 0.465845 0.419608 0.130087
H5    H     H_    0.885775 0.997722 0.647638 0.111701
H6    H     H_    0.114186 0.496878 0.352385 0.111706
C7    C     C_R   0.884572 0.941014 0.821385 -0.040885
C8    C     C_R   0.115425 0.440956 0.178614 -0.040869
C9    C     C_R   0.590118 0.820655 0.739876 -0.163779
C10   C     C_R   0.409900 0.321046 0.260116 -0.163791
C11   C     C_R   0.626729 0.819874 0.805046 -0.123743
C12   C     C_R   0.373296 0.320427 0.194941 -0.123738
C13   C     C_R   0.689041 0.849053 0.811012 -0.157699
C14   C     C_R   0.310977 0.349461 0.188978 -0.157698
C15   C     C_R   0.716734 0.880461 0.751198 0.079027
C16   C     C_R   0.283270 0.380547 0.248801 0.079025
C17   C     C_R   0.678610 0.882642 0.684174 0.066111
C18   C     C_R   0.321385 0.382539 0.315830 0.066106
C19   C     C_R   0.780869 0.909493 0.755686 0.074591
C20   C     C_R   0.219129 0.409443 0.244315 0.074602
C21   C     C_R   0.804948 0.941434 0.693005 0.135978
C22   C     C_R   0.195034 0.441039 0.307005 0.135966
C23   C     C_R   0.766780 0.942731 0.628262 -0.197528
C24   C     C_R   0.233194 0.442155 0.371754 -0.197542
C25   C     C_R   0.704746 0.913561 0.623799 -0.190508
C26   C     C_R   0.295235 0.413133 0.376213 -0.190478
C27   C     C_R   0.822206 0.908731 0.819929 -0.216362
C28   C     C_R   0.177801 0.408861 0.180065 -0.216348
C29   C     C_R   0.906616 0.973507 0.758902 -0.163709
C30   C     C_R   0.093365 0.473092 0.241108 -0.163742
C31   C     C_R   0.615022 0.852196 0.679089 -0.082824
C32   C     C_R   0.384980 0.352255 0.320911 -0.082804
H7    H     H_    0.807538 0.885583 0.869639 0.090630
H8    H     H_    0.192480 0.385972 0.130348 0.090609
H9    H     H_    0.541865 0.796145 0.736783 0.100125
H10   H     H_    0.458160 0.296681 0.263204 0.100112
H11   H     H_    0.714226 0.845976 0.863280 0.104047
H12   H     H_    0.285799 0.346533 0.136706 0.104045
H13   H     H_    0.606609 0.795625 0.851580 0.113146
H14   H     H_    0.393427 0.296433 0.148399 0.113143
H15   H     H_    0.677297 0.915743 0.572374 0.113415
H16   H     H_    0.322678 0.415166 0.427642 0.113391
C33   C     C_3   0.799974 0.720876 0.251752 -0.374449
C34   C     C_3   0.200035 0.220866 0.748273 -0.374520
C35   C     C_3   0.795972 0.088645 0.258983 0.372038
C36   C     C_3   0.204010 0.588624 0.740989 0.372086
C37   C     C_3   0.749486 0.069008 0.311599 -0.402828
C38   C     C_3   0.250513 0.568991 0.688389 -0.402682
H17   H     H_    0.847113 0.704151 0.279351 0.169130
H18   H     H_    0.152892 0.204078 0.720699 0.169044
H19   H     H_    0.778642 0.211942 0.224829 0.072351
H20   H     H_    0.221317 0.711968 0.775126 0.072289
H21   H     H_    0.771283 0.066317 0.367158 0.176268
H22   H     H_    0.228734 0.566292 0.632826 0.176289
H23   H     H_    0.719250 0.197083 0.306345 0.102335
H24   H     H_    0.280747 0.697065 0.693651 0.102307
C39   C     C_1   0.624995 0.856411 0.379351 -0.193123
C40   C     C_1   0.375003 0.356395 0.620649 -0.193085
C41   C     C_3   0.792387 0.910981 0.208904 0.158631
C42   C     C_3   0.207611 0.411004 0.791095 0.158723
C43   C     C_3   0.752559 0.707118 0.303202 0.371517
C44   C     C_3   0.247433 0.207119 0.696800 0.371531
C45   C     C_3   0.710025 0.885428 0.294517 0.189922
C46   C     C_3   0.289973 0.385411 0.705481 0.189896
C47   C     C_3   0.679165 0.896521 0.216691 -0.447650
C48   C     C_3   0.320833 0.396514 0.783306 -0.447636
C49   C     C_3   0.727131 0.906995 0.166609 -0.449792
C50   C     C_3   0.272868 0.407078 0.833387 -0.449788
C51   C     C_1   0.663222 0.869572 0.341363 -0.025525
C52   C     C_1   0.336776 0.369546 0.658636 -0.025546
C53   C     C_1   0.838058 0.925760 0.160613 -0.003205
C54   C     C_1   0.161942 0.425788 0.839386 -0.003236
C55   C     C_1   0.875604 0.938317 0.121720 -0.184442
C56   C     C_1   0.124396 0.438334 0.878280 -0.184444
H25   H     H_    0.721671 0.780867 0.130785 0.168827
H26   H     H_    0.278334 0.281007 0.869242 0.168830
H27   H     H_    0.718857 0.037416 0.133155 0.153532
H28   H     H_    0.281139 0.537551 0.866809 0.153520
H29   H     H_    0.649790 0.768394 0.203258 0.154158
H30   H     H_    0.350195 0.268358 0.796749 0.154157
H31   H     H_    0.792920 0.596813 0.215043 0.115123
H32   H     H_    0.207117 0.096836 0.784999 0.115071
H33   H     H_    0.723333 0.577971 0.288817 0.040878
H34   H     H_    0.276654 0.077943 0.711159 0.040909
H35   H     H_    0.649363 0.025409 0.208704 0.167881
H36   H     H_    0.350648 0.525370 0.791282 0.167882
O11   O     O_R   0.056480 0.288780 0.942210 -0.536236
O12   O     O_R   0.943520 0.788780 0.057790 -0.536237
O13   O     O_R   0.058700 0.616820 0.085490 -0.538557
O14   O     O_R   0.941300 0.116820 0.914510 -0.538560
C57   C     C_R   0.073119 0.448391 0.111758 0.694125
C58   C     C_R   0.926880 0.948401 0.888242 0.694123
O15   O     O_R   0.063520 0.618570 0.944410 -0.535467
O16   O     O_R   0.936480 0.118570 0.055590 -0.535462
O17   O     O_R   0.948420 0.787670 0.915740 -0.535029
O18   O     O_R   0.051580 0.287670 0.084260 -0.535029
C59   C     C_R   0.078904 0.449612 0.924036 0.721059
C60   C     C_R   0.921096 0.949608 0.075964 0.721058
O19   O     O_3   0.962260 0.453430 0.990800 -0.367391
O20   O     O_3   0.037740 0.953430 0.009200 -0.367390
V3    V     V_3+5 0.007000 0.728750 0.001710 1.431120
V4    V     V_3+5 0.993000 0.228750 0.998290 1.431126
O21   O     O_3   0.856665 0.144784 0.286306 -0.557888
C61   C     C_3   0.881682 0.063058 0.351296 -0.256525
H37   H     H_    0.865106 0.917969 0.360260 0.186597
H38   H     H_    0.873536 0.158207 0.394747 0.127350
H39   H     H_    0.931472 0.052285 0.353563 0.158730
O22   O     O_3   0.143309 0.644657 0.713649 -0.557924
C62   C     C_3   0.118340 0.563053 0.648624 -0.256332
H40   H     H_    0.134787 0.417739 0.639760 0.186639
H41   H     H_    0.126672 0.657975 0.605189 0.127194
H42   H     H_    0.068523 0.552851 0.646217 0.158681
O23   O     O_3   0.782300 0.698932 0.373662 -0.557797
C63   C     C_3   0.794173 0.507490 0.394816 -0.316753
H43   H     H_    0.818174 0.430233 0.357330 0.179287
H44   H     H_    0.751391 0.432733 0.400951 0.148804
H45   H     H_    0.823994 0.507425 0.446432 0.169537
O24   O     O_3   0.217681 0.198991 0.626344 -0.557794
C64   C     C_3   0.205664 0.007589 0.605237 -0.316833
H46   H     H_    0.181593 0.930647 0.642737 0.179350
H47   H     H_    0.248389 0.932452 0.599127 0.148803
H48   H     H_    0.175848 0.007632 0.553616 0.169523

loop_
_geom_bond_atom_site_label_1
_geom_bond_atom_site_label_2
_ccdc_geom_bond_type
C12   C14   A    
C35   C37   S    
O22   C62   S    
O12   V3    S    
C9    C11   A    
C23   C25   A    
O14   V4    S    
C49   H25   S    
O1    C3    A    
O2    C4    A    
C2    O7    A    
C4    C31   S    
O3    V1    S    
C2    C39   S    
C21   C23   A    
C42   C54   S    
O5    C3    A    
C64   H47   S    
C41   C53   S    
C5    H5    S    
C47   H35   S    
C6    H6    S    
C34   C44   S    
C48   C50   S    
O19   V3    S    
H1    C29   S    
C27   H7    S    
C38   H24   S    
C28   H8    S    
C33   C43   S    
C37   H23   S    
C55   C60   S    
O15   V3    S    
C5    C21   A    
C6    C22   A    
O20   V3    S    
C50   H26   S    
C45   C47   S    
O17   V3    S    
C10   C32   A    
C38   H22   S    
C35   H19   S    
C33   C41   S    
C63   H43   S    
C17   C31   A    
C13   C15   A    
O11   V4    S    
C36   H20   S    
C53   C55   T    
C17   C25   A    
C40   C52   T    
C8    C30   A    
C42   C50   S    
C22   C24   A    
C41   C49   S    
O6    V2    S    
O13   C57   A    
C33   H31   S    
C24   C26   A    
O13   V3    S    
C35   O21   S    
O11   C59   A    
C54   C56   T    
C19   C21   A    
C64   H48   S    
C44   C46   S    
H3    C23   S    
O19   V4    S    
C43   C45   S    
C10   H10   S    
C37   H21   S    
C15   C19   A    
C44   H34   S    
C36   C38   S    
O4    V2    S    
C62   H41   S    
C38   C46   S    
C33   H17   S    
C37   C45   S    
C8    C57   S    
C1    C40   S    
O6    C4    A    
C43   O23   S    
O1    V2    S    
C45   C51   S    
O2    V1    S    
C58   O17   A    
O21   C61   S    
H2    C30   S    
C50   H28   S    
C57   O18   A    
C34   H32   S    
C7    C58   S    
O4    C2    A    
C47   C49   S    
C11   H13   S    
C36   O22   S    
O9    V1    S    
C48   H36   S    
O10   V2    S    
C18   C26   A    
C19   C27   A    
O23   C63   S    
C7    C27   A    
O16   C60   A    
C18   C32   A    
O16   V4    S    
C35   C41   S    
C39   C51   T    
C7    C29   A    
C16   C20   A    
C36   C42   S    
C34   C42   S    
C5    C29   A    
O24   C64   S    
O3    C1    A    
C6    C30   A    
C9    H9    S    
C25   H15   S    
C64   H46   S    
C46   C48   S    
C44   O24   S    
C34   H18   S    
C48   H30   S    
C61   H39   S    
C10   C12   A    
O7    V1    S    
C62   H42   S    
C1    O8    A    
C11   C13   A    
C3    C32   S    
O8    V2    S    
C20   C22   A    
C49   H27   S    
H4    C24   S    
C26   H16   S    
C63   H45   S    
C46   C52   S    
C12   H14   S    
O5    V1    S    
C15   C17   A    
O14   C58   A    
C16   C18   A    
C56   C59   S    
O20   V4    S    
C20   C28   A    
C8    C28   A    
C9    C31   A    
C63   H44   S    
C47   H29   S    
O9    V2    S    
O12   C60   A    
O10   V1    S    
C43   H33   S    
O15   C59   A    
C13   H11   S    
C61   H37   S    
C61   H38   S    
C14   H12   S    
O18   V4    S    
C62   H40   S    
C14   C16   A    
