data_mof_unit_17729.cif
_audit_creation_date              2013-03-05T16:11:44-0500
_audit_creation_method            fapswitch 2.2
_symmetry_space_group_name_H-M    P1
_symmetry_Int_Tables_number       1
_space_group_crystal_system       triclinic
_cell_length_a                    10.68406
_cell_length_b                    9.862686
_cell_length_c                    10.535852
_cell_angle_alpha                 90.145507
_cell_angle_beta                  90.206563
_cell_angle_gamma                 90.986297
_cell_volume                      1110.02444786

loop_
_atom_site_label
_atom_site_type_symbol
_atom_site_description
_atom_site_fract_x
_atom_site_fract_y
_atom_site_fract_z
_atom_type_partial_charge
O1    O     O_R   0.316770 0.614620 0.499990 -0.613170
O2    O     O_R   0.683230 0.385380 0.500010 -0.613169
O3    O     O_R   0.683230 0.614620 0.500010 -0.564645
O4    O     O_R   0.316770 0.385380 0.499990 -0.564645
C1    C     C_R   0.872145 0.503924 0.496625 -0.346576
C2    C     C_R   0.127855 0.496076 0.503373 -0.346575
C3    C     C_R   0.260312 0.498846 0.500722 0.997605
C4    C     C_R   0.739688 0.501154 0.499277 0.997608
O5    O     O_R   0.499970 0.614650 0.313950 -0.623536
O6    O     O_R   0.500030 0.385350 0.686050 -0.623537
O7    O     O_R   0.500030 0.614650 0.686050 -0.617356
O8    O     O_R   0.499970 0.385350 0.313950 -0.617357
C5    C     C_R   0.502294 0.499944 0.257560 0.990519
C6    C     C_R   0.497706 0.500056 0.742440 0.990522
Zn1   Zn    Zn3+2 0.500000 0.653120 0.500000 1.059060
Zn2   Zn    Zn3+2 0.500000 0.346880 0.500000 1.059060
H1    H     H_    0.588441 0.128090 0.679919 0.151205
H2    H     H_    0.411559 0.871910 0.320081 0.151205
H3    H     H_    0.412229 0.123798 0.319766 0.175805
H4    H     H_    0.587771 0.876202 0.680234 0.175804
N1    N     N_R   0.500000 0.857200 0.500000 -0.100535
N2    N     N_R   0.500000 0.142800 0.500000 -0.100535
C7    C     C_3   0.387657 0.539020 0.045147 -0.222813
C8    C     C_3   0.612343 0.460981 0.954853 -0.222808
C9    C     C_3   0.474625 0.626676 0.958922 -0.221833
C10   C     C_3   0.525374 0.373325 0.041078 -0.221836
C11   C     C_3   0.411791 0.414604 0.961671 0.360265
C12   C     C_3   0.588208 0.585396 0.038329 0.360264
H5    H     H_    0.296137 0.569470 0.084651 0.223786
H6    H     H_    0.703863 0.430529 0.915349 0.223790
H7    H     H_    0.455477 0.730034 0.922971 0.209683
H8    H     H_    0.544523 0.269966 0.077029 0.209684
C13   C     C_3   0.496721 0.500088 0.876918 -0.155167
C14   C     C_3   0.503279 0.499912 0.123082 -0.155164
C15   C     C_R   0.549002 0.073026 0.599938 -0.008500
C16   C     C_R   0.450998 0.926974 0.400062 -0.008500
C17   C     C_R   0.451159 0.070652 0.399990 0.013517
C18   C     C_R   0.548841 0.929348 0.600010 0.013517
C19   C     C_R   0.063163 0.418282 0.411883 0.196212
C20   C     C_R   0.936837 0.581719 0.588114 0.196217
C21   C     C_R   0.933879 0.422282 0.408037 0.239303
C22   C     C_R   0.066121 0.577719 0.591961 0.239299
N3    N     N_R   0.313863 0.318704 0.921480 0.240113
O9    O     O_R   0.260251 0.240481 0.005018 -0.279946
O10   O     O_R   0.278992 0.310449 0.803340 -0.323558
N4    N     N_R   0.686135 0.681296 0.078522 0.240108
O11   O     O_R   0.739749 0.759527 0.994988 -0.279941
O12   O     O_R   0.721005 0.689547 0.196664 -0.323560
N5    N     N_R   0.128869 0.345599 0.315605 0.233842
O13   O     O_R   0.169330 0.224520 0.338959 -0.313833
O14   O     O_R   0.127809 0.389817 0.199431 -0.316311
N6    N     N_R   0.871131 0.654403 0.684390 0.233845
O15   O     O_R   0.830674 0.775484 0.661038 -0.313830
O16   O     O_R   0.872180 0.610178 0.800564 -0.316325
N7    N     N_R   0.865976 0.345081 0.313477 0.252476
O17   O     O_R   0.786029 0.404043 0.239468 -0.365213
O18   O     O_R   0.888533 0.217050 0.296787 -0.270401
N8    N     N_R   0.134024 0.654919 0.686521 0.252472
O19   O     O_R   0.213973 0.595958 0.760529 -0.365216
O20   O     O_R   0.111463 0.782952 0.703215 -0.270397

loop_
_geom_bond_atom_site_label_1
_geom_bond_atom_site_label_2
_geom_bond_distance
_ccdc_geom_bond_type
O4    Zn2   2.000533 S    
C1    C4    1.415355 S    
N7    O17   1.300140 A    
C10   H8    1.110433 S    
C2    C3    1.415354 S    
O1    Zn1   1.987700 S    
C7    C11   1.533864 S    
H4    C18   1.081370 S    
O5    C5    1.277152 A    
C8    C13   1.536121 S    
N3    O9    1.299926 A    
C7    C14   1.536118 S    
C22   N8    1.438937 S    
C6    C13   1.416914 S    
C20   C22   1.382972 A    
O5    Zn1   1.995630 S    
C12   C14   1.521460 S    
C5    C14   1.416916 S    
C19   C21   1.382974 A    
N1    C16   1.366908 A    
O6    Zn2   1.995628 S    
O8    C5    1.278086 A    
C9    C12   1.532898 S    
N2    C15   1.366908 A    
N3    O10   1.299934 A    
C12   N4    1.459200 S    
C10   C11   1.532898 S    
O7    Zn1   1.997523 S    
O4    C3    1.280424 A    
C7    H5    1.109929 S    
C15   C18   1.417025 A    
C16   C17   1.417025 A    
C19   N5    1.433316 S    
C8    C10   1.555148 S    
O3    C4    1.280425 A    
N4    O12   1.299948 A    
N7    O18   1.301212 A    
C2    C22   1.404796 A    
O7    C6    1.278087 A    
C8    H6    1.109925 S    
N4    O11   1.299964 A    
N8    O20   1.301236 A    
C11   N3    1.459208 S    
Zn1   N1    2.012777 S    
C7    C9    1.555148 S    
O2    Zn2   1.987699 S    
N6    O15   1.300747 A    
C8    C12   1.533864 S    
N5    O13   1.300748 A    
O6    C6    1.277153 A    
C1    C20   1.403113 A    
C9    C13   1.538532 S    
C11   C13   1.521469 S    
C1    C21   1.404792 A    
C2    C19   1.403113 A    
C21   N7    1.438941 S    
O3    Zn1   2.000532 S    
Zn2   N2    2.012777 S    
H3    C17   1.081371 S    
O1    C3    1.282213 A    
N8    O19   1.300140 A    
C20   N6    1.433306 S    
N2    C17   1.366873 A    
H2    C16   1.081584 S    
C9    H7    1.110429 S    
C10   C14   1.538528 S    
O2    C4    1.282213 A    
N1    C18   1.366871 A    
O8    Zn2   1.997524 S    
N6    O16   1.300501 A    
H1    C15   1.081584 S    
N5    O14   1.300487 A    
