data_mof_unit_25158.cif
_audit_creation_date              2012-12-10T19:14:25-0500
_audit_creation_method            fapswitch 2.2
_symmetry_space_group_name_H-M    P1
_symmetry_Int_Tables_number       1
_space_group_crystal_system       triclinic
_cell_length_a                    15.983876
_cell_length_b                    14.789303
_cell_length_c                    10.782631
_cell_angle_alpha                 89.913532
_cell_angle_beta                  90.055354
_cell_angle_gamma                 90.017229
_cell_volume                      2548.90609013

loop_
_atom_site_label
_atom_site_type_symbol
_atom_type_description
_atom_site_fract_x
_atom_site_fract_y
_atom_site_fract_z
_atom_type_partial_charge
C1    C     C_R   0.340903 0.500028 0.500417 0.797221
C2    C     C_R   0.659091 0.499983 0.499941 0.824912
C3    C     C_R   0.956682 0.421019 0.487343 -0.243527
C4    C     C_R   0.043773 0.421214 0.488920 -0.239788
C5    C     C_1   0.823190 0.500524 0.499788 0.004125
C6    C     C_1   0.176832 0.501147 0.504347 0.006979
C7    C     C_1   0.251850 0.500382 0.502420 -0.185163
C8    C     C_1   0.748159 0.500024 0.499829 -0.184435
C9    C     C_R   0.575681 0.951802 0.481830 0.396214
C10   C     C_R   0.426175 0.951004 0.519787 0.392041
C11   C     C_R   0.501086 0.902591 0.501197 -0.327781
C12   C     C_R   0.425308 0.046936 0.522411 0.315623
C13   C     C_R   0.575640 0.047643 0.479196 0.333688
C14   C     C_R   0.500311 0.097042 0.500800 -0.295517
C15   C     C_1   0.500650 0.802498 0.500401 0.264363
C16   C     C_1   0.500045 0.197453 0.500356 0.167141
C17   C     C_R   0.497483 0.500074 0.262034 0.788084
C18   C     C_R   0.497871 0.499971 0.737960 0.788139
C19   C     C_R   0.357201 0.581717 0.128607 -0.173136
C20   C     C_R   0.357872 0.582158 0.869662 -0.169866
C21   C     C_R   0.290840 0.620225 0.063117 -0.136719
C22   C     C_R   0.291373 0.620767 0.934121 -0.136370
C23   C     C_R   0.425737 0.542518 0.934042 0.097165
C24   C     C_R   0.425527 0.542498 0.065129 0.095140
C25   C     C_R   0.492340 0.500057 0.128598 -0.094444
C26   C     C_R   0.492551 0.499849 0.871322 -0.095015
C27   C     C_R   0.555517 0.455173 0.064241 -0.193431
C28   C     C_R   0.555591 0.455015 0.936332 -0.193940
C29   C     C_R   0.955991 0.584553 0.513377 0.383245
C30   C     C_R   0.043582 0.583938 0.523217 0.376696
C31   C     C_R   0.912744 0.502169 0.499886 -0.025503
C32   C     C_R   0.087286 0.502238 0.506181 -0.026397
Cu1   Cu    Cu3+1 0.500000 0.589220 0.500000 0.968499
Cu2   Cu    Cu3+1 0.500000 0.410780 0.500000 0.982254
H1    H     H_    0.605890 0.421572 0.113464 0.149369
H2    H     H_    0.606013 0.421316 0.887633 0.149909
H3    H     H_    0.353411 0.581290 0.228728 0.142523
H4    H     H_    0.354501 0.582076 0.769520 0.138760
H5    H     H_    0.238207 0.648673 0.112496 0.138718
H6    H     H_    0.239555 0.650151 0.883691 0.131707
H7    H     H_    0.923559 0.357647 0.475707 0.177082
H8    H     H_    0.077250 0.358123 0.476943 0.178083
N1    N     N_1   0.500000 0.276710 0.500000 -0.156671
N2    N     N_1   0.500000 0.723290 0.500000 -0.167528
O1    O     O_R   0.380310 0.575320 0.500020 -0.588642
O2    O     O_R   0.619690 0.575320 0.499980 -0.571778
O3    O     O_R   0.380310 0.424640 0.499960 -0.563477
O4    O     O_R   0.619690 0.424640 0.500040 -0.570916
O5    O     O_R   0.500000 0.575360 0.319640 -0.575808
O6    O     O_R   0.500000 0.575360 0.680360 -0.577925
O7    O     O_R   0.500000 0.424670 0.319580 -0.568634
O8    O     O_R   0.500000 0.424670 0.680420 -0.568335
O9    O     O_3   0.086234 0.664430 0.540198 -0.618989
C33   C     C_3   0.109569 0.673879 0.666298 0.056491
H9    H     H_    0.173297 0.703811 0.668559 0.159838
H10   H     H_    0.113668 0.608565 0.718239 0.120302
C34   C     C_3   0.049138 0.738118 0.732229 -0.310823
H11   H     H_    0.044564 0.802425 0.679124 0.230338
H12   H     H_    0.986020 0.706901 0.736507 0.245446
C35   C     C_3   0.078108 0.758747 0.864086 -0.944067
H13   H     H_    0.082036 0.695451 0.919398 0.253891
H14   H     H_    0.032614 0.804850 0.909284 0.266299
H15   H     H_    0.140344 0.792180 0.862690 0.264166
O10   O     O_3   0.912893 0.665160 0.525965 -0.620175
C36   C     C_3   0.887034 0.696966 0.408037 0.065168
H16   H     H_    0.824317 0.728130 0.419379 0.174308
H17   H     H_    0.879490 0.642668 0.336956 0.123341
C37   C     C_3   0.948183 0.768775 0.360682 -0.329964
H18   H     H_    0.956890 0.821734 0.432607 0.235812
H19   H     H_    0.009659 0.736797 0.342041 0.238124
C38   C     C_3   0.916694 0.812700 0.241342 -0.924030
H20   H     H_    0.909001 0.760978 0.167593 0.259005
H21   H     H_    0.962721 0.863864 0.209235 0.261507
H22   H     H_    0.855813 0.846857 0.257640 0.269667
O11   O     O_3   0.651488 0.089445 0.455791 -0.697851
H23   H     H_    0.644834 0.155864 0.454847 0.329025
O12   O     O_3   0.349186 0.088011 0.545838 -0.697457
H24   H     H_    0.355520 0.154470 0.547248 0.332674
O13   O     O_3   0.649701 0.906886 0.456773 -0.568351
C39   C     C_3   0.685396 0.873082 0.567871 0.081683
H25   H     H_    0.682740 0.798001 0.564779 0.158649
H26   H     H_    0.652960 0.895329 0.654509 0.118644
C40   C     C_3   0.776835 0.903050 0.575122 -0.305013
H27   H     H_    0.809336 0.885208 0.487576 0.228688
H28   H     H_    0.779530 0.977704 0.586106 0.245366
C41   C     C_3   0.822175 0.858428 0.683790 -0.915861
H29   H     H_    0.792340 0.877923 0.772810 0.258155
H30   H     H_    0.888494 0.880779 0.685207 0.258327
H31   H     H_    0.820641 0.783680 0.674376 0.283673
O14   O     O_3   0.352821 0.903856 0.541128 -0.566525
C42   C     C_3   0.312523 0.888547 0.426330 0.077073
H32   H     H_    0.357410 0.867023 0.352688 0.121237
H33   H     H_    0.280291 0.951437 0.395636 0.181189
C43   C     C_3   0.247877 0.813318 0.442378 -0.295462
H34   H     H_    0.279872 0.750816 0.474740 0.232912
H35   H     H_    0.201176 0.833527 0.513442 0.235864
C44   C     C_3   0.202839 0.793443 0.320609 -0.912721
H36   H     H_    0.163368 0.851948 0.293109 0.256953
H37   H     H_    0.162350 0.733067 0.331886 0.278100
H38   H     H_    0.248840 0.779481 0.246008 0.248443

loop_
_geom_bond_atom_site_label_1
_geom_bond_atom_site_label_2
_ccdc_geom_bond_type
C6    C32   S    
Cu1   O1    S    
C18   C26   S    
C17   O7    A    
C44   H36   S    
C34   H11   S    
C18   O8    A    
O12   H24   S    
C2    O2    A    
Cu2   O7    S    
C35   H15   S    
C19   C21   A    
C15   N2    T    
C41   H30   S    
C34   H12   S    
Cu1   O5    S    
C35   H14   S    
C9    O13   S    
C23   C26   A    
C9    C13   A    
C19   H3    S    
C11   C15   S    
C13   O11   S    
C37   H18   S    
C36   H17   S    
C23   C24   A    
C29   O10   S    
C21   C22   A    
Cu1   O2    S    
C39   C40   S    
C44   H37   S    
C30   O9    S    
C33   H10   S    
C24   C25   A    
C39   H26   S    
C17   O5    A    
C42   H32   S    
C38   H21   S    
C41   H29   S    
C1    O3    A    
C34   C35   S    
C43   C44   S    
C27   H1    S    
Cu1   O6    S    
O9    C33   S    
C35   H13   S    
C43   H35   S    
O11   H23   S    
C29   C30   A    
C42   H33   S    
C20   H4    S    
C40   H27   S    
C21   H5    S    
C20   C23   A    
C36   C37   S    
C22   H6    S    
C12   O12   S    
Cu1   Cu2   S    
C3    C31   A    
C9    C11   A    
C16   N1    T    
C10   O14   S    
C4    C32   A    
C10   C12   A    
C40   H28   S    
C12   C14   A    
C14   C16   S    
C5    C8    T    
Cu2   O4    S    
C3    C4    A    
C44   H38   S    
C18   O6    A    
C33   H9    S    
C3    H7    S    
C1    C7    S    
Cu1   N2    S    
Cu2   O8    S    
C2    C8    S    
Cu2   N1    S    
C20   C22   A    
C39   H25   S    
C41   H31   S    
C38   H22   S    
C6    C7    T    
C25   C27   A    
C26   C28   A    
C2    O4    A    
O10   C36   S    
C19   C24   A    
C17   C25   S    
C38   H20   S    
C29   C31   A    
C42   C43   S    
C30   C32   A    
C1    O1    A    
O14   C42   S    
C4    H8    S    
C37   C38   S    
C43   H34   S    
C10   C11   A    
O13   C39   S    
C40   C41   S    
C28   H2    S    
C37   H19   S    
C36   H16   S    
C27   C28   A    
Cu2   O3    S    
C13   C14   A    
C5    C31   S    
C33   C34   S    
