data_mof_unit_9248.cif
_audit_creation_date              2013-03-05T15:41:53-0500
_audit_creation_method            fapswitch 2.2
_symmetry_space_group_name_H-M    P1
_symmetry_Int_Tables_number       1
_space_group_crystal_system       triclinic
_cell_length_a                    23.504726
_cell_length_b                    8.682811
_cell_length_c                    7.446706
_cell_angle_alpha                 101.993727
_cell_angle_beta                  94.12729
_cell_angle_gamma                 92.563309
_cell_volume                      1479.96843625

loop_
_atom_site_label
_atom_site_type_symbol
_atom_site_description
_atom_site_fract_x
_atom_site_fract_y
_atom_site_fract_z
_atom_type_partial_charge
O1    O     O_R   0.504120 0.286130 0.619770 -0.584340
O2    O     O_R   0.495880 0.713870 0.380230 -0.584362
O3    O     O_R   0.493410 0.256770 0.308360 -0.553344
O4    O     O_R   0.506590 0.743230 0.691640 -0.553327
C1    C     C_R   0.496881 0.200506 0.455866 0.851635
C2    C     C_R   0.503119 0.799494 0.544133 0.851695
O5    O     O_R   0.423230 0.514630 0.655730 -0.560260
O6    O     O_R   0.576770 0.485370 0.344270 -0.560190
O7    O     O_R   0.412530 0.485280 0.344320 -0.563250
O8    O     O_R   0.587470 0.514720 0.655680 -0.563190
C3    C     C_R   0.390980 0.500395 0.502632 0.858646
C4    C     C_R   0.609020 0.499605 0.497369 0.858592
Cu1   Cu    Cu3+1 0.506340 0.517380 0.684380 1.065340
Cu2   Cu    Cu3+1 0.493660 0.482620 0.315620 1.065316
C5    C     C_R   0.886180 0.656610 0.542084 0.636777
C6    C     C_R   0.113827 0.343196 0.458098 0.636672
N1    N     N_R   0.852724 0.519753 0.507932 -0.451366
N2    N     N_R   0.147279 0.480058 0.492197 -0.451438
C7    C     C_R   0.875785 0.376533 0.481643 0.659557
C8    C     C_R   0.124211 0.623270 0.518465 0.659452
C9    C     C_R   0.934156 0.364311 0.454776 -0.094375
C10   C     C_R   0.065845 0.635481 0.545389 -0.094442
C11   C     C_R   0.970205 0.504309 0.503241 -0.065623
C12   C     C_R   0.029798 0.495482 0.496947 -0.065652
C13   C     C_R   0.946440 0.653019 0.557864 -0.096905
C14   C     C_R   0.053565 0.346775 0.442331 -0.096921
C15   C     C_R   0.956942 0.218795 0.378085 0.180307
C16   C     C_R   0.043063 0.780994 0.622100 0.180326
C17   C     C_R   0.016686 0.209253 0.374137 0.140869
C18   C     C_R   0.983320 0.790539 0.626066 0.140853
O9    O     O_2   0.860590 0.793554 0.555042 -0.450286
O10   O     O_2   0.139421 0.206261 0.445172 -0.450254
O11   O     O_2   0.841983 0.248304 0.486566 -0.438776
O12   O     O_2   0.158000 0.751500 0.513448 -0.438661
C19   C     C_R   0.241624 0.543992 0.668185 0.284782
C20   C     C_R   0.758385 0.455971 0.331831 0.284652
C21   C     C_R   0.301661 0.557879 0.669075 0.213327
C22   C     C_R   0.698344 0.442154 0.330919 0.213388
C23   C     C_R   0.328203 0.496233 0.506742 -0.198652
C24   C     C_R   0.671799 0.503742 0.493267 -0.198693
C25   C     C_R   0.294228 0.424606 0.345600 -0.168470
C26   C     C_R   0.705772 0.575260 0.654449 -0.168388
H1    H     H_    0.313466 0.375346 0.220082 0.215410
H2    H     H_    0.686533 0.624496 0.779974 0.215525
C27   C     C_R   0.235050 0.415349 0.343456 -0.074110
C28   C     C_R   0.764950 0.584438 0.656632 -0.074211
H3    H     H_    0.209606 0.363946 0.216232 0.207726
H4    H     H_    0.790392 0.635755 0.783889 0.207690
C29   C     C_R   0.208446 0.475145 0.502929 0.174719
C30   C     C_R   0.791558 0.524691 0.497153 0.174829
C31   C     C_2   0.485507 0.036183 0.441669 -0.079040
C32   C     C_2   0.514493 0.963817 0.558326 -0.079052
N3    N     N_2   0.484110 0.456420 0.038520 -0.177580
N4    N     N_2   0.515890 0.543580 0.961480 -0.177527
H5    H     H_    0.455116 0.379514 0.949635 0.239696
H6    H     H_    0.544884 0.620486 0.050365 0.239755
I1    I     I_    0.901440 0.016824 0.239572 -0.037863
I2    I     I_    0.098573 0.982944 0.760624 -0.037719
I3    I     I_    0.048241 0.987497 0.243203 -0.135769
I4    I     I_    0.951772 0.012302 0.757009 -0.135828
N5    N     N_R   0.214073 0.604371 0.832475 0.150070
O13   O     O_R   0.227992 0.745971 0.928405 -0.233905
O14   O     O_R   0.172848 0.521054 0.881528 -0.349348
N6    N     N_R   0.785944 0.395735 0.167492 0.149976
O15   O     O_R   0.827330 0.478832 0.118967 -0.349455
O16   O     O_R   0.771841 0.254495 0.070888 -0.233916
N7    N     N_R   0.335116 0.638929 0.832578 0.167098
O17   O     O_R   0.365888 0.766751 0.830324 -0.303534
O18   O     O_R   0.332152 0.591098 0.986264 -0.318229
N8    N     N_R   0.664880 0.361255 0.167372 0.167221
O19   O     O_R   0.634137 0.233338 0.169426 -0.303450
O20   O     O_R   0.667742 0.409466 0.013891 -0.318520
I5    I     I_    0.410297 0.937839 0.270378 -0.110824
I6    I     I_    0.589709 0.062156 0.729586 -0.110853

loop_
_geom_bond_atom_site_label_1
_geom_bond_atom_site_label_2
_geom_bond_distance
_ccdc_geom_bond_type
C22   N8    1.432640 S    
C15   C17   1.412455 A    
C23   C25   1.404248 A    
N3    N4    1.285071 D    
O5    C3    1.303193 A    
O1    C1    1.285718 A    
C7    C9    1.406182 A    
C12   C14   1.422546 A    
C32   I6    2.137507 S    
C5    C13   1.415102 A    
C26   C28   1.388401 A    
C27   H3    1.083177 S    
O4    Cu1   1.950228 S    
N5    O14   1.301452 A    
C17   I3    2.158654 S    
C18   I4    2.158654 S    
C19   C29   1.412211 A    
C11   C12   1.409834 A    
N8    O19   1.301105 A    
C8    O12   1.346949 S    
C24   C26   1.404223 A    
C9    C15   1.419177 A    
C10   C16   1.419149 A    
Cu1   Cu2   2.692653 S    
C25   H1    1.083078 S    
O2    C2    1.285713 A    
C26   H2    1.083075 S    
C28   H4    1.083179 S    
N3    H5    1.029140 S    
C6    C14   1.415130 A    
N4    H6    1.029139 S    
C31   C32   1.339259 D    
O4    C2    1.290570 A    
C15   I1    2.165886 S    
N7    O17   1.301113 A    
N7    O18   1.301362 A    
N6    O16   1.301538 A    
C4    C24   1.477086 S    
O7    Cu2   1.934732 S    
C27   C29   1.396624 A    
O6    C4    1.303206 A    
C19   N5    1.438334 S    
C3    C23   1.477055 S    
O7    C3    1.300460 A    
O3    Cu2   1.950228 S    
O8    C4    1.300462 A    
C8    C10   1.406147 A    
C9    C11   1.416806 A    
C7    O11   1.346938 S    
C10   C12   1.416788 A    
O1    Cu1   1.962494 S    
C20   C30   1.412277 A    
Cu1   N4    2.023304 S    
C13   C18   1.423779 A    
C5    N1    1.362768 A    
O6    Cu2   1.948300 S    
C19   C21   1.410321 A    
C31   I5    2.137515 S    
O3    C1    1.290564 A    
O8    Cu1   1.934732 S    
N1    C30   1.437201 S    
C5    O9    1.345212 S    
C16   I2    2.165880 S    
C6    O10   1.345211 S    
C28   C30   1.396619 A    
N6    O15   1.301394 A    
C16   C18   1.412436 A    
C21   C23   1.416524 A    
C22   C24   1.416532 A    
C21   N7    1.432692 S    
C20   C22   1.410405 A    
N1    C7    1.361241 A    
N2    C8    1.361244 A    
C11   C13   1.422557 A    
N5    O13   1.301668 A    
O2    Cu2   1.962494 S    
O5    Cu1   1.948300 S    
Cu2   N3    2.023304 S    
C14   C17   1.423772 A    
C6    N2    1.362776 A    
C25   C27   1.388441 A    
C1    C31   1.420386 S    
N8    O20   1.301312 A    
C2    C32   1.420387 S    
C20   N6    1.438465 S    
N2    C29   1.437211 S    
