data_mof_unit_20593.cif
_audit_creation_date              2012-12-10T18:47:04-0500
_audit_creation_method            fapswitch 2.2
_symmetry_space_group_name_H-M    P1
_symmetry_Int_Tables_number       1
_space_group_crystal_system       triclinic
_cell_length_a                    10.691957
_cell_length_b                    9.847936
_cell_length_c                    14.918888
_cell_angle_alpha                 90.358071
_cell_angle_beta                  90.432707
_cell_angle_gamma                 89.97797
_cell_volume                      1570.78947884

loop_
_atom_site_label
_atom_site_type_symbol
_atom_type_description
_atom_site_fract_x
_atom_site_fract_y
_atom_site_fract_z
_atom_type_partial_charge
C1    C     C_R   0.259936 0.500013 0.499820 0.860358
C2    C     C_R   0.740064 0.499987 0.500174 0.860269
C3    C     C_R   0.279543 0.551297 0.051296 -0.214148
C4    C     C_R   0.720369 0.448284 0.948703 -0.214181
C5    C     C_R   0.063784 0.382280 0.473906 -0.201330
C6    C     C_R   0.936216 0.617728 0.526066 -0.201312
C7    C     C_R   0.935684 0.382259 0.474017 -0.206667
C8    C     C_R   0.064315 0.617750 0.525954 -0.206649
C9    C     C_R   0.872489 0.499969 0.500125 -0.006213
C10   C     C_R   0.127511 0.500037 0.499853 -0.006237
C11   C     C_R   0.582066 0.072388 0.552806 -0.070807
C12   C     C_R   0.417934 0.927612 0.447194 -0.070827
C13   C     C_R   0.417934 0.071467 0.447192 -0.071854
C14   C     C_R   0.582065 0.928533 0.552808 -0.071869
C15   C     C_R   0.502638 0.499530 0.327243 0.898005
C16   C     C_R   0.497347 0.500468 0.672757 0.898153
C17   C     C_R   0.603500 0.473329 0.812401 -0.309125
C18   C     C_R   0.396454 0.526477 0.187599 -0.309103
C19   C     C_R   0.492427 0.501954 0.767908 -0.083828
C20   C     C_R   0.507562 0.498018 0.232094 -0.083908
C21   C     C_R   0.380289 0.531234 0.813256 0.105068
C22   C     C_R   0.619705 0.468747 0.186748 0.105049
C23   C     C_R   0.382595 0.528155 0.907801 0.097107
C24   C     C_R   0.617359 0.471634 0.092202 0.097238
C25   C     C_R   0.497409 0.500491 0.953069 0.029655
C26   C     C_R   0.502537 0.499261 0.046932 0.029615
C27   C     C_R   0.607389 0.473822 0.904644 0.132292
C28   C     C_R   0.392549 0.525900 0.095356 0.132295
C29   C     C_R   0.274169 0.551787 0.958582 -0.223466
C30   C     C_R   0.725747 0.447812 0.041417 -0.223434
H1    H     H_    0.687711 0.452019 0.774471 0.140747
H2    H     H_    0.312231 0.547738 0.225529 0.140730
H3    H     H_    0.183829 0.570148 0.928248 0.158342
H4    H     H_    0.816061 0.429294 0.071750 0.158335
H5    H     H_    0.194731 0.570503 0.088720 0.144620
H6    H     H_    0.805161 0.428969 0.911279 0.144625
H7    H     H_    0.112617 0.291175 0.452872 0.151942
H8    H     H_    0.887384 0.708832 0.547102 0.151942
H9    H     H_    0.886415 0.291213 0.452949 0.155846
H10   H     H_    0.113584 0.708795 0.547023 0.155861
H11   H     H_    0.647683 0.127231 0.595046 0.129406
H12   H     H_    0.352316 0.872769 0.404955 0.129406
H13   H     H_    0.352310 0.125571 0.404958 0.124986
H14   H     H_    0.647690 0.874429 0.595042 0.124982
N1    N     N_R   0.500000 0.857200 0.500000 -0.081816
N2    N     N_R   0.500000 0.142800 0.500000 -0.081811
O1    O     O_R   0.316770 0.614620 0.499990 -0.635701
O2    O     O_R   0.683230 0.385380 0.500010 -0.635732
O3    O     O_R   0.683230 0.614620 0.500010 -0.626453
O4    O     O_R   0.316770 0.385380 0.499990 -0.626553
O5    O     O_R   0.499980 0.614680 0.367850 -0.611161
O6    O     O_R   0.500020 0.385320 0.632150 -0.611211
O7    O     O_R   0.500020 0.614680 0.632150 -0.629178
O8    O     O_R   0.499980 0.385320 0.367850 -0.629136
Zn1   Zn    Zn3+2 0.500000 0.653120 0.500000 0.940612
Zn2   Zn    Zn3+2 0.500000 0.346880 0.500000 0.940580
C31   C     C_3   0.260728 0.562987 0.760622 -0.429871
C32   C     C_3   0.179993 0.436307 0.748448 -0.865371
H15   H     H_    0.231369 0.358445 0.709048 0.271273
H16   H     H_    0.154334 0.392982 0.814293 0.257672
H17   H     H_    0.092862 0.462933 0.711566 0.254750
H18   H     H_    0.206698 0.645506 0.793226 0.198103
H19   H     H_    0.281059 0.604035 0.693343 0.216267
C33   C     C_3   0.739317 0.437193 0.239381 -0.429627
C34   C     C_3   0.820212 0.563840 0.251150 -0.865330
H20   H     H_    0.846066 0.606552 0.185166 0.257573
H21   H     H_    0.768884 0.642137 0.290214 0.271250
H22   H     H_    0.907245 0.537376 0.288210 0.254721
H23   H     H_    0.719072 0.396637 0.306803 0.216156
H24   H     H_    0.793200 0.354402 0.206952 0.198074

loop_
_geom_bond_atom_site_label_1
_geom_bond_atom_site_label_2
_ccdc_geom_bond_type
C12   H12   S    
C4    H6    S    
C21   C31   S    
C16   O6    A    
C2    O3    A    
C33   H24   S    
C25   C27   A    
O4    Zn2   S    
C1    O4    A    
C26   C28   A    
C15   O5    A    
C34   H21   S    
C3    H5    S    
C32   H16   S    
C34   H22   S    
C33   C34   S    
C32   H17   S    
C23   C25   A    
C32   H15   S    
O1    Zn1   S    
C31   H18   S    
C33   H23   S    
C3    C29   A    
C31   C32   S    
C15   C20   S    
C6    C9    A    
C16   C19   S    
C23   C29   A    
C22   C24   A    
C14   H14   S    
C3    C28   A    
C17   C19   A    
C24   C26   A    
C31   H19   S    
C14   N1    A    
O5    Zn1   S    
O7    Zn1   S    
C21   C23   A    
C13   N2    A    
C17   H1    S    
C11   C14   A    
O8    Zn2   S    
C24   C30   A    
C18   H2    S    
C5    H7    S    
C30   H4    S    
C22   C33   S    
C17   C27   A    
C15   O8    A    
C7    C9    A    
C13   H13   S    
C4    C27   A    
C18   C28   A    
C12   C13   A    
N1    Zn1   S    
C18   C20   A    
C5    C7    A    
C34   H20   S    
C11   H11   S    
N2    Zn2   S    
C5    C10   A    
O2    Zn2   S    
C7    H9    S    
C16   O7    A    
C1    O1    A    
C11   N2    A    
C6    C8    A    
C8    H10   S    
C2    O2    A    
C25   C26   A    
O3    Zn1   S    
C2    C9    S    
C6    H8    S    
C8    C10   A    
C4    C30   A    
C1    C10   S    
O6    Zn2   S    
C29   H3    S    
C20   C22   A    
C12   N1    A    
C19   C21   A    
