data_mof_unit_52444.cif
_audit_creation_date              2013-03-05T15:44:28-0500
_audit_creation_method            fapswitch 2.2
_symmetry_space_group_name_H-M    P1
_symmetry_Int_Tables_number       1
_space_group_crystal_system       triclinic
_cell_length_a                    19.945381
_cell_length_b                    7.210328
_cell_length_c                    19.793485
_cell_angle_alpha                 90.882885
_cell_angle_beta                  98.501348
_cell_angle_gamma                 92.23788
_cell_volume                      2812.48507216

loop_
_atom_site_label
_atom_site_type_symbol
_atom_site_description
_atom_site_fract_x
_atom_site_fract_y
_atom_site_fract_z
_atom_type_partial_charge
O1    O     O_R   0.673210 0.377390 0.686390 -0.565437
O2    O     O_R   0.326790 0.622610 0.313610 -0.565437
O3    O     O_R   0.826790 0.877390 0.813610 -0.551550
O4    O     O_R   0.173210 0.122610 0.186390 -0.551552
O5    O     O_R   0.810750 0.706450 0.681250 -0.516368
O6    O     O_R   0.189250 0.293550 0.318750 -0.516372
O7    O     O_R   0.689250 0.206450 0.818750 -0.534678
O8    O     O_R   0.310750 0.793550 0.181250 -0.534677
C1    C     C_R   0.830472 0.539881 0.664617 0.835563
C2    C     C_R   0.169528 0.460119 0.335382 0.835564
C3    C     C_R   0.669976 0.036789 0.835700 0.840422
C4    C     C_R   0.330024 0.963211 0.164300 0.840421
O9    O     O_R   0.672750 0.707060 0.678240 -0.552258
O10   O     O_R   0.327250 0.292940 0.321760 -0.552259
O11   O     O_R   0.827250 0.207060 0.821760 -0.567520
O12   O     O_R   0.172750 0.792940 0.178240 -0.567520
O13   O     O_R   0.687800 0.877990 0.810580 -0.523417
O14   O     O_R   0.312200 0.122010 0.189420 -0.523416
O15   O     O_R   0.812200 0.377990 0.689420 -0.549767
O16   O     O_R   0.187800 0.622010 0.310580 -0.549766
C5    C     C_R   0.648354 0.533902 0.661346 0.824499
C6    C     C_R   0.351646 0.466097 0.338654 0.824500
C7    C     C_R   0.851440 0.042858 0.839563 0.824432
C8    C     C_R   0.148560 0.957142 0.160437 0.824430
O17   O     O_3   0.755100 0.544060 0.793420 -0.246001
O18   O     O_3   0.244900 0.455940 0.206580 -0.245999
O19   O     O_3   0.744900 0.044060 0.706580 -0.259024
O20   O     O_3   0.255100 0.955940 0.293420 -0.259024
V1    V     V_3+5 0.749050 0.818670 0.741950 1.244044
V2    V     V_3+5 0.250950 0.181330 0.258050 1.244041
V3    V     V_3+5 0.750950 0.318670 0.758050 1.217737
V4    V     V_3+5 0.249050 0.681330 0.241950 1.217737
C9    C     C_R   0.088949 0.949160 0.104563 -0.098414
C10   C     C_R   0.911051 0.050840 0.895437 -0.098414
C11   C     C_R   0.412356 0.495281 0.392054 -0.100132
C12   C     C_R   0.587644 0.504718 0.607946 -0.100131
C13   C     C_R   0.002626 0.235868 0.964716 -0.067955
C14   C     C_R   0.997374 0.764132 0.035284 -0.067955
C15   C     C_R   0.493536 0.297503 0.555316 -0.068584
C16   C     C_R   0.506464 0.702497 0.444683 -0.068584
C17   C     C_R   0.949484 0.219122 0.909964 -0.082990
C18   C     C_R   0.050516 0.780878 0.090036 -0.082990
C19   C     C_R   0.546609 0.340807 0.608263 -0.079812
C20   C     C_R   0.453391 0.659193 0.391736 -0.079812
C21   C     C_R   0.927984 0.898013 0.937158 -0.091767
C22   C     C_R   0.072016 0.101987 0.062842 -0.091767
C23   C     C_R   0.573230 0.627158 0.553640 -0.104015
C24   C     C_R   0.426770 0.372842 0.446359 -0.104013
C25   C     C_R   0.981230 0.914756 0.992959 0.078961
C26   C     C_R   0.018770 0.085244 0.007041 0.078961
C27   C     C_R   0.520006 0.583330 0.499687 0.078336
C28   C     C_R   0.479994 0.416670 0.500313 0.078336
H1    H     H_    0.101124 0.232223 0.072688 0.111218
H2    H     H_    0.898876 0.767777 0.927312 0.111220
H3    H     H_    0.395380 0.247198 0.447805 0.114702
H4    H     H_    0.604620 0.752802 0.552194 0.114702
H5    H     H_    0.061647 0.660331 0.121056 0.091850
H6    H     H_    0.938353 0.339669 0.878944 0.091850
H7    H     H_    0.443960 0.756237 0.350505 0.088548
H8    H     H_    0.556040 0.243763 0.649495 0.088548
H9    H     H_    0.030918 0.367383 0.974125 0.078158
H10   H     H_    0.969082 0.632616 0.025875 0.078158
H11   H     H_    0.463484 0.169670 0.557155 0.086484
H12   H     H_    0.536516 0.830330 0.442845 0.086483
C29   C     C_R   0.574741 0.160352 0.888030 -0.083510
C30   C     C_R   0.425261 0.839650 0.111972 -0.083510
C31   C     C_R   0.923861 0.388201 0.617629 -0.079500
C32   C     C_R   0.076137 0.611795 0.382369 -0.079507
C33   C     C_R   0.622108 0.023201 0.886814 -0.170999
C34   C     C_R   0.377893 0.976800 0.113187 -0.170997
C35   C     C_R   0.879230 0.533680 0.614098 -0.176709
C36   C     C_R   0.120769 0.466318 0.385901 -0.176705
C37   C     C_R   0.621903 0.873056 0.932420 0.333032
C38   C     C_R   0.378098 0.126946 0.067581 0.333032
C39   C     C_R   0.882330 0.670522 0.563610 0.333643
C40   C     C_R   0.117669 0.329477 0.436389 0.333643
C41   C     C_R   0.573464 0.861596 0.978960 -0.049272
C42   C     C_R   0.426538 0.138408 0.021042 -0.049273
C43   C     C_R   0.930637 0.659764 0.516999 -0.044741
C44   C     C_R   0.069361 0.340233 0.482998 -0.044741
C45   C     C_R   0.525013 0.002801 0.977805 -0.003115
C46   C     C_R   0.474989 0.997203 0.022197 -0.003112
C47   C     C_R   0.975467 0.508989 0.522457 0.003119
C48   C     C_R   0.024530 0.491006 0.477540 0.003121
C49   C     C_R   0.526491 0.150779 0.932394 0.039442
C50   C     C_R   0.473511 0.849225 0.067609 0.039446
C51   C     C_R   0.971319 0.374968 0.572745 0.045271
C52   C     C_R   0.028678 0.625027 0.427252 0.045273
C53   C     C_R   0.571027 0.716677 0.027024 0.286821
C54   C     C_R   0.428976 0.283332 0.972980 0.286817
C55   C     C_R   0.936269 0.791195 0.464669 0.289020
C56   C     C_R   0.063727 0.208799 0.535327 0.289017
C57   C     C_R   0.521050 0.711998 0.069406 -0.064061
C58   C     C_R   0.478953 0.288008 0.930598 -0.064060
C59   C     C_R   0.984978 0.772148 0.421517 -0.045654
C60   C     C_R   0.015018 0.227846 0.578479 -0.045648
H13   H     H_    0.574146 0.273522 0.852511 0.124282
H14   H     H_    0.425855 0.726479 0.147490 0.124278
H15   H     H_    0.922429 0.284873 0.656696 0.120676
H16   H     H_    0.077569 0.715123 0.343301 0.120666
H17   H     H_    0.519839 0.599682 0.105099 0.112557
H18   H     H_    0.480165 0.400326 0.894905 0.112560
H19   H     H_    0.988565 0.874354 0.382426 0.113313
H20   H     H_    0.011430 0.125638 0.617569 0.113320
N1    N     N_R   0.671021 0.734486 0.930686 0.119500
O21   O     O_R   0.654591 0.582889 0.894536 -0.333716
O22   O     O_R   0.734537 0.774533 0.953765 -0.332808
N2    N     N_R   0.328979 0.265510 0.069313 0.119497
O23   O     O_R   0.265464 0.225460 0.046226 -0.332807
O24   O     O_R   0.345403 0.417102 0.105468 -0.333707
N3    N     N_R   0.835287 0.815986 0.559477 0.121461
O25   O     O_R   0.852292 0.971578 0.592942 -0.337683
O26   O     O_R   0.772166 0.780726 0.533539 -0.329170
N4    N     N_R   0.164717 0.184025 0.440526 0.121460
O27   O     O_R   0.227835 0.219298 0.466472 -0.329171
O28   O     O_R   0.147721 0.028433 0.407061 -0.337663
Br1   Br    Br    0.633697 0.519923 0.043581 -0.471720
Br2   Br    Br    0.366312 0.480101 0.956429 -0.471730
Br3   Br    Br    0.880809 0.001925 0.444207 -0.474753
Br4   Br    Br    0.119183 0.998066 0.555785 -0.474759

loop_
_geom_bond_atom_site_label_1
_geom_bond_atom_site_label_2
_geom_bond_distance
_ccdc_geom_bond_type
O17   V3    1.753668 S    
C24   H3    1.084128 S    
C47   C51   1.406831 A    
O1    C5    1.324121 A    
N4    O28   1.301265 A    
O19   V1    1.779463 S    
O13   V1    2.008548 S    
O3    C7    1.337787 A    
N3    O25   1.301278 A    
C56   C60   1.394419 A    
C44   C48   1.429692 A    
O15   V3    1.997116 S    
C45   C46   1.423500 A    
C5    C12   1.490821 S    
C42   C54   1.428164 A    
O7    C3    1.330746 A    
C6    C11   1.490820 S    
N1    O22   1.301246 A    
C41   C53   1.428163 A    
C9    C18   1.412092 A    
C54   Br2   1.927213 S    
O9    V1    1.964559 S    
C17   H6    1.083030 S    
C14   C18   1.399588 A    
O4    C8    1.337787 A    
C20   H7    1.083288 S    
O1    V3    2.003708 S    
N2    O23   1.301250 A    
C12   C23   1.405397 A    
O2    V4    2.003710 S    
O3    V1    1.968580 S    
C34   C38   1.420488 A    
C37   N1    1.429866 S    
C1    O15   1.331810 A    
C2    O16   1.331812 A    
C43   C47   1.429694 A    
O2    C6    1.324121 A    
C40   N4    1.429674 S    
C33   C37   1.420488 A    
O14   V2    2.008548 S    
C21   C25   1.414709 A    
C16   C20   1.397298 A    
C43   C55   1.428251 A    
C31   H15   1.084649 S    
O11   C7    1.328871 A    
C15   C28   1.398766 A    
C52   C59   1.394468 A    
O12   C8    1.328870 A    
C13   C17   1.399588 A    
C9    C22   1.408878 A    
C10   C17   1.412092 A    
O10   V2    1.964557 S    
C11   C24   1.405397 A    
C18   H5    1.083031 S    
C59   H19   1.084753 S    
C54   C58   1.394258 A    
O5    V1    2.024265 S    
O7    V3    2.000508 S    
C27   C28   1.417590 A    
O8    V4    2.000507 S    
C48   C52   1.406831 A    
N4    O27   1.301184 A    
C57   H17   1.084763 S    
C14   C25   1.400221 A    
O18   V4    1.753668 S    
C15   C19   1.397298 A    
C46   C50   1.407892 A    
C55   C59   1.394421 A    
C32   C36   1.397995 A    
C44   C56   1.428244 A    
C32   H16   1.084650 S    
O5    C1    1.329875 A    
C50   C57   1.394171 A    
C49   C58   1.394169 A    
C42   C46   1.428992 A    
C13   H9    1.083526 S    
C47   C48   1.424234 A    
C41   C45   1.428992 A    
O8    C4    1.330746 A    
C7    C10   1.497991 S    
C51   C60   1.394462 A    
O9    C5    1.341257 A    
C36   C40   1.421225 A    
N3    O26   1.301193 A    
C10   C21   1.408878 A    
O11   V3    2.028134 S    
C11   C20   1.411711 A    
C19   H8    1.083288 S    
O6    V2    2.024264 S    
C53   Br1   1.927206 S    
C21   H2    1.084060 S    
C60   H20   1.084750 S    
C32   C52   1.395508 A    
C55   Br3   1.927191 S    
C40   C44   1.432468 A    
O16   V4    1.997116 S    
C4    C34   1.492004 S    
C3    O13   1.323293 A    
C39   N3    1.429674 S    
C1    C35   1.495734 S    
C30   C50   1.395895 A    
C23   C27   1.412609 A    
C3    C33   1.492006 S    
C29   C49   1.395897 A    
O12   V4    2.028134 S    
C16   C27   1.398766 A    
C15   H11   1.083752 S    
N1    O21   1.301058 A    
C22   C26   1.414709 A    
C31   C51   1.395507 A    
C8    C9    1.497991 S    
C16   H12   1.083752 S    
O10   C6    1.341257 A    
O20   V2    1.779461 S    
C56   Br4   1.927159 S    
C29   H13   1.084532 S    
C35   C39   1.421227 A    
C13   C26   1.400221 A    
C30   H14   1.084532 S    
C30   C34   1.396440 A    
C29   C33   1.396438 A    
C22   H1    1.084059 S    
N2    O24   1.301065 A    
C31   C35   1.397993 A    
C53   C57   1.394259 A    
O4    V2    1.968580 S    
O6    C2    1.329873 A    
C38   N2    1.429866 S    
C24   C28   1.412609 A    
C58   H18   1.084763 S    
C25   C26   1.416085 A    
C38   C42   1.431111 A    
C4    O14   1.323294 A    
C37   C41   1.431110 A    
C12   C19   1.411711 A    
C39   C43   1.432470 A    
C45   C49   1.407890 A    
C23   H4    1.084127 S    
C14   H10   1.083526 S    
C2    C36   1.495733 S    
