data_mof_unit_62017.cif
_audit_creation_date              2012-12-10T16:55:20-0500
_audit_creation_method            fapswitch 2.2
_symmetry_space_group_name_H-M    P1
_symmetry_Int_Tables_number       1
_space_group_crystal_system       triclinic
_cell_length_a                    21.781301
_cell_length_b                    21.755664
_cell_length_c                    21.910166
_cell_angle_alpha                 118.584851
_cell_angle_beta                  119.466099
_cell_angle_gamma                 90.009183
_cell_volume                      7551.62984604

loop_
_atom_site_label
_atom_site_type_symbol
_atom_type_description
_atom_site_fract_x
_atom_site_fract_y
_atom_site_fract_z
_atom_type_partial_charge
C1    C     C_R   0.003552 0.383928 0.506410 0.849775
C2    C     C_1   0.841480 0.333612 0.174515 0.111823
C3    C     C_1   0.124435 0.622995 0.750936 -0.198408
C4    C     C_1   0.875933 0.373039 0.249304 -0.215669
C5    C     C_2   0.987631 0.244539 0.558857 0.326454
C6    C     C_2   0.929050 0.757324 0.444532 0.326935
C7    C     C_2   0.976093 0.180466 0.491998 0.038556
C8    C     C_2   0.986827 0.819626 0.508726 0.032282
C9    C     C_2   0.979049 0.308934 0.551991 0.266473
C10   C     C_2   0.927271 0.692883 0.451309 0.277389
C11   C     C_2   0.016151 0.327689 0.526042 0.205260
C12   C     C_R   0.996605 0.615496 0.492543 0.861153
C13   C     C_2   0.988138 0.670474 0.470729 0.203728
C14   C     C_R   0.615648 0.997093 0.493844 0.942259
C15   C     C_R   0.385502 0.003709 0.507940 0.933236
C16   C     C_R   0.080883 0.581082 0.662201 0.893369
C17   C     C_R   0.919153 0.418961 0.337844 0.901186
C18   C     C_R   0.418590 0.919531 0.337772 0.894198
C19   C     C_R   0.581175 0.080393 0.662202 0.894598
C20   C     C_R   0.880853 0.996865 0.500521 0.883730
C21   C     C_R   0.119126 0.002465 0.499364 0.912748
C22   C     C_R   0.994554 0.118488 0.498578 0.937729
C23   C     C_3   0.250948 0.837254 0.043148 0.448418
C24   C     C_R   0.996591 0.881561 0.501559 0.944342
C25   C     C_2   0.751079 0.933538 0.435366 0.166339
C26   C     C_2   0.247391 0.066337 0.561838 0.139334
C27   C     C_2   0.816897 0.985703 0.504032 -0.046531
C28   C     C_2   0.183500 0.010411 0.495688 -0.050145
C29   C     C_2   0.687311 0.928148 0.441406 0.190460
C30   C     C_2   0.311475 0.072048 0.556218 0.209937
C31   C     C_2   0.672769 0.991158 0.477710 -0.364961
C32   C     C_2   0.329602 0.010262 0.525890 -0.392355
C33   C     C_3   0.284408 0.693050 0.953193 0.503656
C34   C     C_3   0.663582 0.212746 0.953482 0.525926
C35   C     C_3   0.809480 0.331004 0.046896 0.529232
C36   C     C_3   0.162515 0.676641 0.951525 0.174762
C37   C     C_3   0.821818 0.210345 0.052235 0.303186
C38   C     C_3   0.213462 0.729864 0.054747 0.281404
C39   C     C_3   0.772357 0.161202 0.949137 0.272436
C40   C     C_1   0.371708 0.876259 0.249174 -0.225405
C41   C     C_1   0.626433 0.122900 0.750824 -0.213129
C42   C     C_3   0.203368 0.700609 0.917758 -0.079166
C43   C     C_3   0.799224 0.285482 0.082902 -0.123265
C44   C     C_3   0.333464 0.749964 0.052811 0.573225
C45   C     C_3   0.208350 0.782957 0.944764 0.079584
C46   C     C_3   0.755532 0.280367 0.946337 0.582028
C47   C     C_3   0.282490 0.789551 0.082700 -0.076387
C48   C     C_3   0.713844 0.202361 0.917709 -0.068139
C49   C     C_3   0.969474 0.144311 0.362488 -0.691944
C50   C     C_3   0.113595 0.852393 0.629536 -0.660891
C51   C     C_3   0.707836 0.905755 0.297824 -0.730476
C52   C     C_3   0.296744 0.112021 0.706170 -0.740970
C53   C     C_3   0.844267 0.989634 0.627404 -0.761908
C54   C     C_3   0.152177 0.886461 0.378135 -0.773228
C55   C     C_3   0.574918 0.824417 0.329134 -0.730679
C56   C     C_3   0.715453 0.262891 0.051942 0.045358
C57   C     C_3   0.322014 0.174360 0.541801 -0.752426
C58   C     C_3   0.292177 0.567535 0.864375 -0.714575
C59   C     C_3   0.943255 0.412757 0.159503 -0.715286
C60   C     C_3   0.025259 0.641811 0.899887 -0.768366
C61   C     C_3   0.843780 0.195835 0.170863 -0.838148
C62   C     C_3   0.110820 0.538783 0.834113 -0.719225
C63   C     C_3   0.937217 0.170263 0.085177 -0.747563
C64   C     C_3   0.204516 0.657840 0.116655 -0.802996
C65   C     C_3   0.884647 0.186881 0.935747 -0.636747
C66   C     C_3   0.197867 0.823376 0.172150 -0.651103
C67   C     C_1   0.331009 0.837965 0.174392 0.112685
C68   C     C_3   0.766799 0.032662 0.921140 -0.789347
C69   C     C_3   0.289904 0.956955 0.061058 -0.762522
C70   C     C_3   0.530173 0.199616 0.852251 -0.707270
C71   C     C_1   0.665188 0.158479 0.825702 0.084452
C72   C     C_1   0.160040 0.657323 0.825882 0.227796
H1    H     H_    0.703120 0.041645 0.493037 0.144606
H2    H     H_    0.729722 0.357773 0.925586 0.365083
H3    H     H_    0.526833 0.144957 0.805415 0.256103
H4    H     H_    0.172353 0.885605 0.029411 0.335113
H5    H     H_    0.598499 0.151592 0.954833 0.343013
H6    H     H_    0.020550 0.303212 0.675515 0.336106
H7    H     H_    0.839605 0.701917 0.332186 0.345670
H8    H     H_    0.900193 0.197640 0.396904 0.214419
H9    H     H_    0.978056 0.185883 0.349461 0.222500
H10   H     H_    0.931743 0.091275 0.301809 0.233106
H11   H     H_    0.023970 0.137117 0.397067 0.243070
H12   H     H_    0.014628 0.802351 0.606376 0.215818
H13   H     H_    0.301874 0.960861 0.514597 0.163123
H14   H     H_    0.135837 0.809557 0.639052 0.233999
H15   H     H_    0.140118 0.905027 0.691604 0.234229
H16   H     H_    0.128420 0.859486 0.590950 0.235727
H17   H     H_    0.909048 0.322141 0.583688 0.333809
H18   H     H_    0.830151 0.686793 0.432223 0.335853
H19   H     H_    0.088282 0.308212 0.495484 0.348821
H20   H     H_    0.085665 0.681854 0.487066 0.352954
H21   H     H_    0.716257 0.829963 0.330711 0.251796
H22   H     H_    0.706248 0.866900 0.240555 0.241610
H23   H     H_    0.740409 0.961952 0.325382 0.245650
H24   H     H_    0.151062 0.785824 0.915934 0.155784
H25   H     H_    0.650292 0.904971 0.279845 0.229787
H26   H     H_    0.272192 0.173798 0.654083 0.246845
H27   H     H_    0.295501 0.153484 0.760410 0.237511
H28   H     H_    0.355331 0.120059 0.725479 0.226269
H29   H     H_    0.272685 0.056323 0.688051 0.246541
H30   H     H_    0.863035 0.080318 0.622888 0.246013
H31   H     H_    0.847861 0.024386 0.686888 0.234176
H32   H     H_    0.898157 0.978896 0.642228 0.245369
H33   H     H_    0.799929 0.936690 0.588158 0.244742
H34   H     H_    0.144171 0.980384 0.374829 0.236361
H35   H     H_    0.709578 0.230323 0.076386 0.139441
H36   H     H_    0.165217 0.859259 0.330213 0.236208
H37   H     H_    0.091670 0.864376 0.346627 0.260625
H38   H     H_    0.182634 0.872784 0.425789 0.236846
H39   H     H_    0.642107 0.853359 0.453193 0.249657
H40   H     H_    0.546719 0.769890 0.310095 0.239169
H41   H     H_    0.584103 0.815982 0.280541 0.246535
H42   H     H_    0.538269 0.859534 0.332323 0.238167
H43   H     H_    0.411415 0.150485 0.615825 0.246266
H44   H     H_    0.358176 0.230892 0.575899 0.236449
H45   H     H_    0.267198 0.177669 0.531681 0.235562
H46   H     H_    0.406877 0.747625 0.150963 0.375710
H47   H     H_    0.314939 0.140453 0.480137 0.250916
H48   H     H_    0.285633 0.599780 0.967527 0.259458
H49   H     H_    0.271378 0.509754 0.843041 0.223321
H50   H     H_    0.352164 0.580532 0.889653 0.246723
H51   H     H_    0.261237 0.571948 0.809239 0.266218
H52   H     H_    0.891248 0.365220 0.035273 0.274014
H53   H     H_    0.993433 0.431199 0.163465 0.212549
H54   H     H_    0.962049 0.394737 0.203253 0.226095
H55   H     H_    0.923783 0.461131 0.181016 0.291575
H56   H     H_    0.087181 0.740346 0.938559 0.235184
H57   H     H_    0.760754 0.252973 0.849459 0.363656
H58   H     H_    0.990741 0.675927 0.915019 0.222736
H59   H     H_    0.042452 0.617547 0.937865 0.229418
H60   H     H_    0.989201 0.597740 0.832289 0.256960
H61   H     H_    0.750557 0.137785 0.049409 0.265529
H62   H     H_    0.812573 0.225517 0.196855 0.234754
H63   H     H_    0.900873 0.232574 0.208403 0.249861
H64   H     H_    0.847467 0.148260 0.177520 0.246796
H65   H     H_    0.142209 0.582578 0.954791 0.243275
H66   H     H_    0.087768 0.487303 0.825106 0.221878
H67   H     H_    0.146936 0.526750 0.810675 0.248369
H68   H     H_    0.365384 0.706041 0.939831 0.365774
H69   H     H_    0.063992 0.551484 0.794862 0.257444
H70   H     H_    0.934458 0.275401 0.146525 0.231155
H71   H     H_    0.940904 0.155545 0.128519 0.245206
H72   H     H_    0.994533 0.190690 0.104623 0.219924
H73   H     H_    0.907870 0.120248 0.021315 0.263109
H74   H     H_    0.265070 0.649095 0.066641 0.260926
H75   H     H_    0.221577 0.610198 0.118278 0.233434
H76   H     H_    0.143536 0.638439 0.071878 0.220415
H77   H     H_    0.219843 0.699291 0.180675 0.259393
H78   H     H_    0.782395 0.105603 0.845070 0.219712
H79   H     H_    0.738290 0.388539 0.051833 0.396288
H80   H     H_    0.924347 0.155408 0.946714 0.207821
H81   H     H_    0.908130 0.242856 0.991575 0.285701
H82   H     H_    0.878430 0.191614 0.884843 0.232749
H83   H     H_    0.117599 0.732354 0.058511 0.239332
H84   H     H_    0.153252 0.826812 0.183643 0.194347
H85   H     H_    0.220220 0.878379 0.188023 0.278154
H86   H     H_    0.241724 0.811813 0.215724 0.225387
H87   H     H_    0.681099 0.062106 0.857215 0.266497
H88   H     H_    0.794506 0.020225 0.887402 0.232921
H89   H     H_    0.725148 0.980671 0.891015 0.237365
H90   H     H_    0.380163 0.821664 0.043480 0.345143
H91   H     H_    0.807015 0.049827 0.986728 0.267750
H92   H     H_    0.288238 0.821250 0.940670 0.389024
H93   H     H_    0.706847 0.337772 0.141915 0.359181
H94   H     H_    0.354796 0.923075 0.137777 0.254283
H95   H     H_    0.337827 0.989455 0.072225 0.238147
H96   H     H_    0.275255 0.994660 0.104562 0.246023
H97   H     H_    0.242469 0.933386 0.995468 0.270883
H98   H     H_    0.615040 0.300648 0.951718 0.293377
H99   H     H_    0.501925 0.227127 0.819353 0.226986
H100  H     H_    0.500811 0.192407 0.878961 0.227897
N1    N     N_2   0.935998 0.167920 0.409749 -0.329372
N2    N     N_2   0.886964 0.353214 0.073437 -0.300773
N3    N     N_2   0.088175 0.686955 0.916922 -0.296548
N4    N     N_2   0.804591 0.168900 0.082406 -0.285849
N5    N     N_2   0.153104 0.598021 0.922728 -0.303654
N6    N     N_2   0.901857 0.227503 0.088337 -0.272082
N7    N     N_2   0.242993 0.686733 0.092552 -0.284678
N8    N     N_2   0.813166 0.146854 0.908142 -0.276828
N9    N     N_2   0.167523 0.766954 0.084483 -0.231655
N10   N     N_2   0.729568 0.087240 0.916041 -0.275703
N11   N     N_2   0.310230 0.900035 0.076857 -0.305030
N12   N     N_2   0.034129 0.830990 0.589934 -0.333423
N13   N     N_2   0.606582 0.244801 0.919075 -0.231553
N14   N     N_2   0.741774 0.884105 0.357084 -0.271140
N15   N     N_2   0.254111 0.120871 0.636977 -0.282436
N16   N     N_2   0.827548 0.027385 0.584473 -0.323110
N17   N     N_2   0.174182 0.965229 0.416278 -0.316028
N18   N     N_2   0.644879 0.857712 0.409763 -0.312699
N19   N     N_2   0.355623 0.142826 0.590744 -0.307070
N20   N     N_2   0.281038 0.616553 0.929279 -0.288778
O1    O     O_R   0.051090 0.409550 0.500010 -0.645714
O2    O     O_R   0.051070 0.590460 0.499970 -0.642754
O3    O     O_R   0.112510 0.561440 0.622850 -0.605296
O4    O     O_R   0.887490 0.438560 0.377150 -0.604661
O5    O     O_R   0.010350 0.561430 0.622870 -0.612220
O6    O     O_R   0.989650 0.438570 0.377130 -0.628277
O7    O     O_R   0.590290 0.948920 0.499990 -0.621853
O8    O     O_R   0.409710 0.051080 0.500010 -0.615907
O9    O     O_R   0.590320 0.051050 0.499970 -0.620977
O10   O     O_R   0.409680 0.948950 0.500030 -0.620508
O11   O     O_R   0.438380 0.887500 0.377150 -0.616181
O12   O     O_R   0.948910 0.590450 0.499990 -0.557469
O13   O     O_R   0.561620 0.112500 0.622850 -0.612889
O14   O     O_R   0.438400 0.989630 0.377130 -0.611748
O15   O     O_R   0.561600 0.010370 0.622870 -0.621252
O16   O     O_R   0.944190 0.034670 0.569380 -0.626663
O17   O     O_R   0.055810 0.965330 0.430620 -0.630445
O18   O     O_3   0.365782 0.711789 0.091531 -0.795856
O19   O     O_3   0.795654 0.270785 0.909485 -0.825989
O20   O     O_3   0.314354 0.709955 0.916557 -0.767426
O21   O     O_3   0.792191 0.397450 0.079240 -0.739081
O22   O     O_3   0.394413 0.803415 0.080349 -0.779576
O23   O     O_R   0.874830 0.965310 0.430660 -0.595509
O24   O     O_3   0.702868 0.313781 0.915949 -0.803548
O25   O     O_3   0.200856 0.865821 0.063629 -0.778123
O26   O     O_3   0.627910 0.143620 0.930058 -0.809750
O27   O     O_3   0.011685 0.251403 0.633803 -0.761411
O28   O     O_3   0.874520 0.752671 0.372557 -0.756075
O29   O     O_3   0.932935 0.346896 0.569317 -0.779435
O30   O     O_3   0.866579 0.659480 0.442025 -0.768120
O31   O     O_3   0.070787 0.295743 0.523363 -0.797010
O32   O     O_3   0.041831 0.698287 0.465773 -0.793505
O33   O     O_3   0.233692 0.803687 0.906959 -0.725734
O34   O     O_R   0.125170 0.034690 0.569340 -0.601307
O35   O     O_3   0.692338 0.324100 0.085330 -0.777216
O36   O     O_R   0.034670 0.125130 0.569340 -0.560868
O37   O     O_R   0.965330 0.874870 0.430660 -0.561981
O38   O     O_R   0.965310 0.055770 0.430620 -0.632300
O39   O     O_R   0.034690 0.944230 0.569380 -0.632287
O40   O     O_R   0.948930 0.409540 0.500030 -0.563681
Zn1   Zn    Zn3+2 0.068220 0.500010 0.499990 0.963191
Zn2   Zn    Zn3+2 0.931780 0.499990 0.500010 1.040461
Zn3   Zn    Zn3+2 0.499800 0.931810 0.500010 0.953657
Zn4   Zn    Zn3+2 0.500200 0.068190 0.499990 0.962580
Zn5   Zn    Zn3+2 0.046310 0.046310 0.592620 0.995100
Zn6   Zn    Zn3+2 0.953690 0.953690 0.407380 0.992567

loop_
_geom_bond_atom_site_label_1
_geom_bond_atom_site_label_2
_ccdc_geom_bond_type
C51   H25   S    
C30   C32   D    
C23   O25   S    
C34   C56   S    
C23   C45   S    
C54   N17   S    
C55   H40   S    
C36   C42   S    
C1    C11   S    
C14   C31   S    
C24   O39   A    
C28   N17   S    
C60   H60   S    
C62   N5    S    
C49   N1    S    
C39   N8    S    
O15   Zn3   S    
C15   C32   S    
C5    O27   S    
C68   H89   S    
C59   H54   S    
O11   Zn3   S    
C37   N6    S    
C68   N10   S    
C58   H51   S    
H26   N15   S    
C38   N9    S    
C33   N20   S    
C44   O22   S    
C33   C42   S    
C57   H45   S    
C53   N16   S    
H8    N1    S    
H18   O30   S    
H48   N20   S    
H17   O29   S    
C33   O20   S    
H5    O26   S    
C31   H1    S    
H52   N2    S    
C32   H13   S    
C53   H32   S    
C59   H55   S    
C46   O19   S    
C14   O9    A    
H93   O35   S    
C54   H38   S    
O14   Zn4   S    
C47   C67   S    
C9    O29   S    
C18   C40   S    
O12   Zn2   S    
C70   N13   S    
O10   Zn3   S    
C3    C16   S    
C21   O17   A    
H56   N3    S    
C40   C67   T    
C65   H81   S    
C63   H72   S    
H83   N9    S    
H92   O33   S    
C52   N15   S    
C62   H67   S    
H57   O19   S    
C35   C43   S    
C2    C43   S    
C44   O18   S    
C56   O35   S    
C44   C47   S    
C50   H16   S    
C57   H47   S    
H43   N19   S    
H21   N14   S    
C8    N12   S    
O34   Zn5   S    
C64   H76   S    
C19   O15   A    
C33   C44   S    
C61   N4    S    
C60   H59   S    
O1    Zn1   S    
C61   H62   S    
C57   H44   S    
C25   C29   S    
C46   C48   S    
C52   H29   S    
C58   H50   S    
C23   C47   S    
H94   N11   S    
C20   O23   A    
H20   O32   S    
O17   Zn6   S    
C24   O37   A    
C60   H58   S    
C5    C7    D    
C64   N7    S    
C50   H14   S    
O9    Zn4   S    
C45   O33   S    
C55   H41   S    
C10   C13   D    
H30   N16   S    
C54   H37   S    
C42   C45   S    
C49   H10   S    
C37   C43   S    
C34   N13   S    
C1    O1    A    
C70   H99   S    
C55   N18   S    
C56   H35   S    
C5    C9    S    
C65   H82   S    
C21   O34   A    
O7    Zn3   S    
H6    O27   S    
C48   C71   S    
C9    C11   D    
C26   N15   S    
H46   O18   S    
C22   O38   A    
H12   N12   S    
H4    O25   S    
C42   C72   S    
C38   C47   S    
H65   N5    S    
C17   O6    A    
O23   Zn6   S    
C69   H97   S    
C30   N19   S    
C62   H66   S    
O39   Zn5   S    
C35   O21   S    
C23   N11   S    
C18   O11   A    
C50   H15   S    
C69   N11   S    
C6    O28   S    
C4    C17   S    
C70   H100  S    
C55   H42   S    
C21   C28   S    
C26   C30   S    
C46   O24   S    
C69   H95   S    
C64   H75   S    
C58   N20   S    
C25   C27   D    
O38   Zn6   S    
C34   C48   S    
C20   O16   A    
C13   O32   S    
H19   O31   S    
C66   H86   S    
C15   O10   A    
C61   H63   S    
H78   N8    S    
H90   O22   S    
C68   H91   S    
C58   H49   S    
C38   N7    S    
H68   O20   S    
H2    O24   S    
O40   Zn2   S    
C35   N2    S    
C12   O2    A    
C66   N9    S    
O13   Zn4   S    
C50   N12   S    
C36   N5    S    
O8    Zn4   S    
C36   N3    S    
O6    Zn1   S    
O16   Zn5   S    
C6    C10   S    
C6    C8    D    
O5    Zn2   S    
C34   O26   S    
C57   N19   S    
C20   C27   S    
C54   H36   S    
C59   H53   S    
C7    C22   S    
C14   O7    A    
C52   H27   S    
C26   C28   D    
C11   O31   S    
C41   C71   T    
C64   H77   S    
C18   O14   A    
C19   O13   A    
C62   H69   S    
C49   H11   S    
C65   H80   S    
C36   C38   S    
C3    C72   T    
C69   H96   S    
O36   Zn5   S    
C37   C39   S    
C16   O3    A    
C37   N4    S    
C66   H84   S    
C15   O8    A    
C45   H24   S    
C1    O40   A    
H7    O28   S    
H70   N6    S    
C59   N2    S    
O4    Zn2   S    
C53   H31   S    
C2    C4    T    
C7    N1    S    
H98   N13   S    
C8    C24   S    
C52   H28   S    
H74   N7    S    
C49   H9    S    
C27   N16   S    
C12   O12   A    
H87   N10   S    
H61   N4    S    
C39   N10   S    
C25   N14   S    
C10   O30   S    
C51   H22   S    
C53   H33   S    
C43   C56   S    
C22   O36   A    
C12   C13   S    
H39   N18   S    
C29   C31   D    
H79   O21   S    
C63   N6    S    
C70   H3    S    
C51   N14   S    
C60   N3    S    
C63   H71   S    
C29   N18   S    
O3    Zn1   S    
C17   O4    A    
O2    Zn1   S    
H34   N17   S    
O37   Zn6   S    
C68   H88   S    
C35   C46   S    
C63   H73   S    
C66   H85   S    
C16   O5    A    
C19   C41   S    
C61   H64   S    
C51   H23   S    
C39   C48   S    
C65   N8    S    
