data_mof_unit_50170.cif
_audit_creation_date              2012-12-10T20:52:13-0500
_audit_creation_method            fapswitch 2.2
_symmetry_space_group_name_H-M    P1
_symmetry_Int_Tables_number       1
_space_group_crystal_system       triclinic
_cell_length_a                    10.857633
_cell_length_b                    8.904211
_cell_length_c                    8.275391
_cell_angle_alpha                 89.987264
_cell_angle_beta                  92.408563
_cell_angle_gamma                 89.954674
_cell_volume                      799.346597803

loop_
_atom_site_label
_atom_site_type_symbol
_atom_type_description
_atom_site_fract_x
_atom_site_fract_y
_atom_site_fract_z
_atom_type_partial_charge
C1    C     C_R   0.499976 0.218750 0.499984 0.935358
C2    C     C_R   0.500137 0.781239 0.500023 0.900447
C3    C     C_R   0.873896 0.497297 0.509354 -0.101615
C4    C     C_R   0.126640 0.518689 0.491837 -0.075426
C5    C     C_R   0.943986 0.567919 0.634813 0.069710
C6    C     C_R   0.055295 0.468831 0.358283 0.063761
C7    C     C_1   0.500078 0.065399 0.500007 -0.118606
C8    C     C_1   0.500139 0.934566 0.500009 -0.122870
C9    C     C_R   0.259827 0.508025 0.496906 0.878113
C10   C     C_R   0.740478 0.497367 0.503479 0.863795
C11   C     C_R   0.181279 0.710515 0.045327 0.614693
C12   C     C_R   0.781945 0.523004 0.015332 0.570129
C13   C     C_R   0.104557 0.663162 0.164566 -0.249979
C14   C     C_R   0.854886 0.492149 0.887067 -0.179956
C15   C     C_R   0.094127 0.509244 0.198609 -0.066967
C16   C     C_R   0.892599 0.608633 0.788506 -0.069825
C17   C     C_R   0.147154 0.402142 0.100657 -0.198773
C18   C     C_R   0.871796 0.758532 0.830993 -0.237636
C19   C     C_R   0.222569 0.449651 0.979367 0.629778
C20   C     C_R   0.806167 0.790289 0.968662 0.636336
C21   C     C_R   0.244827 0.604262 0.958526 -0.369438
C22   C     C_R   0.758599 0.672472 0.058968 -0.342711
C23   C     C_R   0.932002 0.442989 0.374617 -0.219653
C24   C     C_R   0.069422 0.580218 0.622641 -0.218810
H1    H     H_    0.307713 0.645417 0.871754 0.200995
H2    H     H_    0.701250 0.698304 0.158684 0.206275
H3    H     H_    0.062141 0.746163 0.240297 0.183219
H4    H     H_    0.870850 0.376182 0.853783 0.193503
H5    H     H_    0.139056 0.283511 0.127244 0.199388
H6    H     H_    0.902623 0.849211 0.755423 0.186250
H7    H     H_    0.881119 0.390054 0.276814 0.235681
H8    H     H_    0.121623 0.641540 0.712543 0.165682
N1    N     N_1   0.500020 0.500030 0.073640 0.033389
N2    N     N_1   0.499980 0.499970 0.926360 0.025185
O1    O     O_R   0.499990 0.285340 0.636850 -0.559984
O2    O     O_R   0.500010 0.714660 0.363150 -0.625673
O3    O     O_R   0.500010 0.285350 0.363100 -0.576884
O4    O     O_R   0.499990 0.714650 0.636900 -0.629953
O5    O     O_R   0.316750 0.500000 0.636870 -0.588345
O6    O     O_R   0.683250 0.500000 0.363130 -0.581498
O7    O     O_R   0.316770 0.500020 0.363120 -0.633865
O8    O     O_R   0.683230 0.499980 0.636880 -0.626499
Zn1   Zn    Zn3+2 0.499990 0.499990 0.682780 1.061716
Zn2   Zn    Zn3+2 0.500010 0.500010 0.317220 1.057385
F1    F     F_    0.198728 0.859157 0.019022 -0.633400
F2    F     F_    0.726876 0.405306 0.085937 -0.641393
F3    F     F_    0.279895 0.344518 0.891129 -0.616383
F4    F     F_    0.783215 0.934726 0.009693 -0.624644

loop_
_geom_bond_atom_site_label_1
_geom_bond_atom_site_label_2
_ccdc_geom_bond_type
C24   H8    S    
C18   H6    S    
C10   O8    A    
C17   H5    S    
C2    O4    A    
O6    Zn2   S    
C3    C23   A    
C1    O3    A    
C14   H4    S    
C16   C18   A    
O3    Zn2   S    
N1    N2    T    
C6    C15   S    
O4    Zn1   S    
C3    C10   S    
C11   C13   A    
C20   F4    S    
C5    C24   A    
C6    C23   A    
C4    C6    A    
C19   C21   A    
C12   C14   A    
C19   F3    S    
C13   C15   A    
C4    C24   A    
O7    Zn2   S    
C14   C16   A    
C11   F1    S    
O2    Zn2   S    
O8    Zn1   S    
C12   C22   A    
C7    C8    T    
O1    Zn1   S    
C1    O1    A    
C18   C20   A    
C10   O6    A    
C22   H2    S    
C2    O2    A    
C15   C17   A    
C21   H1    S    
C13   H3    S    
C5    C16   S    
O5    Zn1   S    
C17   C19   A    
C4    C9    S    
C1    C7    S    
N1    Zn2   S    
C9    O7    A    
C11   C21   A    
C9    O5    A    
C2    C8    S    
N2    Zn1   S    
C20   C22   A    
C3    C5    A    
C12   F2    S    
C23   H7    S    
