data_mof_unit_23684.cif
_audit_creation_date              2012-10-26T19:02:37-0400
_audit_creation_method            fapswitch 2.2
_symmetry_space_group_name_H-M    P1
_symmetry_Int_Tables_number       1
_space_group_crystal_system       triclinic
_cell_length_a                    17.130189
_cell_length_b                    8.782712
_cell_length_c                    7.466522
_cell_angle_alpha                 102.428734
_cell_angle_beta                  89.249999
_cell_angle_gamma                 93.123493
_cell_volume                      1095.37790547

loop_
_atom_site_label
_atom_site_type_symbol
_atom_type_description
_atom_site_fract_x
_atom_site_fract_y
_atom_site_fract_z
_atom_type_partial_charge
C1    C     C_R   0.495838 0.200530 0.454632 0.592476
C2    C     C_R   0.782557 0.618867 0.529435 0.195209
C3    C     C_R   0.142927 0.332315 0.442540 0.249844
C4    C     C_R   0.863701 0.609560 0.511966 0.248741
C5    C     C_R   0.102060 0.442341 0.569242 -0.041663
C6    C     C_R   0.895199 0.472044 0.411341 -0.057805
C7    C     C_R   0.143314 0.554348 0.702291 0.256882
C8    C     C_R   0.845775 0.347246 0.320203 0.250569
C9    C     C_R   0.225154 0.568190 0.695345 0.201699
C10   C     C_R   0.764576 0.356067 0.338474 0.216743
C11   C     C_2   0.016354 0.443609 0.562969 0.000844
C12   C     C_R   0.501022 0.799089 0.544534 0.571599
C13   C     C_2   0.979869 0.455253 0.409443 0.001760
C14   C     C_3   0.447459 0.916012 0.146876 -0.022039
C15   C     C_3   0.366199 0.985002 0.693438 -0.138238
C16   C     C_3   0.365129 0.328152 0.960767 0.036789
C17   C     C_3   0.630245 0.693878 0.030778 0.048886
C18   C     C_2   0.497945 0.033653 0.425602 0.260707
C19   C     C_2   0.486386 0.962066 0.566802 0.271008
C20   C     C_R   0.350739 0.495654 0.527856 0.559220
C21   C     C_R   0.648789 0.497210 0.471966 0.602147
C22   C     C_R   0.265671 0.472421 0.551329 -0.051171
C23   C     C_R   0.733177 0.490666 0.446514 -0.048895
C24   C     C_R   0.224666 0.346103 0.435665 0.197121
Cl1   Cl    Cl    0.275449 0.193336 0.298210 -0.602409
Cl2   Cl    Cl    0.742837 0.793514 0.650188 -0.462203
Cl3   Cl    Cl    0.702558 0.194605 0.233198 -0.414476
Cl4   Cl    Cl    0.275121 0.703429 0.871735 -0.522616
Cl5   Cl    Cl    0.092390 0.682275 0.874763 -0.357916
Cl6   Cl    Cl    0.885585 0.176671 0.189401 -0.320497
Cl7   Cl    Cl    0.925845 0.771789 0.613621 -0.324644
Cl8   Cl    Cl    0.092367 0.171626 0.298780 -0.337294
Cu1   Cu    Cu3+1 0.508700 0.517250 0.683000 1.128950
Cu2   Cu    Cu3+1 0.491300 0.482750 0.317000 1.144329
H1    H     H_    0.011876 0.451435 0.282078 0.202376
H2    H     H_    0.301712 0.339388 0.988420 0.181514
H3    H     H_    0.387081 0.244706 0.038032 0.160366
H4    H     H_    0.620682 0.755348 0.174590 0.182149
H5    H     H_    0.607764 0.761693 0.934820 0.180812
H6    H     H_    0.694332 0.688505 0.009677 0.178485
H7    H     H_    0.983289 0.451273 0.689626 0.196129
H8    H     H_    0.427569 0.020077 0.103373 0.175429
H9    H     H_    0.399330 0.864975 0.221125 0.157929
H10   H     H_    0.459596 0.828127 0.021122 0.199371
H11   H     H_    0.356001 0.857532 0.637561 0.167124
H12   H     H_    0.339801 0.049377 0.598499 0.151637
H13   H     H_    0.334780 0.012103 0.826150 0.192338
H14   H     H_    0.371950 0.284617 0.811934 0.143571
N1    N     N_2   0.478180 0.456750 0.041980 0.103129
N2    N     N_2   0.521820 0.543250 0.958020 0.072400
O1    O     O_R   0.505650 0.286040 0.618880 -0.486192
O2    O     O_3   0.446367 0.031978 0.722187 -0.615460
O3    O     O_3   0.402795 0.475950 0.009439 -0.446881
O4    O     O_3   0.597382 0.540486 0.003236 -0.451678
O5    O     O_R   0.494350 0.713960 0.381120 -0.520371
O6    O     O_R   0.490960 0.256910 0.309800 -0.489259
O7    O     O_R   0.509040 0.743090 0.690200 -0.518544
O8    O     O_R   0.394600 0.516230 0.672450 -0.476720
O9    O     O_R   0.605400 0.483770 0.327550 -0.450361
O10   O     O_R   0.379910 0.487100 0.363380 -0.464979
O11   O     O_R   0.620090 0.512900 0.636620 -0.467495
O12   O     O_3   0.516912 0.952253 0.251301 -0.590475

loop_
_geom_bond_atom_site_label_1
_geom_bond_atom_site_label_2
_ccdc_geom_bond_type
C10   Cl3   S    
C2    C4    A    
Cu2   O6    S    
Cu1   O8    S    
C7    Cl5   S    
Cu1   O7    S    
C10   C23   A    
Cu1   O1    S    
C11   C13   D    
C21   O11   A    
C15   H13   S    
C16   H3    S    
C14   H8    S    
C8    Cl6   S    
C16   H14   S    
Cu1   Cu2   S    
C1    C18   S    
Cu2   O5    S    
C2    Cl2   S    
C15   O2    S    
C16   H2    S    
C6    C13   S    
Cu2   O10   S    
C1    O1    A    
C3    C24   A    
N2    O4    S    
N1    O3    S    
C12   O7    A    
C17   O4    S    
C12   C19   S    
Cu1   O11   S    
C1    O6    A    
C20   C22   S    
C21   O9    A    
C17   H4    S    
C21   C23   S    
C5    C11   S    
C3    Cl8   S    
N1    N2    D    
C22   C24   A    
C9    C22   A    
C4    Cl7   S    
C20   O10   A    
C15   H11   S    
C20   O8    A    
C12   O5    A    
C7    C9    A    
C13   H1    S    
C24   Cl1   S    
C14   H10   S    
C18   C19   D    
C17   H5    S    
C11   H7    S    
C2    C23   A    
C5    C7    A    
C16   O3    S    
C18   O12   S    
Cu2   N1    S    
C6    C8    A    
C15   H12   S    
Cu1   N2    S    
Cu2   O9    S    
C4    C6    A    
C19   O2    S    
C8    C10   A    
C9    Cl4   S    
C14   H9    S    
C3    C5    A    
C17   H6    S    
C14   O12   S    
