data_mof_unit_53563.cif
_audit_creation_date              2013-03-05T15:49:30-0500
_audit_creation_method            fapswitch 2.2
_symmetry_space_group_name_H-M    P1
_symmetry_Int_Tables_number       1
_space_group_crystal_system       triclinic
_cell_length_a                    18.447636
_cell_length_b                    18.42879
_cell_length_c                    34.248269
_cell_angle_alpha                 89.997781
_cell_angle_beta                  90.005887
_cell_angle_gamma                 89.996377
_cell_volume                      11643.3020596

loop_
_atom_site_label
_atom_site_type_symbol
_atom_site_description
_atom_site_fract_x
_atom_site_fract_y
_atom_site_fract_z
_atom_type_partial_charge
Zn1   Zn    Zn3+2 0.000000 0.586740 0.782740 1.027332
Zn2   Zn    Zn3+2 0.000000 0.413260 0.217260 1.027483
Zn3   Zn    Zn3+2 0.413260 0.000000 0.782740 1.025137
Zn4   Zn    Zn3+2 0.586740 0.000000 0.217260 1.024585
Zn5   Zn    Zn3+2 0.000000 0.413260 0.782740 1.027625
Zn6   Zn    Zn3+2 0.000000 0.586740 0.217260 1.027889
Zn7   Zn    Zn3+2 0.586740 0.000000 0.782740 1.031340
Zn8   Zn    Zn3+2 0.413260 0.000000 0.217260 1.030947
Zn9   Zn    Zn3+2 0.500000 0.086740 0.282740 1.027514
Zn10  Zn    Zn3+2 0.500000 0.913260 0.717260 1.027741
Zn11  Zn    Zn3+2 0.913260 0.500000 0.282740 1.030300
Zn12  Zn    Zn3+2 0.086740 0.500000 0.717260 1.029388
Zn13  Zn    Zn3+2 0.500000 0.913260 0.282740 1.027519
Zn14  Zn    Zn3+2 0.500000 0.086740 0.717260 1.027599
Zn15  Zn    Zn3+2 0.086740 0.500000 0.282740 1.025689
Zn16  Zn    Zn3+2 0.913260 0.500000 0.717260 1.027044
C1    C     C_R   0.632541 0.992390 0.520093 0.192028
C2    C     C_R   0.367399 0.993707 0.479935 0.192209
C3    C     C_R   0.940120 0.617205 0.521262 0.194138
C4    C     C_R   0.998743 0.360354 0.479850 0.194886
C5    C     C_R   0.367450 0.007492 0.520056 0.192079
C6    C     C_R   0.632629 0.006154 0.479968 0.192134
C7    C     C_R   0.010323 0.361755 0.520412 0.192476
C8    C     C_R   0.932725 0.614392 0.480110 0.190569
C9    C     C_R   0.132839 0.503461 0.020438 0.192603
C10   C     C_R   0.867154 0.502978 0.979567 0.192521
C11   C     C_R   0.491814 0.130958 0.019871 0.196185
C12   C     C_R   0.510876 0.866046 0.980471 0.196489
C13   C     C_R   0.867157 0.496605 0.020416 0.193247
C14   C     C_R   0.132855 0.497086 0.979589 0.193169
C15   C     C_R   0.489225 0.866040 0.019531 0.196445
C16   C     C_R   0.508185 0.130959 0.980122 0.196164
O1    O     O_3   0.000000 0.500000 0.750000 -0.528449
O2    O     O_3   0.000000 0.500000 0.250000 -0.528255
O3    O     O_3   0.500000 0.000000 0.750000 -0.530496
O4    O     O_3   0.500000 0.000000 0.250000 -0.530605
O5    O     O_R   0.060740 0.500000 0.662560 -0.627154
O6    O     O_R   0.939260 0.500000 0.337440 -0.626141
O7    O     O_R   0.500000 0.060740 0.662560 -0.633756
O8    O     O_R   0.500000 0.939260 0.337440 -0.634429
O9    O     O_R   0.939260 0.500000 0.662560 -0.634894
O10   O     O_R   0.060740 0.500000 0.337440 -0.635796
O11   O     O_R   0.500000 0.939260 0.662560 -0.634485
O12   O     O_R   0.500000 0.060740 0.337440 -0.633761
O13   O     O_R   0.560740 0.000000 0.162560 -0.635914
O14   O     O_R   0.439260 0.000000 0.837440 -0.635775
O15   O     O_R   0.000000 0.560740 0.162560 -0.633312
O16   O     O_R   1.000000 0.439260 0.837440 -0.632557
O17   O     O_R   0.439260 0.000000 0.162560 -0.625279
O18   O     O_R   0.560740 0.000000 0.837440 -0.625644
O19   O     O_R   0.000000 0.439260 0.162560 -0.632176
O20   O     O_R   1.000000 0.560740 0.837440 -0.633236
O21   O     O_R   0.853850 0.585450 0.727070 -0.573070
O22   O     O_R   0.146150 0.414550 0.272930 -0.609701
O23   O     O_R   0.414550 0.853850 0.727070 -0.575078
O24   O     O_R   0.585450 0.146150 0.272930 -0.604054
O25   O     O_R   0.146150 0.414550 0.727070 -0.574627
O26   O     O_R   0.853850 0.585450 0.272930 -0.609456
O27   O     O_R   0.585450 0.146150 0.727070 -0.575613
O28   O     O_R   0.414550 0.853850 0.272930 -0.605964
O29   O     O_R   0.853850 0.414550 0.272930 -0.574986
O30   O     O_R   0.146150 0.585450 0.727070 -0.609037
O31   O     O_R   0.414550 0.146150 0.272930 -0.575486
O32   O     O_R   0.585450 0.853850 0.727070 -0.606850
O33   O     O_R   0.146150 0.585450 0.272930 -0.574017
O34   O     O_R   0.853850 0.414550 0.727070 -0.608335
O35   O     O_R   0.585450 0.853850 0.272930 -0.574998
O36   O     O_R   0.414550 0.146150 0.727070 -0.604476
O37   O     O_R   0.353850 0.085450 0.227070 -0.574236
O38   O     O_R   0.646150 0.914550 0.772930 -0.605070
O39   O     O_R   0.914550 0.353850 0.227070 -0.574951
O40   O     O_R   0.085450 0.646150 0.772930 -0.608603
O41   O     O_R   0.646150 0.914550 0.227070 -0.574063
O42   O     O_R   0.353850 0.085450 0.772930 -0.606504
O43   O     O_R   0.085450 0.646150 0.227070 -0.574620
O44   O     O_R   0.914550 0.353850 0.772930 -0.608336
O45   O     O_R   0.353850 0.914550 0.772930 -0.574206
O46   O     O_R   0.646150 0.085450 0.227070 -0.606135
O47   O     O_R   0.914550 0.646150 0.772930 -0.574630
O48   O     O_R   0.085450 0.353850 0.227070 -0.608290
O49   O     O_R   0.646150 0.085450 0.772930 -0.574488
O50   O     O_R   0.353850 0.914550 0.227070 -0.605068
O51   O     O_R   0.085450 0.353850 0.772930 -0.574723
O52   O     O_R   0.914550 0.646150 0.227070 -0.608576
C17   C     C_R   0.434099 0.991061 0.582254 0.116736
C18   C     C_R   0.565817 0.990369 0.417768 0.116321
C19   C     C_R   0.991308 0.428755 0.582933 0.116788
C20   C     C_R   0.981410 0.560728 0.418716 0.125391
C21   C     C_R   0.565869 0.008947 0.582260 0.116656
C22   C     C_R   0.434223 0.009558 0.417757 0.116685
C23   C     C_R   0.996523 0.561164 0.580350 0.108834
C24   C     C_R   0.009889 0.430579 0.417885 0.104656
C25   C     C_R   0.935860 0.516781 0.081836 0.105395
C26   C     C_R   0.064073 0.517032 0.918172 0.105084
C27   C     C_R   0.496982 0.931832 0.082760 0.125946
C28   C     C_R   0.493849 0.064987 0.917829 0.104796
C29   C     C_R   0.064131 0.483242 0.081842 0.104777
C30   C     C_R   0.935942 0.482982 0.918168 0.104675
C31   C     C_R   0.506154 0.064985 0.082167 0.104829
C32   C     C_R   0.503070 0.931835 0.917240 0.126292
C33   C     C_R   0.499987 0.000001 0.602225 -0.037360
C34   C     C_R   0.500023 0.999985 0.397789 -0.037659
C35   C     C_R   0.998612 0.496296 0.601788 -0.037178
C36   C     C_R   0.998631 0.496895 0.398309 -0.038918
C37   C     C_R   0.999995 0.500005 0.102033 -0.043379
C38   C     C_R   0.000008 0.499999 0.897973 -0.043717
C39   C     C_R   0.500346 0.998955 0.102294 -0.032520
C40   C     C_R   0.499662 0.998958 0.897704 -0.032792
C41   C     C_R   0.566932 0.999077 0.541307 0.063909
C42   C     C_R   0.433070 0.999723 0.458715 0.063979
C43   C     C_R   0.974198 0.558277 0.540863 0.067547
C44   C     C_R   0.996442 0.426569 0.458685 0.066034
C45   C     C_R   0.433052 0.000867 0.541292 0.063849
C46   C     C_R   0.566963 0.000174 0.458729 0.063990
C47   C     C_R   0.996367 0.426539 0.541580 0.064504
C48   C     C_R   0.966155 0.556804 0.459166 0.060859
C49   C     C_R   0.066677 0.496626 0.041208 0.066590
C50   C     C_R   0.933342 0.496374 0.958800 0.066591
C51   C     C_R   0.497650 0.065423 0.041213 0.064279
C52   C     C_R   0.506471 0.931336 0.958664 0.056226
C53   C     C_R   0.933317 0.503420 0.041198 0.066704
C54   C     C_R   0.066669 0.503667 0.958809 0.066673
C55   C     C_R   0.493591 0.931333 0.041336 0.056278
C56   C     C_R   0.502360 0.065425 0.958782 0.064254
C57   C     C_R   0.999906 0.499726 0.644342 0.822277
C58   C     C_R   0.999934 0.498958 0.355662 0.823227
C59   C     C_R   0.499999 0.000001 0.644519 0.824471
C60   C     C_R   0.500019 0.999997 0.355486 0.824399
C61   C     C_R   0.500024 0.000428 0.144558 0.820862
C62   C     C_R   0.499977 0.000430 0.855441 0.821022
C63   C     C_R   0.999997 0.500001 0.144431 0.824860
C64   C     C_R   0.000004 0.499999 0.855571 0.824750
C65   C     C_R   0.859427 0.640104 0.750163 0.833921
C66   C     C_R   0.139724 0.360168 0.249924 0.904401
C67   C     C_R   0.359890 0.859351 0.750186 0.832877
C68   C     C_R   0.639885 0.139831 0.250032 0.893802
C69   C     C_R   0.140208 0.359615 0.749971 0.835630
C70   C     C_R   0.860248 0.639762 0.249927 0.906259
C71   C     C_R   0.640135 0.140600 0.750189 0.830990
C72   C     C_R   0.360134 0.860233 0.249999 0.900592
C73   C     C_R   0.859821 0.359602 0.250044 0.835962
C74   C     C_R   0.139742 0.639781 0.750065 0.906581
C75   C     C_R   0.359928 0.140664 0.249773 0.830917
C76   C     C_R   0.639884 0.860281 0.749989 0.903516
C77   C     C_R   0.140385 0.640271 0.249927 0.835950
C78   C     C_R   0.860287 0.360159 0.750065 0.905021
C79   C     C_R   0.640106 0.859339 0.249811 0.831776
C80   C     C_R   0.360117 0.139810 0.749970 0.895803
H1    H     H_    0.039162 0.880819 0.785199 0.181742
H2    H     H_    0.931405 0.141740 0.171270 0.181660
H3    H     H_    0.118959 0.040941 0.788937 0.180180
H4    H     H_    0.863142 0.933082 0.174876 0.179628
H5    H     H_    0.960355 0.119244 0.786587 0.181714
H6    H     H_    0.067502 0.860368 0.172867 0.181565
H7    H     H_    0.881243 0.959534 0.787132 0.180906
H8    H     H_    0.139220 0.067532 0.173085 0.180850
H9    H     H_    0.040261 0.119549 0.212405 0.181699
H10   H     H_    0.932921 0.860456 0.826524 0.181264
H11   H     H_    0.119280 0.959786 0.211957 0.181116
H12   H     H_    0.861819 0.066797 0.826036 0.180788
H13   H     H_    0.960988 0.880537 0.214808 0.182065
H14   H     H_    0.068042 0.140828 0.827978 0.181638
H15   H     H_    0.880878 0.041438 0.210143 0.180004
H16   H     H_    0.137053 0.933300 0.825110 0.179891
H17   H     H_    0.543743 0.382753 0.289463 0.178463
H18   H     H_    0.434830 0.630460 0.679201 0.181237
H19   H     H_    0.620656 0.534018 0.280834 0.184152
H20   H     H_    0.357818 0.433167 0.672630 0.182867
H21   H     H_    0.460407 0.617349 0.284003 0.180624
H22   H     H_    0.564619 0.369118 0.679780 0.178962
H23   H     H_    0.380617 0.465138 0.280038 0.183235
H24   H     H_    0.633482 0.564232 0.678034 0.181600
H25   H     H_    0.537269 0.617955 0.718528 0.181466
H26   H     H_    0.434780 0.369215 0.320723 0.178730
H27   H     H_    0.618493 0.464632 0.720857 0.182608
H28   H     H_    0.362736 0.565345 0.324185 0.181854
H29   H     H_    0.457159 0.383166 0.712321 0.178525
H30   H     H_    0.565365 0.630268 0.320854 0.180462
H31   H     H_    0.379714 0.534296 0.719345 0.183738
H32   H     H_    0.643875 0.432148 0.328776 0.183234
C81   C     C_R   0.296441 0.604103 0.742314 0.602739
C82   C     C_R   0.724924 0.364238 0.302050 0.626924
C83   C     C_R   0.392152 0.297465 0.736777 0.609175
C84   C     C_R   0.629560 0.715944 0.295662 0.640051
C85   C     C_R   0.703300 0.395473 0.742675 0.603248
C86   C     C_R   0.279466 0.632493 0.298942 0.630966
C87   C     C_R   0.605430 0.703100 0.740840 0.607464
C88   C     C_R   0.370193 0.283703 0.295724 0.641425
C89   C     C_R   0.296572 0.395754 0.257558 0.601809
C90   C     C_R   0.718065 0.630695 0.702477 0.629773
C91   C     C_R   0.393592 0.702753 0.260716 0.608030
C92   C     C_R   0.629771 0.283594 0.704328 0.640471
C93   C     C_R   0.703605 0.603983 0.257657 0.601714
C94   C     C_R   0.276188 0.365142 0.698734 0.627810
C95   C     C_R   0.608224 0.297432 0.264210 0.609638
C96   C     C_R   0.370370 0.716078 0.704254 0.638680
C97   C     C_R   0.797059 0.106960 0.236059 0.608038
C98   C     C_R   0.220733 0.867415 0.799329 0.633648
C99   C     C_R   0.893164 0.796953 0.239192 0.602882
C100  C     C_R   0.134574 0.222862 0.801094 0.628172
C101  C     C_R   0.202969 0.893227 0.237241 0.606584
C102  C     C_R   0.778591 0.133024 0.800037 0.630598
C103  C     C_R   0.107279 0.202898 0.237693 0.603370
C104  C     C_R   0.866112 0.777753 0.800446 0.628720
C105  C     C_R   0.797153 0.892933 0.762284 0.605900
C106  C     C_R   0.222138 0.133638 0.199453 0.630727
C107  C     C_R   0.893064 0.202841 0.761751 0.603164
C108  C     C_R   0.133950 0.777787 0.199344 0.628093
C109  C     C_R   0.202910 0.106796 0.763402 0.607726
C110  C     C_R   0.779361 0.867409 0.200715 0.633928
C111  C     C_R   0.106848 0.797026 0.760907 0.602632
C112  C     C_R   0.864936 0.223438 0.198500 0.627876
C113  C     C_R   0.359300 0.589180 0.721138 -0.322253
C114  C     C_R   0.654373 0.389519 0.307768 -0.311959
C115  C     C_R   0.403660 0.359928 0.714514 -0.323474
C116  C     C_R   0.607250 0.643878 0.299984 -0.322310
C117  C     C_R   0.639787 0.410118 0.721995 -0.321732
C118  C     C_R   0.350642 0.608147 0.303537 -0.315562
C119  C     C_R   0.591441 0.639890 0.719733 -0.322013
C120  C     C_R   0.392967 0.355630 0.299826 -0.313840
C121  C     C_R   0.359747 0.410456 0.278519 -0.322821
C122  C     C_R   0.646483 0.607269 0.698372 -0.317243
C123  C     C_R   0.406480 0.639789 0.282303 -0.322551
C124  C     C_R   0.606677 0.355455 0.700522 -0.313423
C125  C     C_R   0.640844 0.588987 0.278900 -0.322076
C126  C     C_R   0.346880 0.390344 0.693457 -0.312035
C127  C     C_R   0.597180 0.359496 0.286870 -0.323302
C128  C     C_R   0.392791 0.644048 0.699991 -0.324301
C129  C     C_R   0.858636 0.095350 0.213164 -0.322159
C130  C     C_R   0.149337 0.891078 0.804170 -0.309755
C131  C     C_R   0.906594 0.859115 0.217059 -0.320980
C132  C     C_R   0.110304 0.151872 0.806867 -0.309816
C133  C     C_R   0.141126 0.905609 0.214683 -0.321679
C134  C     C_R   0.849886 0.109194 0.805125 -0.310826
C135  C     C_R   0.094540 0.141135 0.215099 -0.321426
C136  C     C_R   0.890424 0.848901 0.805629 -0.310969
C137  C     C_R   0.859222 0.905397 0.784645 -0.321409
C138  C     C_R   0.150916 0.109777 0.194121 -0.310621
C139  C     C_R   0.906044 0.140818 0.784098 -0.321429
C140  C     C_R   0.109884 0.848947 0.193855 -0.312110
C141  C     C_R   0.141146 0.094911 0.786103 -0.322354
C142  C     C_R   0.850798 0.890950 0.195857 -0.309496
C143  C     C_R   0.093508 0.859277 0.782986 -0.321319
C144  C     C_R   0.889255 0.152535 0.192483 -0.309113
C145  C     C_R   0.499998 0.999963 0.520667 -0.101575
C146  C     C_R   0.500011 0.999953 0.479353 -0.101500
C147  C     C_R   0.983027 0.491741 0.520630 -0.098410
C148  C     C_R   0.981770 0.491566 0.479429 -0.100494
C149  C     C_R   0.999999 0.500024 0.020566 -0.098567
C150  C     C_R   0.000004 0.500023 0.979442 -0.098490
C151  C     C_R   0.498488 0.998310 0.020700 -0.099813
C152  C     C_R   0.501545 0.998312 0.979298 -0.099868
C153  C     C_R   0.315391 0.733224 0.732160 -0.119091
C154  C     C_R   0.679363 0.267595 0.261488 -0.125027
C155  C     C_R   0.262549 0.312321 0.728457 -0.121870
C156  C     C_R   0.731225 0.676275 0.257248 -0.128584
C157  C     C_R   0.684837 0.266495 0.732163 -0.123438
C158  C     C_R   0.322000 0.731802 0.259429 -0.125817
C159  C     C_R   0.734512 0.685444 0.730803 -0.122110
C160  C     C_R   0.268715 0.323584 0.257250 -0.128602
C161  C     C_R   0.315299 0.266686 0.267774 -0.123165
C162  C     C_R   0.677274 0.731560 0.741403 -0.125166
C163  C     C_R   0.264281 0.686373 0.270008 -0.121949
C164  C     C_R   0.731359 0.323393 0.742738 -0.128616
C165  C     C_R   0.684532 0.733120 0.267763 -0.119687
C166  C     C_R   0.320924 0.267734 0.739011 -0.125073
C167  C     C_R   0.737956 0.311924 0.271990 -0.121591
C168  C     C_R   0.268739 0.676359 0.742687 -0.128124
C169  C     C_R   0.812701 0.236849 0.228542 -0.122894
C170  C     C_R   0.178480 0.767954 0.759788 -0.127531
C171  C     C_R   0.763849 0.813311 0.229517 -0.123465
C172  C     C_R   0.231989 0.178333 0.760781 -0.125633
C173  C     C_R   0.187002 0.763484 0.228869 -0.121770
C174  C     C_R   0.821476 0.231977 0.760249 -0.126798
C175  C     C_R   0.236811 0.187120 0.228726 -0.121560
C176  C     C_R   0.767917 0.821373 0.760405 -0.126324
C177  C     C_R   0.812829 0.763247 0.771073 -0.122143
C178  C     C_R   0.178807 0.232147 0.239422 -0.126966
C179  C     C_R   0.763602 0.186761 0.770943 -0.121595
C180  C     C_R   0.232026 0.821612 0.239425 -0.125700
C181  C     C_R   0.187100 0.236619 0.771243 -0.122636
C182  C     C_R   0.821515 0.767922 0.240267 -0.127572
C183  C     C_R   0.236177 0.813320 0.770518 -0.123325
C184  C     C_R   0.767938 0.178449 0.238962 -0.125638
C185  C     C_R   0.303861 0.801941 0.750854 -0.141055
C186  C     C_R   0.695932 0.195502 0.250171 -0.134943
C187  C     C_R   0.196571 0.302800 0.749875 -0.145854
C188  C     C_R   0.804098 0.695012 0.249275 -0.133977
C189  C     C_R   0.696206 0.197921 0.750943 -0.141481
C190  C     C_R   0.304420 0.804363 0.249726 -0.134745
C191  C     C_R   0.802232 0.696218 0.750602 -0.146049
C192  C     C_R   0.195919 0.304913 0.249072 -0.133557
C193  C     C_R   0.304019 0.198149 0.248914 -0.141298
C194  C     C_R   0.695389 0.804242 0.750435 -0.134457
C195  C     C_R   0.197188 0.696740 0.249665 -0.145614
C196  C     C_R   0.804199 0.304801 0.750822 -0.133626
C197  C     C_R   0.696117 0.801898 0.249130 -0.140552
C198  C     C_R   0.304118 0.195496 0.749889 -0.134846
C199  C     C_R   0.803533 0.302741 0.250191 -0.145668
C200  C     C_R   0.195876 0.695059 0.750714 -0.134136
O53   O     O_3   0.263415 0.547388 0.761911 -0.587798
C201  C     C_3   0.275101 0.556078 0.802325 -0.388901
H33   H     H_    0.247178 0.605196 0.813734 0.161216
H34   H     H_    0.334032 0.558213 0.809301 0.166389
H35   H     H_    0.251974 0.508394 0.817681 0.181921
O54   O     O_3   0.776860 0.386919 0.328665 -0.563496
C202  C     C_3   0.806353 0.326356 0.348296 -0.304249
H36   H     H_    0.842149 0.294194 0.328779 0.145530
H37   H     H_    0.763172 0.291228 0.360934 0.148125
H38   H     H_    0.840290 0.346235 0.372817 0.190261
O55   O     O_3   0.450704 0.268002 0.756414 -0.583291
C203  C     C_3   0.444116 0.284195 0.796488 -0.384898
H39   H     H_    0.395986 0.257174 0.809585 0.157907
H40   H     H_    0.441731 0.343853 0.801517 0.167102
H41   H     H_    0.492807 0.263240 0.811810 0.183682
O56   O     O_3   0.606758 0.764187 0.324031 -0.560782
C204  C     C_3   0.665104 0.778466 0.349603 -0.330998
H42   H     H_    0.702618 0.818927 0.336518 0.158849
H43   H     H_    0.695404 0.728383 0.357882 0.151497
H44   H     H_    0.643106 0.801412 0.377052 0.195494
O57   O     O_3   0.736410 0.452162 0.762244 -0.586529
C205  C     C_3   0.724695 0.443520 0.802655 -0.389358
H45   H     H_    0.752423 0.394282 0.814062 0.161408
H46   H     H_    0.665757 0.441624 0.809626 0.166250
H47   H     H_    0.748015 0.491112 0.818011 0.182385
O58   O     O_3   0.229567 0.609149 0.326433 -0.562986
C206  C     C_3   0.204315 0.669070 0.348214 -0.305380
H48   H     H_    0.165362 0.701982 0.330920 0.150272
H49   H     H_    0.249663 0.703704 0.358949 0.147500
H50   H     H_    0.175201 0.648393 0.374250 0.190340
O59   O     O_3   0.548456 0.735164 0.760646 -0.586725
C207  C     C_3   0.556710 0.721720 0.800927 -0.391286
H51   H     H_    0.606008 0.748626 0.812775 0.158926
H52   H     H_    0.558149 0.662431 0.807174 0.167622
H53   H     H_    0.509230 0.744780 0.816469 0.186958
O60   O     O_3   0.392649 0.235521 0.324214 -0.560244
C208  C     C_3   0.333844 0.220781 0.349398 -0.331502
H54   H     H_    0.302849 0.270594 0.357393 0.151248
H55   H     H_    0.355416 0.198186 0.377032 0.195370
H56   H     H_    0.297054 0.179886 0.336109 0.159312
O61   O     O_3   0.263527 0.452519 0.238010 -0.587024
C209  C     C_3   0.275280 0.443983 0.197595 -0.388480
H57   H     H_    0.247459 0.394853 0.186129 0.161349
H58   H     H_    0.334224 0.441971 0.190646 0.165987
H59   H     H_    0.252087 0.491679 0.182273 0.182126
O62   O     O_3   0.767166 0.604834 0.675270 -0.560715
C210  C     C_3   0.793011 0.662830 0.652283 -0.300433
H60   H     H_    0.829697 0.698739 0.669288 0.146639
H61   H     H_    0.747742 0.694801 0.639332 0.148494
H62   H     H_    0.824979 0.639793 0.627889 0.192033
O63   O     O_3   0.451305 0.733804 0.241071 -0.585100
C211  C     C_3   0.443872 0.719432 0.200837 -0.389351
H63   H     H_    0.395055 0.746416 0.188469 0.157977
H64   H     H_    0.442125 0.660005 0.195009 0.167474
H65   H     H_    0.491877 0.741749 0.185451 0.186297
O64   O     O_3   0.607147 0.235585 0.675786 -0.560591
C212  C     C_3   0.665983 0.220332 0.650715 -0.329013
H66   H     H_    0.702497 0.179319 0.664125 0.158743
H67   H     H_    0.697259 0.269935 0.642671 0.151693
H68   H     H_    0.644407 0.197643 0.623104 0.195338
O65   O     O_3   0.736688 0.547274 0.238081 -0.587785
C213  C     C_3   0.725054 0.555940 0.197661 -0.388806
H69   H     H_    0.666130 0.558028 0.190662 0.166158
H70   H     H_    0.748240 0.508265 0.182322 0.181832
H71   H     H_    0.752949 0.605071 0.186254 0.161213
O66   O     O_3   0.224836 0.388159 0.671883 -0.562842
C214  C     C_3   0.196061 0.327856 0.651730 -0.304404
H72   H     H_    0.159399 0.295624 0.670742 0.146517
H73   H     H_    0.239646 0.292718 0.639499 0.148116
H74   H     H_    0.163250 0.348076 0.626861 0.188716
O67   O     O_3   0.549324 0.268565 0.244622 -0.582394
C215  C     C_3   0.555483 0.285472 0.204613 -0.384042
H75   H     H_    0.603315 0.258458 0.191197 0.157537
H76   H     H_    0.558093 0.345208 0.199892 0.167019
H77   H     H_    0.506497 0.265041 0.189362 0.183377
O68   O     O_3   0.393330 0.764335 0.675924 -0.561163
C216  C     C_3   0.334874 0.779471 0.650572 -0.328650
H78   H     H_    0.297874 0.820149 0.663886 0.158234
H79   H     H_    0.304034 0.729765 0.642230 0.151497
H80   H     H_    0.356830 0.802526 0.623138 0.195375
O69   O     O_3   0.767789 0.048160 0.255598 -0.580778
C217  C     C_3   0.784754 0.054086 0.295608 -0.383915
H81   H     H_    0.758108 0.102109 0.309071 0.155318
H82   H     H_    0.844451 0.056284 0.300319 0.166318
H83   H     H_    0.764034 0.005142 0.310818 0.185932
O70   O     O_3   0.270728 0.891612 0.826563 -0.560060
C218  C     C_3   0.296241 0.832387 0.848801 -0.310030
H84   H     H_    0.334625 0.798618 0.831625 0.150444
H85   H     H_    0.250965 0.798429 0.860214 0.146531
H86   H     H_    0.326163 0.853910 0.874377 0.197641
O71   O     O_3   0.950655 0.766121 0.259141 -0.585743
C219  C     C_3   0.942036 0.779742 0.299384 -0.386819
H87   H     H_    0.893282 0.751945 0.311281 0.155751
H88   H     H_    0.939372 0.839045 0.305474 0.166635
H89   H     H_    0.989937 0.757788 0.315020 0.186868
O72   O     O_3   0.111316 0.274421 0.827775 -0.562583
C220  C     C_3   0.171377 0.303042 0.848163 -0.303213
H90   H     H_    0.204715 0.338632 0.829106 0.146750
H91   H     H_    0.205433 0.259271 0.861085 0.147955
H92   H     H_    0.150970 0.337044 0.872536 0.190005
O73   O     O_3   0.232930 0.951526 0.256912 -0.582870
C221  C     C_3   0.217159 0.944698 0.297021 -0.385795
H93   H     H_    0.244045 0.896277 0.309928 0.155418
H94   H     H_    0.157605 0.942573 0.302229 0.166888
H95   H     H_    0.238498 0.993210 0.312384 0.186166
O74   O     O_3   0.728076 0.108620 0.826967 -0.560768
C222  C     C_3   0.700837 0.167800 0.848648 -0.304532
H96   H     H_    0.664596 0.202346 0.830592 0.145623
H97   H     H_    0.745355 0.200968 0.861478 0.147735
H98   H     H_    0.667916 0.146280 0.873162 0.190209
O75   O     O_3   0.049277 0.232934 0.257556 -0.584893
C223  C     C_3   0.057245 0.218387 0.297746 -0.384837
H99   H     H_    0.105443 0.246432 0.310124 0.158124
H100  H     H_    0.060446 0.158970 0.303435 0.166561
H101  H     H_    0.008786 0.239406 0.313246 0.181973
O76   O     O_3   0.889886 0.726870 0.827377 -0.562707
C224  C     C_3   0.830268 0.699034 0.848442 -0.302329
H102  H     H_    0.796453 0.662858 0.829956 0.147199
H103  H     H_    0.796564 0.743272 0.861165 0.147509
H104  H     H_    0.851199 0.665819 0.873003 0.190355
O77   O     O_3   0.767026 0.951122 0.742589 -0.583546
C225  C     C_3   0.782407 0.944018 0.702450 -0.386378
H105  H     H_    0.755420 0.895495 0.689720 0.155663
H106  H     H_    0.841910 0.941877 0.697078 0.167151
H107  H     H_    0.760894 0.992414 0.687047 0.186362
O78   O     O_3   0.272962 0.109447 0.172633 -0.560831
C226  C     C_3   0.300511 0.168800 0.151206 -0.305692
H108  H     H_    0.336673 0.203057 0.169461 0.145455
H109  H     H_    0.256180 0.202215 0.138366 0.147851
H110  H     H_    0.333593 0.147470 0.126707 0.190128
O79   O     O_3   0.950905 0.233287 0.741933 -0.585507
C227  C     C_3   0.942841 0.219206 0.701701 -0.384324
H111  H     H_    0.894456 0.247169 0.689478 0.157773
H112  H     H_    0.939908 0.159847 0.695807 0.166390
H113  H     H_    0.991128 0.240656 0.686217 0.184957
O80   O     O_3   0.110173 0.726647 0.172565 -0.562654
C228  C     C_3   0.169814 0.698541 0.151622 -0.302366
H114  H     H_    0.203691 0.662698 0.170268 0.146789
H115  H     H_    0.203451 0.742622 0.138694 0.147635
H116  H     H_    0.148912 0.664919 0.127217 0.190289
O81   O     O_3   0.232511 0.048190 0.743839 -0.581515
C229  C     C_3   0.215987 0.054384 0.703787 -0.384518
H117  H     H_    0.242638 0.102592 0.690518 0.155533
H118  H     H_    0.156339 0.056443 0.698885 0.166571
H119  H     H_    0.237034 0.005622 0.688535 0.185988
O82   O     O_3   0.729393 0.891683 0.173486 -0.559840
C230  C     C_3   0.703946 0.832520 0.151184 -0.310331
H120  H     H_    0.665605 0.798640 0.168324 0.149993
H121  H     H_    0.749262 0.798660 0.139732 0.146596
H122  H     H_    0.673992 0.854114 0.125634 0.197747
O83   O     O_3   0.049313 0.766214 0.740997 -0.586076
C231  C     C_3   0.057689 0.780142 0.700771 -0.383958
H123  H     H_    0.106442 0.752519 0.688751 0.157943
H124  H     H_    0.060199 0.839494 0.694796 0.166252
H125  H     H_    0.009747 0.758214 0.685166 0.184051
O84   O     O_3   0.887961 0.275308 0.171932 -0.562603
C232  C     C_3   0.827716 0.304281 0.151843 -0.303843
H126  H     H_    0.794655 0.339697 0.171133 0.146767
H127  H     H_    0.793441 0.260727 0.138882 0.148013
H128  H     H_    0.847903 0.338542 0.127522 0.189807
C233  C     C_3   0.367863 0.965161 0.604766 -0.942448
H129  H     H_    0.383139 0.926321 0.627945 0.253120
H130  H     H_    0.339989 0.011554 0.618944 0.231991
H131  H     H_    0.330259 0.933976 0.585966 0.248866
C234  C     C_3   0.631798 0.963807 0.395262 -0.941967
H132  H     H_    0.616152 0.924912 0.372189 0.254498
H133  H     H_    0.659975 0.009890 0.380965 0.231626
H134  H     H_    0.669233 0.932459 0.414082 0.248819
C235  C     C_3   0.970209 0.362861 0.607059 -0.937731
H135  H     H_    0.926217 0.377044 0.627785 0.248318
H136  H     H_    0.946816 0.318904 0.589037 0.254589
H137  H     H_    0.017433 0.342798 0.624010 0.223592
C236  C     C_3   0.992762 0.632777 0.397933 -0.950639
H138  H     H_    0.044317 0.631529 0.381258 0.231801
H139  H     H_    0.947901 0.643182 0.377050 0.237741
H140  H     H_    0.998447 0.678834 0.418502 0.255839
C237  C     C_3   0.632066 0.034962 0.604770 -0.942225
H141  H     H_    0.616722 0.074064 0.627807 0.253733
H142  H     H_    0.659807 0.988657 0.619115 0.231421
H143  H     H_    0.669813 0.065897 0.585939 0.248985
C238  C     C_3   0.368233 0.036094 0.395243 -0.941961
H144  H     H_    0.383869 0.075019 0.372183 0.254891
H145  H     H_    0.340092 0.990003 0.380931 0.231197
H146  H     H_    0.330769 0.067401 0.414060 0.248662
C239  C     C_3   0.025360 0.630017 0.598960 -0.943523
H147  H     H_    0.079712 0.619301 0.611663 0.250922
H148  H     H_    0.032972 0.674171 0.577347 0.257554
H149  H     H_    0.988809 0.648440 0.622746 0.222213
C240  C     C_3   0.047315 0.369609 0.395730 -0.927171
H150  H     H_    0.090352 0.391259 0.376396 0.256144
H151  H     H_    0.077236 0.332412 0.415272 0.254636
H152  H     H_    0.007537 0.339461 0.377603 0.220598
C241  C     C_3   0.874640 0.554640 0.103423 -0.920657
H153  H     H_    0.834838 0.579811 0.083409 0.252732
H154  H     H_    0.847171 0.516257 0.123561 0.218594
H155  H     H_    0.896275 0.600822 0.120609 0.260781
C242  C     C_3   0.125143 0.555146 0.896593 -0.920027
H156  H     H_    0.164873 0.580412 0.916610 0.252659
H157  H     H_    0.152734 0.516901 0.876427 0.218555
H158  H     H_    0.103331 0.601294 0.879442 0.261017
C243  C     C_3   0.509750 0.862437 0.106095 -0.927228
H159  H     H_    0.534230 0.871784 0.135171 0.225584
H160  H     H_    0.458068 0.833420 0.111329 0.241390
H161  H     H_    0.549877 0.827492 0.091038 0.239769
C244  C     C_3   0.466588 0.131266 0.895564 -0.928031
H162  H     H_    0.422848 0.116044 0.874919 0.249754
H163  H     H_    0.440101 0.171511 0.914805 0.254860
H164  H     H_    0.511436 0.156536 0.878759 0.222398
C245  C     C_3   0.125351 0.445369 0.103432 -0.919535
H165  H     H_    0.103714 0.399173 0.120606 0.260869
H166  H     H_    0.165157 0.420217 0.083419 0.252956
H167  H     H_    0.152816 0.483736 0.123582 0.218479
C246  C     C_3   0.874870 0.444859 0.896589 -0.919029
H168  H     H_    0.896680 0.398700 0.879451 0.261059
H169  H     H_    0.835136 0.419609 0.916608 0.252856
H170  H     H_    0.847283 0.483095 0.876413 0.218495
C247  C     C_3   0.533422 0.131258 0.104427 -0.927776
H171  H     H_    0.577174 0.116025 0.125065 0.249779
H172  H     H_    0.559899 0.171504 0.085183 0.254826
H173  H     H_    0.488584 0.156530 0.121240 0.222421
C248  C     C_3   0.490349 0.862435 0.893908 -0.927733
H174  H     H_    0.465857 0.871772 0.864833 0.225676
H175  H     H_    0.542052 0.833452 0.888671 0.241259
H176  H     H_    0.450250 0.827463 0.908966 0.239825
C249  C     C_3   0.700640 0.959487 0.537491 -0.915119
H177  H     H_    0.688385 0.926221 0.563620 0.251088
H178  H     H_    0.725579 0.921239 0.516314 0.239056
H179  H     H_    0.741199 0.002048 0.544387 0.239820
C250  C     C_3   0.298987 0.961433 0.462561 -0.915378
H180  H     H_    0.310924 0.927984 0.436457 0.251035
H181  H     H_    0.273680 0.923485 0.483766 0.239104
H182  H     H_    0.258834 0.004369 0.455635 0.239661
C251  C     C_3   0.903670 0.678432 0.543678 -0.921979
H183  H     H_    0.932035 0.730451 0.537756 0.239750
H184  H     H_    0.845879 0.683932 0.535520 0.241937
H185  H     H_    0.901468 0.668902 0.575409 0.243821
C252  C     C_3   0.977030 0.288466 0.461724 -0.926164
H186  H     H_    0.947735 0.295891 0.433752 0.247064
H187  H     H_    0.024920 0.252865 0.457547 0.240514
H188  H     H_    0.938262 0.260009 0.481258 0.241150
C253  C     C_3   0.299314 0.040362 0.537420 -0.914064
H189  H     H_    0.311570 0.073845 0.563468 0.251129
H190  H     H_    0.274237 0.078412 0.516184 0.238820
H191  H     H_    0.258862 0.997762 0.544422 0.239818
C254  C     C_3   0.701085 0.038355 0.462610 -0.914372
H192  H     H_    0.726412 0.076295 0.483814 0.238964
H193  H     H_    0.741201 0.995375 0.455710 0.239746
H194  H     H_    0.689202 0.071805 0.436498 0.251187
C255  C     C_3   0.048420 0.296934 0.538409 -0.921951
H195  H     H_    0.077703 0.311489 0.565540 0.247379
H196  H     H_    0.009494 0.252179 0.543916 0.239922
H197  H     H_    0.090956 0.276599 0.518226 0.241066
C256  C     C_3   0.880362 0.666030 0.459970 -0.910104
H198  H     H_    0.868885 0.650875 0.429358 0.255277
H199  H     H_    0.826289 0.663395 0.473978 0.239532
H200  H     H_    0.901155 0.722511 0.461263 0.239893
C257  C     C_3   0.202152 0.529073 0.039942 -0.925336
H201  H     H_    0.191828 0.553979 0.068867 0.246697
H202  H     H_    0.241520 0.483835 0.042730 0.240946
H203  H     H_    0.227483 0.572654 0.022173 0.241558
C258  C     C_3   0.797754 0.528349 0.960058 -0.925486
H204  H     H_    0.807991 0.553266 0.931125 0.246773
H205  H     H_    0.758539 0.482981 0.957281 0.240978
H206  H     H_    0.772277 0.571858 0.977817 0.241539
C259  C     C_3   0.457182 0.198937 0.036485 -0.925161
H207  H     H_    0.426542 0.187731 0.063658 0.247413
H208  H     H_    0.498398 0.241781 0.041550 0.241700
H209  H     H_    0.416579 0.220386 0.015482 0.239943
C260  C     C_3   0.549751 0.798794 0.965926 -0.917130
H210  H     H_    0.594900 0.813689 0.946111 0.246455
H211  H     H_    0.575845 0.769640 0.990616 0.240514
H212  H     H_    0.511694 0.760263 0.951880 0.240416
C261  C     C_3   0.797830 0.471012 0.039904 -0.926037
H213  H     H_    0.772490 0.427444 0.022130 0.241565
H214  H     H_    0.808135 0.446096 0.068831 0.246586
H215  H     H_    0.758476 0.516263 0.042684 0.240507
C262  C     C_3   0.202269 0.471733 0.960098 -0.926233
H216  H     H_    0.227754 0.428237 0.977868 0.241550
H217  H     H_    0.192051 0.446805 0.931167 0.246691
H218  H     H_    0.241470 0.517113 0.957325 0.240560
C263  C     C_3   0.450390 0.798769 0.034078 -0.917080
H219  H     H_    0.405229 0.813643 0.053889 0.246473
H220  H     H_    0.424319 0.769601 0.009389 0.240522
H221  H     H_    0.488469 0.760259 0.048127 0.240401
C264  C     C_3   0.542814 0.198937 0.963507 -0.925240
H222  H     H_    0.573463 0.187728 0.936337 0.247500
H223  H     H_    0.501594 0.241781 0.958436 0.241730
H224  H     H_    0.583409 0.220387 0.984511 0.239925

loop_
_geom_bond_atom_site_label_1
_geom_bond_atom_site_label_2
_geom_bond_distance
_ccdc_geom_bond_type
C20   C36   1.404736 A    
C80   C198  1.456082 S    
C226  H108  1.111064 S    
C96   C128  1.398020 A    
C212  H66   1.111658 S    
C8    C256  1.521236 S    
C91   C123  1.396192 A    
C166  C198  1.416757 A    
C2    C5    1.397382 A    
C256  H198  1.105419 S    
C205  H46   1.113757 S    
C100  O72   1.386354 S    
C39   C61   1.447717 S    
C218  H86   1.108717 S    
Zn4   O4    1.954003 S    
C208  H54   1.115614 S    
Zn6   O43   1.948486 S    
C37   C63   1.452065 S    
Zn13  O28   1.948488 S    
C12   C260  1.516087 S    
C236  H140  1.108016 S    
O40   C74   1.276819 A    
Zn14  O27   1.948486 S    
Zn8   O37   1.947752 S    
C257  H201  1.108326 S    
C109  O81   1.383339 S    
C25   C53   1.414170 A    
C220  H91   1.114033 S    
C257  H203  1.110762 S    
C205  H47   1.109454 S    
C69   C187  1.475552 S    
O8    C60   1.278632 A    
C107  O79   1.383563 S    
C9    C14   1.403930 A    
C234  H134  1.107213 S    
C94   C155  1.430795 A    
H16   C130  1.082203 S    
C232  H126  1.111079 S    
C222  H98   1.109564 S    
C210  H60   1.111367 S    
Zn3   O42   1.947692 S    
C99   C131  1.395810 A    
C216  H80   1.107873 S    
O50   C72   1.277501 A    
C224  H103  1.114059 S    
C102  O74   1.386166 S    
C14   C54   1.418360 A    
C101  O73   1.383360 S    
C232  H128  1.109605 S    
C179  C189  1.434243 A    
O58   C206  1.411722 S    
C67   C185  1.479306 S    
C253  H190  1.111097 S    
C19   C47   1.419949 A    
C29   C37   1.404835 A    
Zn2   O2    1.952608 S    
C233  H130  1.109588 S    
C28   C40   1.402617 A    
O44   C78   1.276166 A    
H12   C134  1.082450 S    
C145  C146  1.414950 A    
H27   C117  1.079372 S    
H11   C133  1.080699 S    
C154  C186  1.417321 A    
C83   C115  1.396956 A    
C32   C40   1.407715 A    
H5    C139  1.081246 S    
C132  C141  1.389749 A    
C173  C180  1.402915 A    
Zn15  O22   1.947753 S    
O9    C57   1.281066 A    
O21   C65   1.284766 A    
C110  C142  1.397393 A    
C219  H88   1.113700 S    
C77   C195  1.476908 S    
O11   C59   1.278576 A    
C247  H172  1.105951 S    
O19   C63   1.280037 A    
C209  H57   1.112399 S    
H9    C135  1.081407 S    
C260  H212  1.108384 S    
C235  H135  1.109460 S    
C96   C153  1.429031 A    
C110  O82   1.385360 S    
C82   O54   1.386893 S    
O15   C63   1.280032 A    
O56   C204  1.412318 S    
C252  H188  1.110943 S    
C261  H215  1.109719 S    
C38   C64   1.452175 S    
C230  H121  1.114494 S    
Zn4   O46   1.947825 S    
C102  C134  1.397459 A    
Zn12  O30   1.947825 S    
H1    C143  1.080945 S    
C262  H218  1.109726 S    
C211  H63   1.112469 S    
O54   C202  1.411911 S    
C106  C138  1.397500 A    
C264  H222  1.108293 S    
C171  C197  1.434182 A    
C23   C239  1.516339 S    
H22   C124  1.081593 S    
C26   C54   1.414173 A    
C227  H111  1.112376 S    
O24   C68   1.279513 A    
C212  H68   1.107891 S    
C241  H154  1.110355 S    
O35   C79   1.286058 A    
O69   C217  1.409772 S    
Zn1   O47   1.948361 S    
C256  H200  1.110210 S    
H26   C120  1.081565 S    
C32   C248  1.526236 S    
C109  C141  1.396737 A    
Zn2   O39   1.948529 S    
Zn3   O45   1.947827 S    
C9    C257  1.517841 S    
C71   C189  1.478722 S    
C208  H56   1.111673 S    
O80   C228  1.411872 S    
C235  H137  1.110184 S    
C6    C254  1.516770 S    
C86   O58   1.385311 S    
C21   C33   1.404300 A    
C165  C197  1.435078 A    
C75   C193  1.478776 S    
C52   C152  1.425186 A    
Zn15  O10   1.933854 S    
C23   C35   1.403402 A    
O60   C208  1.412341 S    
C209  H59   1.109450 S    
C1    C41   1.417071 A    
C155  C166  1.401879 A    
C3    C43   1.422999 A    
C239  H149  1.110720 S    
Zn3   O14   1.933759 S    
C30   C38   1.404890 A    
C215  H77   1.109565 S    
C95   C127  1.397157 A    
C115  C126  1.389655 A    
O76   C224  1.411888 S    
Zn5   O44   1.948488 S    
C236  H138  1.109645 S    
C93   C125  1.395128 A    
C104  C136  1.397122 A    
C113  C128  1.388809 A    
C94   O66   1.386612 S    
C94   C126  1.396118 A    
C245  H165  1.109105 S    
O17   C61   1.279399 A    
C104  C177  1.431604 A    
C45   C145  1.422894 A    
C56   C152  1.422520 A    
C3    C8    1.416932 A    
C214  H74   1.109301 S    
C29   C49   1.414143 A    
C263  H219  1.108898 S    
C227  H112  1.113710 S    
O34   C78   1.280210 A    
C14   C262  1.517830 S    
C260  H211  1.111413 S    
C24   C36   1.409291 A    
C31   C51   1.411350 A    
C249  H178  1.111112 S    
C255  H196  1.109754 S    
O57   C205  1.409823 S    
C95   C154  1.425911 A    
C88   O60   1.382731 S    
C100  C132  1.396836 A    
C242  H157  1.110348 S    
Zn12  O1    1.954003 S    
C112  O84   1.386409 S    
O22   C66   1.280348 A    
C160  C192  1.414295 A    
O77   C225  1.409789 S    
C161  C193  1.433839 A    
H29   C115  1.078488 S    
O63   C211  1.409831 S    
C254  H194  1.108035 S    
O73   C221  1.409799 S    
C157  C189  1.433372 A    
C118  C123  1.389299 A    
C259  H207  1.108282 S    
C215  H75   1.112478 S    
C55   C151  1.425192 A    
C86   C118  1.396404 A    
C105  C176  1.426277 A    
C149  C150  1.408419 A    
C253  H189  1.108051 S    
C106  C175  1.431729 A    
C65   C191  1.477417 S    
C29   C245  1.519549 S    
C223  H99   1.112383 S    
C34   C60   1.448784 S    
C90   C122  1.396417 A    
C101  C180  1.426415 A    
H20   C126  1.082735 S    
C102  C179  1.431742 A    
C54   C150  1.420026 A    
C213  H69   1.113777 S    
C103  C178  1.426630 A    
C211  H65   1.109603 S    
H6    C140  1.082627 S    
C203  H39   1.112491 S    
C261  H214  1.108308 S    
C91   C158  1.425724 A    
C245  H167  1.110349 S    
C22   C34   1.404439 A    
H10   C136  1.082583 S    
H13   C131  1.081083 S    
C227  H113  1.109555 S    
C82   C167  1.430813 A    
O84   C232  1.411869 S    
Zn5   O1    1.952535 S    
Zn9   O4    1.952604 S    
C167  C199  1.431662 A    
Zn10  O3    1.952608 S    
Zn11  O26   1.947692 S    
C40   C62   1.447690 S    
O36   C80   1.279550 A    
C73   C199  1.475281 S    
O39   C73   1.284443 A    
O26   C70   1.279211 A    
C41   C145  1.422810 A    
C249  H177  1.108055 S    
C84   C165  1.428903 A    
O30   C74   1.279374 A    
C120  C121  1.388776 A    
O6    C58   1.281603 A    
C30   C50   1.414144 A    
C107  C174  1.426510 A    
Zn4   O13   1.933759 S    
Zn5   O16   1.933703 S    
C201  H34   1.113762 S    
C244  H163  1.105946 S    
Zn1   O40   1.948527 S    
Zn6   O15   1.933703 S    
O25   C69   1.285321 A    
C174  C179  1.403042 A    
C91   O63   1.383420 S    
C175  C178  1.402752 A    
C207  H51   1.112467 S    
C5    C45   1.417124 A    
C12   C52   1.418463 A    
C76   C194  1.454334 S    
C206  H49   1.114640 S    
C129  C144  1.389762 A    
O10   C58   1.283846 A    
C104  O76   1.386411 S    
H21   C123  1.078894 S    
C258  H205  1.109725 S    
C99   C182  1.426444 A    
C88   C161  1.428280 A    
C211  H64   1.113678 S    
C246  H169  1.106330 S    
C263  H221  1.108382 S    
C239  H147  1.110632 S    
Zn10  O23   1.948529 S    
C51   C151  1.422519 A    
H3    C141  1.079927 S    
C81   C168  1.426330 A    
C248  H175  1.107768 S    
C22   C238  1.521626 S    
O79   C227  1.409965 S    
C4    C7    1.405729 A    
Zn3   O3    1.954003 S    
C238  H144  1.105248 S    
C97   O69   1.383355 S    
Zn9   O24   1.948527 S    
C114  C127  1.389780 A    
C240  H151  1.105590 S    
Zn4   O41   1.947693 S    
O28   C72   1.279893 A    
Zn12  O25   1.947693 S    
O29   C73   1.285288 A    
Zn7   O49   1.947843 S    
C8    C48   1.421691 A    
C184  C186  1.417989 A    
C225  H105  1.112461 S    
C135  C138  1.389920 A    
C241  H155  1.109098 S    
C18   C34   1.404497 A    
C172  C198  1.417697 A    
C221  H93   1.112454 S    
C259  H209  1.111091 S    
C93   O65   1.383549 S    
Zn14  O36   1.948431 S    
Zn9   O31   1.948361 S    
C223  H101  1.109533 S    
Zn10  O32   1.948359 S    
C10   C50   1.418330 A    
Zn7   O18   1.933854 S    
C160  C161  1.402755 A    
Zn11  O29   1.947827 S    
O14   C62   1.278522 A    
C177  C191  1.433754 A    
C97   C129  1.396830 A    
C236  H139  1.110414 S    
C178  C192  1.416756 A    
H23   C121  1.080033 S    
C203  H41   1.109568 S    
H30   C116  1.082084 S    
C202  H38   1.109646 S    
H32   C114  1.082778 S    
C168  C200  1.414597 A    
C220  H90   1.111085 S    
C210  H62   1.107295 S    
C21   C237  1.521636 S    
H2    C144  1.082643 S    
C234  H133  1.109625 S    
C215  H76   1.113720 S    
C222  H97   1.114078 S    
C35   C57   1.458963 S    
C216  H79   1.115544 S    
H24   C122  1.082485 S    
C72   C190  1.454885 S    
O83   C231  1.409884 S    
C6    C46   1.417225 A    
C176  C177  1.402557 A    
C225  H107  1.109560 S    
C43   C147  1.417819 A    
C258  H204  1.108339 S    
C249  H179  1.109440 S    
O31   C75   1.286230 A    
C81   C113  1.395144 A    
C229  H117  1.112462 S    
C251  H183  1.110866 S    
C106  O78   1.386234 S    
C229  H118  1.113725 S    
Zn16  O9    1.933854 S    
C228  H114  1.111095 S    
C156  C165  1.403226 A    
O13   C61   1.278513 A    
C217  H81   1.112429 S    
C256  H199  1.108015 S    
C207  H53   1.109576 S    
C239  H148  1.108926 S    
C233  H131  1.107267 S    
Zn7   O38   1.947753 S    
C84   O56   1.382537 S    
C19   C235  1.519514 S    
C17   C33   1.404356 A    
C151  C152  1.419060 A    
C96   O68   1.382663 S    
O41   C79   1.286171 A    
Zn8   O50   1.947844 S    
O42   C80   1.278778 A    
C3    C251  1.521419 S    
C66   C192  1.453368 S    
C253  H191  1.109426 S    
O43   C77   1.285057 A    
Zn13  O35   1.948430 S    
C247  H171  1.108888 S    
C209  H58   1.113760 S    
C84   C116  1.398282 A    
O78   C226  1.411846 S    
C27   C55   1.420116 A    
O67   C215  1.409801 S    
Zn15  O33   1.947843 S    
C155  C187  1.431942 A    
H17   C127  1.078583 S    
C250  H182  1.109444 S    
O48   C66   1.276138 A    
C156  C188  1.414630 A    
C173  C195  1.433670 A    
Zn12  O5    1.933759 S    
C204  H43   1.115605 S    
C174  C196  1.416618 A    
O66   C214  1.411814 S    
Zn13  O8    1.933703 S    
C175  C193  1.434015 A    
Zn14  O7    1.933703 S    
C4    C44   1.419920 A    
C109  C172  1.426173 A    
O12   C60   1.278688 A    
C79   C197  1.479411 S    
C262  H217  1.108326 S    
C13   C53   1.418383 A    
C217  H82   1.113748 S    
C162  C194  1.414769 A    
C1    C6    1.397404 A    
Zn15  O2    1.953813 S    
C107  C139  1.396210 A    
C158  C190  1.415500 A    
C235  H136  1.106105 S    
C205  H45   1.112439 S    
C212  H67   1.115560 S    
H28   C118  1.082586 S    
C241  H153  1.106333 S    
C232  H127  1.114036 S    
C231  H125  1.109535 S    
C208  H55   1.107835 S    
C47   C147  1.420930 A    
C88   C120  1.397617 A    
C153  C168  1.403204 A    
C13   C261  1.517830 S    
C154  C167  1.401840 A    
Zn6   O52   1.948431 S    
C202  H36   1.110962 S    
C111  C143  1.395873 A    
C131  C142  1.389496 A    
O72   C220  1.411876 S    
C92   C124  1.397212 A    
C220  H92   1.109587 S    
C16   C264  1.517043 S    
C49   C149  1.420040 A    
C24   C44   1.421137 A    
C217  H83   1.109541 S    
C218  H85   1.114503 S    
C233  H129  1.105374 S    
C180  C190  1.417348 A    
C230  H120  1.111221 S    
O20   C64   1.280067 A    
Zn11  O6    1.933759 S    
O59   C207  1.409851 S    
C103  C135  1.396274 A    
C237  H141  1.105423 S    
C33   C59   1.448479 S    
C226  H109  1.114092 S    
C101  C133  1.396507 A    
C18   C234  1.521646 S    
O27   C71   1.286433 A    
C258  H206  1.110756 S    
H31   C113  1.080999 S    
C98   C130  1.397263 A    
C17   C233  1.521693 S    
C214  H73   1.114131 S    
C105  C137  1.396499 A    
C27   C39   1.407720 A    
C108  C173  1.431615 A    
C50   C150  1.420001 A    
Zn16  O34   1.947844 S    
C103  O75   1.383540 S    
O51   C69   1.284591 A    
C20   C236  1.521013 S    
C245  H166  1.106336 S    
O81   C229  1.409781 S    
C172  C181  1.402798 A    
O49   C71   1.285216 A    
C237  H142  1.109630 S    
C78   C196  1.453343 S    
C100  C181  1.431296 A    
C89   C160  1.425917 A    
C11   C16   1.394434 A    
C228  H115  1.114045 S    
C90   C159  1.432194 A    
C12   C15   1.396143 A    
O53   C201  1.409900 S    
C2    C42   1.417142 A    
C25   C241  1.519539 S    
C219  H87   1.112414 S    
C171  C182  1.402376 A    
C247  H173  1.110277 S    
C85   C164  1.425608 A    
C86   C163  1.430465 A    
O37   C75   1.285528 A    
C31   C39   1.402620 A    
C87   C162  1.425518 A    
O38   C76   1.277071 A    
C116  C125  1.388831 A    
H8    C138  1.082470 S    
C2    C250  1.516758 S    
C223  H100  1.113737 S    
O70   C218  1.411602 S    
C230  H122  1.108726 S    
C206  H48   1.111269 S    
C252  H187  1.109667 S    
C250  H181  1.111097 S    
C46   C146  1.422879 A    
C213  H70   1.109460 S    
C28   C244  1.525134 S    
C17   C45   1.414578 A    
C203  H40   1.113713 S    
C89   C121  1.395301 A    
Zn1   O20   1.933667 S    
Zn2   O19   1.933667 S    
C105  O77   1.383322 S    
Zn6   O2    1.952535 S    
C15   C263  1.516086 S    
H7    C137  1.080603 S    
H18   C128  1.082235 S    
C251  H185  1.101613 S    
O75   C223  1.409958 S    
C83   O55   1.383331 S    
O74   C222  1.411867 S    
O16   C64   1.280075 A    
C164  C196  1.414035 A    
Zn8   O17   1.933854 S    
C231  H123  1.112433 S    
C85   O57   1.383383 S    
C119  C122  1.388421 A    
C213  H71   1.112341 S    
C181  C187  1.433040 A    
O55   C203  1.409800 S    
C182  C188  1.415570 A    
O82   C230  1.411590 S    
C70   C188  1.452573 S    
C183  C185  1.434124 A    
C157  C164  1.402602 A    
C16   C56   1.415740 A    
C214  H72   1.111010 S    
C221  H94   1.113718 S    
C159  C162  1.403201 A    
C68   C186  1.456613 S    
C108  C140  1.397174 A    
C224  H102  1.111053 S    
C260  H210  1.108905 S    
Zn1   O1    1.952604 S    
O71   C219  1.409960 S    
C87   C119  1.395051 A    
O61   C209  1.409863 S    
C136  C137  1.389810 A    
C201  H35   1.109460 S    
C244  H162  1.108886 S    
C255  H195  1.107737 S    
C83   C166  1.425749 A    
C85   C117  1.395373 A    
C90   O62   1.384211 S    
C30   C246  1.519538 S    
C264  H224  1.111089 S    
C133  C140  1.389782 A    
C207  H52   1.113684 S    
C242  H156  1.106321 S    
C255  H197  1.110888 S    
Zn5   O51   1.948430 S    
C153  C185  1.434887 A    
H19   C125  1.081347 S    
C4    C252  1.516911 S    
C74   C200  1.452817 S    
C21   C41   1.414471 A    
C92   O64   1.382938 S    
C176  C194  1.416466 A    
C246  H168  1.109084 S    
C23   C43   1.414679 A    
C263  H220  1.111403 S    
Zn16  O21   1.947752 S    
C130  C143  1.389442 A    
O18   C62   1.279374 A    
C254  H193  1.109438 S    
C110  C171  1.431380 A    
C254  H192  1.111093 S    
C111  C170  1.426409 A    
C222  H96   1.111091 S    
C158  C163  1.402185 A    
C169  C184  1.402743 A    
C32   C52   1.420103 A    
C170  C183  1.402484 A    
C240  H150  1.108191 S    
C25   C37   1.404853 A    
C42   C146  1.422819 A    
C117  C124  1.388784 A    
O52   C70   1.276842 A    
C27   C243  1.526253 S    
C225  H106  1.113713 S    
C261  H213  1.110758 S    
C219  H89   1.109571 S    
C240  H152  1.110211 S    
C257  H202  1.109722 S    
O5    C57   1.283983 A    
C259  H208  1.109814 S    
O47   C65   1.286206 A    
C226  H110  1.109543 S    
O7    C59   1.278571 A    
C28   C56   1.411360 A    
C93   C156  1.426471 A    
C48   C148  1.417684 A    
C92   C157  1.428203 A    
C31   C247  1.525125 S    
Zn13  O4    1.952535 S    
C231  H124  1.113724 S    
C10   C258  1.517846 S    
Zn14  O3    1.952535 S    
C95   O67   1.383331 S    
O32   C76   1.280015 A    
C252  H186  1.108328 S    
C7    C255  1.516788 S    
C5    C253  1.516753 S    
C238  H146  1.107208 S    
C202  H37   1.114047 S    
C20   C48   1.415509 A    
H4    C142  1.082155 S    
Zn16  O1    1.953816 S    
C210  H61   1.114067 S    
C221  H95   1.109556 S    
C53   C149  1.420064 A    
C159  C191  1.435196 A    
C250  H180  1.108059 S    
C234  H132  1.105250 S    
C81   O53   1.383536 S    
Zn9   O12   1.933667 S    
C216  H78   1.111677 S    
C26   C242  1.519548 S    
C243  H160  1.107770 S    
C111  O83   1.383432 S    
C19   C35   1.408722 A    
C243  H161  1.108439 S    
C22   C42   1.414543 A    
O33   C77   1.285511 A    
C24   C240  1.521500 S    
C169  C199  1.432825 A    
C224  H104  1.109597 S    
C204  H44   1.107836 S    
O68   C216  1.412215 S    
C170  C200  1.415716 A    
C248  H174  1.106877 S    
C44   C148  1.418725 A    
C201  H33   1.112372 S    
C26   C38   1.404912 A    
C244  H164  1.110290 S    
C163  C195  1.433026 A    
Zn10  O11   1.933667 S    
Zn7   O3    1.953813 S    
Zn11  O2    1.954003 S    
H15   C129  1.079867 S    
C9    C49   1.418355 A    
C206  H50   1.108515 S    
C147  C148  1.411286 A    
C11   C259  1.517040 S    
Zn8   O4    1.953816 S    
C11   C51   1.415753 A    
C246  H170  1.110342 S    
O65   C213  1.409899 S    
C18   C46   1.414606 A    
C242  H158  1.109087 S    
C229  H119  1.109554 S    
C251  H184  1.106712 S    
C15   C55   1.418473 A    
C112  C144  1.396797 A    
O62   C210  1.410494 S    
C264  H223  1.109814 S    
C89   O61   1.383464 S    
C112  C169  1.431237 A    
O23   C67   1.286053 A    
C108  O80   1.386284 S    
O64   C212  1.412260 S    
C238  H145  1.109630 S    
C228  H116  1.109599 S    
C134  C139  1.389875 A    
C237  H143  1.107235 S    
C99   O71   1.383536 S    
C204  H42   1.111701 S    
H25   C119  1.078824 S    
C248  H176  1.108445 S    
H14   C132  1.082631 S    
C97   C184  1.426236 A    
Zn2   O48   1.948359 S    
C7    C47   1.420313 A    
C98   C183  1.431337 A    
C87   O59   1.383495 S    
C98   O70   1.385400 S    
C36   C58   1.461273 S    
C10   C13   1.403935 A    
C1    C249  1.516794 S    
C262  H216  1.110760 S    
C82   C114  1.396163 A    
O45   C67   1.286097 A    
C243  H159  1.106879 S    
O46   C68   1.279137 A    
C218  H84   1.111210 S    
