data_mof_unit_42894.cif
_audit_creation_date              2012-12-10T18:58:14-0500
_audit_creation_method            fapswitch 2.2
_symmetry_space_group_name_H-M    P1
_symmetry_Int_Tables_number       1
_space_group_crystal_system       triclinic
_cell_length_a                    11.053395
_cell_length_b                    10.856471
_cell_length_c                    9.54997
_cell_angle_alpha                 89.748245
_cell_angle_beta                  102.222273
_cell_angle_gamma                 90.435969
_cell_volume                      1119.99195114

loop_
_atom_site_label
_atom_site_type_symbol
_atom_type_description
_atom_site_fract_x
_atom_site_fract_y
_atom_site_fract_z
_atom_type_partial_charge
C1    C     C_R   0.501101 0.262890 0.500528 0.793512
C2    C     C_R   0.503836 0.130578 0.501216 -0.075299
C3    C     C_R   0.547126 0.065399 0.394719 -0.203240
C4    C     C_R   0.544226 0.936290 0.394027 -0.170528
C5    C     C_R   0.495212 0.870506 0.497307 -0.116821
C6    C     C_R   0.447992 0.939032 0.596755 0.000033
C7    C     C_3   0.376631 0.936579 0.716252 0.295214
C8    C     C_3   0.393827 0.077612 0.722368 -0.474480
C9    C     C_R   0.591925 0.559229 0.095844 0.247783
C10   C     C_R   0.416767 0.431541 0.054359 -0.082247
C11   C     C_R   0.416476 0.431871 0.905400 -0.070417
C12   C     C_R   0.262656 0.500747 0.441607 0.730410
C13   C     C_R   0.593364 0.556839 0.948704 0.216117
C14   C     C_3   0.628657 0.688900 0.946884 -0.509259
C15   C     C_3   0.619954 0.694306 0.102965 -0.075211
C16   C     C_R   0.497331 0.737414 0.499130 0.804466
C17   C     C_R   0.737012 0.495370 0.557658 0.888171
C18   C     C_2   0.127054 0.506306 0.407280 0.268023
C19   C     C_2   0.065461 0.468998 0.506832 -0.250573
C20   C     C_2   0.871118 0.480308 0.588639 -0.382216
C21   C     C_2   0.931341 0.481469 0.481375 -0.067325
C22   C     C_R   0.459961 0.062882 0.603484 0.037432
Cu1   Cu    Cu3+1 0.499990 0.499980 0.640670 0.940724
Cu2   Cu    Cu3+1 0.500010 0.500020 0.359330 0.944718
H1    H     H_    0.881100 0.493731 0.371618 0.227465
H2    H     H_    0.456280 0.110749 0.822212 0.169472
H3    H     H_    0.347829 0.378057 0.093516 0.139335
H4    H     H_    0.347225 0.378756 0.832917 0.132092
H5    H     H_    0.723862 0.700962 0.927983 0.219064
H6    H     H_    0.557827 0.744569 0.876343 0.194439
H7    H     H_    0.539779 0.749370 0.119410 0.149415
H8    H     H_    0.113886 0.428877 0.607582 0.140338
H9    H     H_    0.919951 0.465254 0.698144 0.148939
H10   H     H_    0.583747 0.113611 0.313029 0.164138
H11   H     H_    0.580547 0.888713 0.313162 0.180633
H12   H     H_    0.425929 0.891714 0.815912 0.096266
H13   H     H_    0.306550 0.130301 0.688473 0.200237
N1    N     N_R   0.500780 0.500930 0.148120 -0.203861
N2    N     N_R   0.500790 0.500890 0.852210 -0.180569
O1    O     O_R   0.500000 0.319640 0.618810 -0.578369
O2    O     O_R   0.500010 0.319680 0.381230 -0.590564
O3    O     O_R   0.320680 0.500000 0.575130 -0.600248
O4    O     O_R   0.320690 0.500040 0.337550 -0.590836
O5    O     O_R   0.499990 0.680320 0.618770 -0.587814
O6    O     O_R   0.500000 0.680360 0.381190 -0.577514
O7    O     O_R   0.679310 0.499960 0.662450 -0.578166
O8    O     O_R   0.679320 0.500000 0.424870 -0.562095
I1    I     I_    0.792373 0.740817 0.241414 -0.437325
O9    O     O_3   0.065297 0.574262 0.290097 -0.608079
C23   C     C_3   0.076177 0.522494 0.157593 0.089676
H14   H     H_    0.981001 0.502197 0.096219 0.166800
H15   H     H_    0.127406 0.433677 0.166667 0.113284
C24   C     C_3   0.136212 0.617306 0.073308 -0.320936
H16   H     H_    0.088604 0.707019 0.072286 0.239383
H17   H     H_    0.234958 0.631204 0.125507 0.236665
C25   C     C_3   0.127298 0.578528 0.918346 -0.919408
H18   H     H_    0.152555 0.480295 0.911588 0.238403
H19   H     H_    0.190492 0.636351 0.869008 0.275221
H20   H     H_    0.031463 0.593229 0.857602 0.259051
O10   O     O_3   0.247430 0.907493 0.685609 -0.603218
C26   C     C_3   0.201983 0.850477 0.551866 0.138553
H21   H     H_    0.120234 0.793606 0.561912 0.178055
H22   H     H_    0.268069 0.784262 0.522570 0.123772
C27   C     C_3   0.158603 0.947970 0.435377 -0.364156
H23   H     H_    0.072013 0.990758 0.452968 0.225131
H24   H     H_    0.228495 0.022333 0.440128 0.223227
C28   C     C_3   0.135159 0.891717 0.286481 -0.869359
H25   H     H_    0.221791 0.851394 0.265798 0.248779
H26   H     H_    0.102513 0.963860 0.204742 0.254407
H27   H     H_    0.063161 0.819111 0.277404 0.311293

loop_
_geom_bond_atom_site_label_1
_geom_bond_atom_site_label_2
_ccdc_geom_bond_type
C16   O6    A    
C2    C22   A    
C26   C27   S    
C8    C22   S    
Cu1   Cu2   S    
C25   H20   S    
C15   H7    S    
C6    C7    S    
C8    H2    S    
C7    H12   S    
C16   O5    A    
Cu2   N1    S    
C3    H10   S    
C10   H3    S    
C10   N1    A    
C28   H27   S    
C27   H23   S    
C2    C3    A    
C9    C15   S    
C4    H11   S    
C7    C8    S    
Cu1   O7    S    
C13   C14   S    
C20   C21   D    
C11   N2    A    
Cu2   O2    S    
C5    C6    A    
Cu1   O3    S    
C11   H4    S    
C14   H6    S    
Cu1   N2    S    
C19   H8    S    
C15   I1    S    
C1    O2    A    
C9    N1    A    
C19   C21   S    
C25   H19   S    
C18   C19   D    
C12   O4    A    
C24   H17   S    
C26   H21   S    
O9    C23   S    
C13   N2    A    
C23   C24   S    
C10   C11   A    
Cu2   O6    S    
C14   H5    S    
C12   O3    A    
C28   H25   S    
C6    C22   A    
C27   C28   S    
C17   O8    A    
C7    O10   S    
C17   C20   S    
C17   O7    A    
C3    C4    A    
C20   H9    S    
C1    C2    S    
C8    H13   S    
C24   C25   S    
C12   C18   S    
C23   H15   S    
C26   H22   S    
Cu2   O4    S    
C21   H1    S    
C14   C15   S    
C4    C5    A    
C5    C16   S    
C9    C13   A    
C1    O1    A    
C23   H14   S    
C24   H16   S    
Cu2   O8    S    
C25   H18   S    
Cu1   O5    S    
Cu1   O1    S    
C18   O9    S    
O10   C26   S    
C28   H26   S    
C27   H24   S    
