data_mof_unit_34946.cif
_audit_creation_date              2013-03-05T16:35:52-0500
_audit_creation_method            fapswitch 2.2
_symmetry_space_group_name_H-M    P1
_symmetry_Int_Tables_number       1
_space_group_crystal_system       triclinic
_cell_length_a                    23.527981
_cell_length_b                    9.088074
_cell_length_c                    7.780595
_cell_angle_alpha                 90.037608
_cell_angle_beta                  90.0
_cell_angle_gamma                 89.9999
_cell_volume                      1663.67783897

loop_
_atom_site_label
_atom_site_type_symbol
_atom_site_description
_atom_site_fract_x
_atom_site_fract_y
_atom_site_fract_z
_atom_type_partial_charge
O1    O     O_R   0.500000 0.288390 0.642760 -0.574900
O2    O     O_R   0.500000 0.711610 0.357240 -0.574899
O3    O     O_R   0.500000 0.711610 0.642760 -0.574519
O4    O     O_R   0.500000 0.288390 0.357240 -0.574519
C1    C     C_R   0.500000 0.220008 0.499966 0.852628
C2    C     C_R   0.500000 0.779992 0.500034 0.852628
O5    O     O_R   0.417880 0.500000 0.642820 -0.585100
O6    O     O_R   0.582120 0.500000 0.357180 -0.585079
O7    O     O_R   0.582120 0.500000 0.642820 -0.585079
O8    O     O_R   0.417880 0.500000 0.357180 -0.585099
C3    C     C_R   0.208797 0.499991 0.500000 0.360475
C4    C     C_R   0.791206 0.499994 0.500000 0.358816
C5    C     C_R   0.390582 0.500000 0.500000 0.796587
C6    C     C_R   0.609414 0.500000 0.500000 0.796580
Cu1   Cu    Cu3+1 0.500000 0.500000 0.669080 1.007472
Cu2   Cu    Cu3+1 0.500000 0.500000 0.330920 1.007472
H1    H     H_    0.215651 0.489558 0.776411 0.136967
H2    H     H_    0.784317 0.480707 0.775620 0.137981
H3    H     H_    0.215651 0.510425 0.223589 0.136967
H4    H     H_    0.784317 0.519281 0.224381 0.137981
C7    C     C_R   0.297803 0.494255 0.655915 -0.205843
C8    C     C_R   0.702181 0.489329 0.655462 -0.206475
C9    C     C_R   0.297802 0.505736 0.344085 -0.205841
C10   C     C_R   0.702181 0.510665 0.344538 -0.206475
H5    H     H_    0.319917 0.489790 0.777945 0.160549
H6    H     H_    0.680058 0.480863 0.777113 0.160734
H7    H     H_    0.319916 0.510204 0.222054 0.160549
H8    H     H_    0.680058 0.519132 0.222887 0.160734
C11   C     C_R   0.327989 0.499998 0.500000 -0.038680
C12   C     C_R   0.672001 0.499998 0.500000 -0.038661
C13   C     C_R   0.880497 0.628918 0.469682 0.535851
C14   C     C_R   0.119546 0.371089 0.530443 0.536052
C15   C     C_R   0.880497 0.371069 0.530318 0.535850
C16   C     C_R   0.119546 0.628894 0.469557 0.536053
N1    N     N_R   0.852099 0.499993 0.500000 -0.474111
N2    N     N_R   0.147926 0.499991 0.500000 -0.474419
C17   C     C_R   0.940113 0.368314 0.530849 -0.013443
C18   C     C_R   0.059930 0.631671 0.469107 -0.013594
C19   C     C_R   0.940113 0.631672 0.469152 -0.013443
C20   C     C_R   0.059930 0.368313 0.530893 -0.013594
C21   C     C_R   0.970033 0.499993 0.500001 -0.017340
C22   C     C_R   0.030011 0.499992 0.500000 -0.017322
C23   C     C_R   0.970373 0.237548 0.561046 -0.164899
C24   C     C_R   0.029672 0.762433 0.438918 -0.164960
C25   C     C_R   0.970373 0.762437 0.438955 -0.164899
C26   C     C_R   0.029672 0.237551 0.561083 -0.164960
C27   C     C_1   0.500000 0.065378 0.499953 -0.166526
C28   C     C_1   0.500000 0.934622 0.500047 -0.166526
C29   C     C_R   0.238535 0.493977 0.655695 -0.098932
C30   C     C_R   0.761448 0.489010 0.655232 -0.098354
C31   C     C_R   0.238535 0.506008 0.344305 -0.098932
C32   C     C_R   0.761448 0.510979 0.344769 -0.098352
N3    N     N_1   0.500000 0.500000 0.076820 -0.049445
N4    N     N_1   0.500000 0.500000 0.923180 -0.049445
O9    O     O_2   0.851083 0.754026 0.441186 -0.515157
O10   O     O_2   0.148979 0.246065 0.559249 -0.514774
O11   O     O_2   0.851083 0.245960 0.558813 -0.515157
O12   O     O_2   0.148979 0.753918 0.440751 -0.514774
H9    H     H_    0.948371 0.134853 0.584779 0.188921
H10   H     H_    0.051675 0.865123 0.415158 0.188879
H11   H     H_    0.948372 0.865132 0.415222 0.188921
H12   H     H_    0.051674 0.134861 0.584842 0.188879

loop_
_geom_bond_atom_site_label_1
_geom_bond_atom_site_label_2
_geom_bond_distance
_ccdc_geom_bond_type
C10   C32   1.394435 A    
C4    C30   1.399684 A    
O7    C6    1.283436 A    
C9    C11   1.406722 A    
C18   C24   1.405209 A    
O1    Cu1   1.933867 S    
C9    H7    1.083465 S    
C19   C21   1.409127 A    
O2    Cu2   1.933866 S    
C21   C22   1.411159 A    
C9    C31   1.394445 A    
C27   C28   1.188316 T    
C23   H9    1.083208 S    
C19   C25   1.405252 A    
O3    C2    1.272913 A    
C13   O9    1.349510 S    
C3    C29   1.400037 A    
O5    Cu1   1.942893 S    
O7    Cu1   1.942891 S    
O6    Cu2   1.942891 S    
O8    Cu2   1.942893 S    
N3    N4    1.195411 T    
C4    N1    1.432685 S    
C20   C26   1.405210 A    
O4    C1    1.272913 A    
C1    C27   1.405292 S    
O2    C2    1.272666 A    
C2    C28   1.405292 S    
C26   H12   1.083212 S    
O1    C1    1.272666 A    
C7    C29   1.394448 A    
C14   N2    1.369186 A    
C13   N1    1.369398 A    
C25   H11   1.083209 S    
O4    Cu2   1.934135 S    
C4    C32   1.399686 A    
C24   H10   1.083210 S    
C18   C22   1.409190 A    
C16   N2    1.369186 A    
C14   C20   1.402866 A    
C17   C21   1.409126 A    
C23   C26   1.395188 A    
O6    C6    1.283437 A    
C17   C23   1.405251 A    
C10   C12   1.406008 A    
C3    C31   1.400036 A    
H1    C29   1.083392 S    
Cu1   Cu2   2.631087 S    
Cu1   N4    1.977048 S    
H3    C31   1.083394 S    
C8    C30   1.394435 A    
O5    C5    1.283479 A    
O3    Cu1   1.934134 S    
C24   C25   1.395188 A    
H2    C30   1.082917 S    
H4    C32   1.082916 S    
C8    H6    1.082972 S    
C5    C11   1.472696 S    
C16   O12   1.349500 S    
C7    H5    1.083465 S    
Cu2   N3    1.977048 S    
C3    N2    1.432181 S    
C15   O11   1.349511 S    
C8    C12   1.406010 A    
C15   N1    1.369397 A    
C6    C12   1.472534 S    
C7    C11   1.406719 A    
C14   O10   1.349502 S    
C15   C17   1.402878 A    
C10   H8    1.082972 S    
C13   C19   1.402878 A    
C20   C22   1.409188 A    
O8    C5    1.283479 A    
C16   C18   1.402866 A    
