data_mof_unit_49396.cif
_audit_creation_date              2012-12-10T17:40:51-0500
_audit_creation_method            fapswitch 2.2
_symmetry_space_group_name_H-M    P1
_symmetry_Int_Tables_number       1
_space_group_crystal_system       triclinic
_cell_length_a                    14.727829
_cell_length_b                    15.525332
_cell_length_c                    9.929779
_cell_angle_alpha                 90.000074
_cell_angle_beta                  90.981934
_cell_angle_gamma                 89.999793
_cell_volume                      2270.15458074

loop_
_atom_site_label
_atom_site_type_symbol
_atom_type_description
_atom_site_fract_x
_atom_site_fract_y
_atom_site_fract_z
_atom_type_partial_charge
C1    C     C_R   0.382263 0.878785 0.499581 1.000354
C2    C     C_R   0.664585 0.264344 0.444518 0.287764
C3    C     C_R   0.164611 0.235682 0.444414 0.287729
C4    C     C_R   0.178060 0.752220 0.417952 0.325562
C5    C     C_R   0.690210 0.817195 0.506714 -0.158459
C6    C     C_R   0.689163 0.183464 0.495882 -0.134102
C7    C     C_R   0.189169 0.316541 0.495882 -0.134153
C8    C     C_R   0.190209 0.682807 0.506720 -0.158494
C9    C     C_R   0.334594 0.002499 0.135438 -0.231767
C10   C     C_R   0.834594 0.497510 0.135440 -0.231815
C11   C     C_R   0.252465 0.004233 0.063757 0.557159
C12   C     C_R   0.379927 0.119203 0.499712 1.001451
C13   C     C_R   0.752465 0.495783 0.063760 0.557160
C14   C     C_R   0.251859 0.002635 0.922862 0.320209
C15   C     C_R   0.751859 0.497384 0.922865 0.320210
C16   C     C_R   0.334189 0.000669 0.855900 -0.240341
C17   C     C_R   0.834189 0.499341 0.855902 -0.240334
C18   C     C_R   0.418288 0.000320 0.925698 0.090138
C19   C     C_R   0.918288 0.499686 0.925698 0.090140
C20   C     C_R   0.418396 0.000736 0.069985 0.054304
C21   C     C_R   0.918396 0.499269 0.069985 0.054316
C22   C     C_R   0.578203 0.999916 0.073551 -0.034698
C23   C     C_R   0.879928 0.380795 0.499712 1.001439
C24   C     C_R   0.078203 0.500075 0.073551 -0.034675
C25   C     C_R   0.620792 0.118794 0.499707 0.934291
C26   C     C_R   0.622488 0.882674 0.501691 0.923715
C27   C     C_R   0.122489 0.617326 0.501693 0.923700
C28   C     C_R   0.120795 0.381209 0.499707 0.934254
C29   C     C_R   0.578142 0.000301 0.930612 -0.074632
C30   C     C_R   0.078142 0.499689 0.930612 -0.074624
C31   C     C_R   0.431872 0.288753 0.587831 -0.296430
C32   C     C_R   0.415104 0.729661 0.666259 -0.293851
C33   C     C_R   0.915131 0.770367 0.666184 -0.293845
C34   C     C_R   0.882261 0.621214 0.499581 1.000353
C35   C     C_R   0.931898 0.211213 0.587652 -0.296422
C36   C     C_R   0.460825 0.374269 0.604888 0.441376
C37   C     C_R   0.422466 0.666667 0.767057 0.486656
C38   C     C_R   0.922522 0.833399 0.766922 0.486649
C39   C     C_R   0.960853 0.125689 0.604622 0.441461
C40   C     C_R   0.851126 0.890653 0.783915 0.716411
C41   C     C_R   0.901191 0.059190 0.571532 0.712089
C42   C     C_R   0.401174 0.440780 0.571819 0.712094
C43   C     C_R   0.351061 0.609425 0.784061 0.716480
C44   C     C_R   0.775644 0.887920 0.697394 -0.344891
C45   C     C_R   0.228217 0.168850 0.450941 0.333077
C46   C     C_R   0.810319 0.077035 0.540276 -0.344106
C47   C     C_R   0.310310 0.422950 0.540483 -0.344091
C48   C     C_R   0.275604 0.612130 0.697489 -0.344849
C49   C     C_R   0.765466 0.822574 0.598128 -0.032359
C50   C     C_R   0.779703 0.162890 0.529364 -0.059692
C51   C     C_R   0.279696 0.337100 0.529470 -0.059695
C52   C     C_R   0.265448 0.677447 0.598172 -0.032385
C53   C     C_R   0.342750 0.270185 0.540902 -0.024779
C54   C     C_R   0.334224 0.739070 0.587628 -0.005533
C55   C     C_R   0.834237 0.760944 0.587591 -0.005500
C56   C     C_R   0.240793 0.818893 0.421449 0.320449
C57   C     C_R   0.842762 0.229799 0.540804 -0.024803
C58   C     C_R   0.315724 0.187162 0.499683 -0.140493
C59   C     C_R   0.319945 0.809260 0.499506 -0.145397
C60   C     C_R   0.819943 0.690738 0.499505 -0.145404
C61   C     C_R   0.815724 0.312838 0.499683 -0.140494
C62   C     C_R   0.740780 0.681095 0.421476 0.320428
C63   C     C_R   0.728196 0.331171 0.451045 0.333057
C64   C     C_R   0.678045 0.747768 0.417977 0.325533
F1    F     F_    0.857530 0.953422 0.878723 -0.634387
F2    F     F_    0.932469 0.977297 0.565487 -0.642493
F3    F     F_    0.432462 0.522672 0.565844 -0.642503
F4    F     F_    0.357437 0.546690 0.878926 -0.634380
F5    F     F_    0.173578 0.007796 0.132202 -0.631381
F6    F     F_    0.673579 0.492223 0.132207 -0.631323
H1    H     H_    0.329360 0.999779 0.748843 0.255868
H2    H     H_    0.765515 0.023857 0.516425 0.151276
H3    H     H_    0.265517 0.476136 0.516639 0.151275
H4    H     H_    0.227732 0.560759 0.709583 0.185640
H5    H     H_    0.642171 0.999917 0.128756 0.156682
H6    H     H_    0.142171 0.500067 0.128756 0.156705
H7    H     H_    0.330468 0.002736 0.242240 0.285708
H8    H     H_    0.830468 0.497268 0.242242 0.285682
H9    H     H_    0.140929 0.075764 0.423098 0.395891
H10   H     H_    0.158293 0.906058 0.350131 0.400648
H11   H     H_    0.658273 0.593922 0.350201 0.400629
H12   H     H_    0.829360 0.500226 0.748844 0.255869
H13   H     H_    0.640910 0.424280 0.423454 0.395809
H14   H     H_    0.119814 0.004114 0.907541 0.420066
H15   H     H_    0.619814 0.495924 0.907546 0.420082
H16   H     H_    0.579790 0.340803 0.674021 0.335756
H17   H     H_    0.543461 0.703508 0.823128 0.333713
H18   H     H_    0.043530 0.796570 0.822954 0.333719
H19   H     H_    0.079810 0.159123 0.673812 0.335764
H20   H     H_    0.617649 0.712125 0.251196 0.368382
H21   H     H_    0.583252 0.319124 0.314059 0.373765
H22   H     H_    0.083347 0.180989 0.313777 0.373727
H23   H     H_    0.642068 0.001256 0.879057 0.155337
H24   H     H_    0.117691 0.787842 0.251137 0.368366
H25   H     H_    0.142067 0.498722 0.879059 0.155337
H26   H     H_    0.480463 0.237861 0.606444 0.183882
H27   H     H_    0.473187 0.770671 0.650510 0.175037
H28   H     H_    0.973204 0.729342 0.650446 0.175010
H29   H     H_    0.980493 0.262101 0.606281 0.183823
H30   H     H_    0.727772 0.939294 0.709474 0.185633
N1    N     N_R   0.498810 0.000000 0.142780 -0.106363
N2    N     N_R   0.998810 0.500000 0.142780 -0.106366
N3    N     N_R   0.498740 0.000000 0.857170 -0.108266
N4    N     N_R   0.998740 0.500000 0.857170 -0.108267
O1    O     O_R   0.408390 0.908380 0.614690 -0.664663
O2    O     O_R   0.591620 0.908390 0.614640 -0.662712
O3    O     O_R   0.091620 0.591610 0.614640 -0.662729
O4    O     O_R   0.091620 0.408390 0.614640 -0.643077
O5    O     O_R   0.591610 0.091610 0.385310 -0.591299
O6    O     O_R   0.591610 0.908390 0.385310 -0.571606
O7    O     O_R   0.091610 0.591610 0.385310 -0.571577
O8    O     O_R   0.091610 0.408390 0.385310 -0.591265
O9    O     O_3   0.207085 0.085007 0.415142 -0.711783
O10   O     O_3   0.224664 0.895827 0.355436 -0.720198
O11   O     O_3   0.724645 0.604153 0.355487 -0.720163
O12   O     O_R   0.408390 0.091620 0.614690 -0.654875
O13   O     O_3   0.707053 0.415027 0.415336 -0.711808
O14   O     O_3   0.172486 0.003058 0.846827 -0.667773
O15   O     O_3   0.672485 0.496970 0.846831 -0.667740
O16   O     O_3   0.547581 0.394630 0.648586 -0.679866
O17   O     O_3   0.499047 0.658473 0.848082 -0.683947
O18   O     O_3   0.999125 0.841617 0.847896 -0.683938
O19   O     O_3   0.047617 0.105311 0.648263 -0.679828
O20   O     O_3   0.602421 0.745056 0.333286 -0.730271
O21   O     O_3   0.579658 0.274630 0.385214 -0.772029
O22   O     O_3   0.079706 0.225416 0.385032 -0.771967
O23   O     O_R   0.908390 0.408380 0.614690 -0.654841
O24   O     O_3   0.102449 0.754922 0.333231 -0.730246
O25   O     O_R   0.908390 0.591620 0.614690 -0.664648
O26   O     O_R   0.408370 0.908380 0.385360 -0.587159
O27   O     O_R   0.408370 0.091620 0.385360 -0.609809
O28   O     O_R   0.908370 0.408380 0.385360 -0.609824
O29   O     O_R   0.908370 0.591620 0.385360 -0.587178
O30   O     O_R   0.591620 0.091610 0.614640 -0.643085
Zn1   Zn    Zn3+2 0.500010 0.000000 0.653130 0.936626
Zn2   Zn    Zn3+2 0.000010 0.500000 0.653130 0.936641
Zn3   Zn    Zn3+2 0.499980 0.000000 0.346870 1.016192
Zn4   Zn    Zn3+2 0.999980 0.500000 0.346870 1.016199

loop_
_geom_bond_atom_site_label_1
_geom_bond_atom_site_label_2
_ccdc_geom_bond_type
C44   C49   A    
C33   C55   A    
C38   C40   A    
C12   O27   A    
C36   C42   A    
C4    C8    A    
C26   O2    A    
C10   H8    S    
C3    O22   S    
C39   C41   A    
O12   Zn1   S    
C22   C29   A    
C28   O8    A    
H15   O15   S    
C30   H25   S    
C22   N1    A    
C60   C62   A    
C19   C21   A    
O4    Zn2   S    
C48   C52   A    
C3    C7    A    
C1    C59   S    
C63   O13   S    
C11   C14   A    
C6    C25   S    
C13   F6    S    
C41   F2    S    
O28   Zn4   S    
C31   H26   S    
C39   O19   S    
C32   H27   S    
C29   N3    A    
O5    Zn3   S    
C17   H12   S    
N2    Zn4   S    
C61   C63   A    
N3    Zn1   S    
C62   C64   A    
C24   N2    A    
C33   H28   S    
C34   O25   A    
C43   F4    S    
C14   O14   S    
C41   C46   A    
N4    Zn2   S    
C43   C48   A    
C8    C52   A    
C46   H2    S    
C25   O5    A    
O1    Zn1   S    
C12   C58   S    
C27   O7    A    
O29   Zn4   S    
C55   C60   A    
C4    C56   A    
C34   C60   S    
C5    C49   A    
C2    C6    A    
C16   H1    S    
C22   H5    S    
C35   H29   S    
C32   C54   A    
C52   C54   A    
C54   C59   A    
C10   C21   A    
C45   C58   A    
C4    O24   S    
C48   H4    S    
O23   Zn2   S    
C47   H3    S    
H18   O18   S    
C1    O26   A    
H17   O17   S    
N1    Zn3   S    
C24   H6    S    
C47   C51   A    
C20   N1    A    
H19   O19   S    
C34   O29   A    
C49   C55   A    
C3    C45   A    
C6    C50   A    
C7    C28   S    
C5    C64   A    
C51   C53   A    
C37   C43   A    
C35   C39   A    
O3    Zn2   S    
O27   Zn3   S    
O8    Zn4   S    
O25   Zn2   S    
C19   N4    A    
C9    C20   A    
C27   O3    A    
H11   O11   S    
C9    H7    S    
C32   C37   A    
C31   C53   A    
C25   O30   A    
C9    C11   A    
C38   O18   S    
C37   O17   S    
C21   N2    A    
H14   O14   S    
O2    Zn1   S    
H10   O10   S    
C40   F1    S    
H9    O9    S    
C42   F3    S    
C14   C16   A    
C2    C63   A    
C23   O23   A    
C23   C61   S    
C15   C17   A    
C26   O6    A    
H21   O21   S    
C50   C57   A    
H20   O20   S    
O6    Zn3   S    
C10   C13   A    
H22   O22   S    
C53   C58   A    
C11   F5    S    
C57   C61   A    
O30   Zn1   S    
H24   O24   S    
C46   C50   A    
C33   C38   A    
C56   C59   A    
C35   C57   A    
H13   O13   S    
C13   C15   A    
C7    C51   A    
C62   O11   S    
C64   O20   S    
C29   H23   S    
C18   N3    A    
C44   H30   S    
C28   O4    A    
C17   C19   A    
C15   O15   S    
C23   O28   A    
C18   C20   A    
C42   C47   A    
C36   O16   S    
C24   C30   A    
C5    C26   S    
C2    O21   S    
C45   O9    S    
C40   C44   A    
C16   C18   A    
C30   N4    A    
C8    C27   S    
C56   O10   S    
C31   C36   A    
H16   O16   S    
O26   Zn3   S    
O7    Zn4   S    
C1    O1    A    
C12   O12   A    
