data_mof_unit_57597.cif
_audit_creation_date              2012-12-10T19:16:25-0500
_audit_creation_method            fapswitch 2.2
_symmetry_space_group_name_H-M    P1
_symmetry_Int_Tables_number       1
_space_group_crystal_system       triclinic
_cell_length_a                    10.603902
_cell_length_b                    9.714391
_cell_length_c                    27.716631
_cell_angle_alpha                 90.214613
_cell_angle_beta                  89.557439
_cell_angle_gamma                 89.986871
_cell_volume                      2854.99734185

loop_
_atom_site_label
_atom_site_type_symbol
_atom_type_description
_atom_site_fract_x
_atom_site_fract_y
_atom_site_fract_z
_atom_type_partial_charge
C1    C     C_R   0.257919 0.500048 0.502508 0.843837
C2    C     C_R   0.383313 0.500109 0.975481 0.031428
C3    C     C_R   0.614515 0.481555 0.973924 0.047829
C4    C     C_R   0.500474 0.499683 0.405965 0.892930
C5    C     C_R   0.498192 0.492959 0.949364 0.079004
C6    C     C_R   0.273706 0.539049 0.950731 -0.240592
C7    C     C_R   0.271467 0.548584 0.900644 0.002264
C8    C     C_R   0.382894 0.523383 0.873528 -0.066279
C9    C     C_R   0.497013 0.498978 0.898354 -0.064035
C10   C     C_R   0.610585 0.480932 0.872257 -0.016987
C11   C     C_R   0.608510 0.483111 0.821975 0.507185
C12   C     C_R   0.494548 0.370994 0.278187 -0.098615
C13   C     C_R   0.386350 0.523851 0.822606 0.502739
C14   C     C_R   0.490984 0.626919 0.722128 -0.100161
C15   C     C_R   0.491835 0.626321 0.672012 -0.225828
C16   C     C_R   0.742395 0.500025 0.501997 0.853979
C17   C     C_R   0.506525 0.376598 0.672138 -0.225181
C18   C     C_R   0.505968 0.377628 0.722253 -0.102479
C19   C     C_R   0.498116 0.502673 0.747161 0.327435
C20   C     C_R   0.383048 0.476877 0.026006 -0.003548
C21   C     C_R   0.499731 0.484975 0.050680 0.061323
C22   C     C_R   0.615562 0.491696 0.024805 0.053196
C23   C     C_R   0.502896 0.494643 0.252826 0.320271
C24   C     C_R   0.272220 0.444167 0.053154 -0.016877
C25   C     C_R   0.728070 0.516391 0.100730 -0.128971
C26   C     C_R   0.726034 0.461567 0.946687 -0.216781
C27   C     C_R   0.723725 0.460378 0.896722 -0.124974
C28   C     C_R   0.500000 0.500268 0.594005 0.863449
C29   C     C_R   0.728605 0.510028 0.050732 -0.207647
C30   C     C_3   0.071500 0.630880 0.529923 -0.398636
C31   C     C_3   0.071553 0.371351 0.530781 -0.398488
C32   C     C_3   0.927376 0.630835 0.529747 -0.398155
C33   C     C_3   0.927390 0.371278 0.530548 -0.398674
C34   C     C_R   0.500808 0.485943 0.101652 -0.054052
C35   C     C_3   0.074102 0.498158 0.451063 -0.400018
C36   C     C_3   0.121606 0.500111 0.503650 0.177787
C37   C     C_3   0.878814 0.500087 0.503334 0.169719
C38   C     C_3   0.929709 0.498240 0.450879 -0.386110
C39   C     C_3   0.373741 0.081378 0.511873 -0.273378
C40   C     C_3   0.373654 0.918944 0.511738 -0.274227
C41   C     C_3   0.533255 0.081458 0.450385 -0.075938
C42   C     C_3   0.533728 0.917517 0.450427 -0.074301
C43   C     C_3   0.589981 0.081306 0.534593 -0.249038
C44   C     C_3   0.589666 0.919366 0.534713 -0.249163
C45   C     C_R   0.387680 0.469518 0.127828 -0.042220
C46   C     C_R   0.390567 0.473089 0.178264 0.516065
C47   C     C_R   0.613528 0.507078 0.176986 0.507446
C48   C     C_R   0.510908 0.620218 0.277373 -0.099102
C49   C     C_R   0.509964 0.622291 0.327517 -0.211104
C50   C     C_R   0.494011 0.372621 0.328264 -0.209176
C51   C     C_1   0.652156 0.142191 0.431951 0.215202
C52   C     C_1   0.653362 0.857076 0.432356 0.210871
C53   C     C_1   0.152704 0.586848 0.879112 0.274994
C54   C     C_1   0.158272 0.390863 0.031602 0.152239
C55   C     C_R   0.275257 0.444877 0.103386 -0.174519
C56   C     C_R   0.615145 0.503235 0.126546 -0.019789
C57   C     C_R   0.501430 0.498367 0.353280 -0.048288
C58   C     C_R   0.499526 0.501045 0.646690 -0.040913
H1    H     H_    0.487338 0.275675 0.347274 0.151179
H2    H     H_    0.105769 0.275017 0.513152 0.176258
H3    H     H_    0.105987 0.633816 0.567755 0.166981
H4    H     H_    0.105944 0.371356 0.568636 0.166914
H5    H     H_    0.890736 0.633736 0.567493 0.165612
H6    H     H_    0.890648 0.371022 0.568290 0.165607
H7    H     H_    0.488438 0.273924 0.258995 0.136826
H8    H     H_    0.894260 0.725801 0.511362 0.186201
H9    H     H_    0.894366 0.275034 0.512724 0.185244
H10   H     H_    0.109808 0.589888 0.431219 0.173451
H11   H     H_    0.109742 0.404912 0.431832 0.173595
H12   H     H_    0.517244 0.715836 0.257536 0.137681
H13   H     H_    0.895486 0.589765 0.430901 0.191530
H14   H     H_    0.895497 0.405381 0.431450 0.191896
H15   H     H_    0.301886 0.118889 0.486024 0.150068
H16   H     H_    0.302098 0.881327 0.485694 0.150123
H17   H     H_    0.344095 0.120218 0.548038 0.158039
H18   H     H_    0.343522 0.880445 0.547787 0.157377
H19   H     H_    0.460006 0.114834 0.424353 0.100916
H20   H     H_    0.461115 0.883049 0.424225 0.103204
H21   H     H_    0.686920 0.119191 0.526946 0.149682
H22   H     H_    0.686563 0.880725 0.527349 0.150201
H23   H     H_    0.816911 0.531402 0.119074 0.193513
H24   H     H_    0.565699 0.119738 0.571349 0.152054
H25   H     H_    0.564675 0.882211 0.571468 0.151993
H26   H     H_    0.189448 0.422426 0.123437 0.197072
H27   H     H_    0.486207 0.723602 0.653193 0.150877
H28   H     H_    0.485068 0.723601 0.741585 0.136128
H29   H     H_    0.189456 0.569101 0.970271 0.154272
H30   H     H_    0.515961 0.720464 0.345991 0.153434
H31   H     H_    0.816217 0.442400 0.963098 0.158736
H32   H     H_    0.512617 0.278739 0.653421 0.150228
H33   H     H_    0.811603 0.444111 0.877320 0.199926
H34   H     H_    0.511404 0.281562 0.741818 0.135870
H35   H     H_    0.818741 0.524691 0.033209 0.152628
H36   H     H_    0.105570 0.725858 0.511624 0.176486
N1    N     N_R   0.502249 0.492451 0.201500 -0.359606
N2    N     N_R   0.497651 0.503389 0.798532 -0.357794
N3    N     N_3   0.499750 0.138610 0.498940 -0.054375
N4    N     N_3   0.499750 0.861390 0.498940 -0.054314
N5    N     N_1   0.745128 0.188648 0.417187 -0.228481
N6    N     N_1   0.746900 0.810810 0.417902 -0.229788
N7    N     N_1   0.057399 0.617477 0.862119 -0.161651
N8    N     N_1   0.067001 0.347836 0.014565 -0.215666
O1    O     O_R   0.314910 0.616040 0.499990 -0.636057
O2    O     O_2   0.280121 0.542533 0.796992 -0.545812
O3    O     O_2   0.722021 0.524316 0.201450 -0.546136
O4    O     O_2   0.716394 0.465488 0.796484 -0.549536
O5    O     O_R   0.314910 0.383960 0.499990 -0.636186
O6    O     O_R   0.500140 0.616020 0.428740 -0.624319
O7    O     O_R   0.500140 0.383980 0.428740 -0.623991
O8    O     O_R   0.685320 0.616040 0.499970 -0.624407
O9    O     O_R   0.685320 0.383960 0.499970 -0.624691
O10   O     O_R   0.500090 0.616050 0.571230 -0.632266
O11   O     O_R   0.500090 0.383950 0.571230 -0.632291
O12   O     O_2   0.282867 0.457970 0.203996 -0.549320
Zn1   Zn    Zn3+2 0.500150 0.654960 0.499980 0.918982
Zn2   Zn    Zn3+2 0.500150 0.345040 0.499980 0.918953

loop_
_geom_bond_atom_site_label_1
_geom_bond_atom_site_label_2
_ccdc_geom_bond_type
C10   C27   A    
C11   N2    A    
C30   C32   S    
C4    O7    A    
C34   C56   A    
C8    C13   A    
C22   C29   A    
C41   C42   S    
C35   C36   S    
C31   H4    S    
C25   C56   A    
C44   H25   S    
N3    Zn2   S    
C16   O8    A    
C7    C8    A    
C45   C46   A    
C28   O10   A    
C24   C55   A    
C4    O6    A    
C12   C23   A    
C26   C27   A    
C23   N1    S    
C50   H1    S    
O6    Zn1   S    
C42   N4    S    
C41   H19   S    
C39   N3    S    
C43   H21   S    
C49   C57   A    
C25   C29   A    
C18   C19   A    
O7    Zn2   S    
C44   N4    S    
C46   N1    A    
C20   C24   A    
C53   N7    T    
C8    C9    A    
C47   O3    S    
C4    C57   S    
C31   C33   S    
C27   H33   S    
O9    Zn2   S    
C39   H17   S    
C9    C10   A    
C1    O1    A    
C17   C58   A    
C15   H27   S    
O11   Zn2   S    
C21   C22   A    
C25   H23   S    
C49   H30   S    
C2    C6    A    
C1    C36   S    
C51   N5    T    
C38   H14   S    
C46   O12   S    
C13   N2    A    
C2    C20   A    
C44   H22   S    
C35   C38   S    
C14   H28   S    
C28   O11   A    
C39   C40   S    
C21   C34   A    
C52   N6    T    
C33   C37   S    
C6    H29   S    
C40   H18   S    
C26   H31   S    
C31   H2    S    
O1    Zn1   S    
C43   C44   S    
C5    C9    A    
C37   C38   S    
C40   N4    S    
C11   O4    S    
C17   C18   A    
C34   C45   A    
C32   C37   S    
C13   O2    S    
C45   C55   A    
C1    O5    A    
C48   C49   A    
C42   H20   S    
C15   C58   A    
C41   N3    S    
C2    C5    A    
C7    C53   S    
C33   H9    S    
C32   H8    S    
C38   H13   S    
C23   C48   A    
C14   C15   A    
C50   C57   A    
C14   C19   A    
C54   N8    T    
C3    C26   A    
C17   H32   S    
C43   N3    S    
C32   H5    S    
C48   H12   S    
C3    C5    A    
C12   C50   A    
C6    C7    A    
C28   C58   S    
C12   H7    S    
C16   C37   S    
C30   C36   S    
C18   H34   S    
C30   H36   S    
C29   H35   S    
N4    Zn1   S    
C35   H10   S    
C33   H6    S    
C40   H16   S    
C39   H15   S    
O5    Zn2   S    
C10   C11   A    
C20   C21   A    
C35   H11   S    
C30   H3    S    
C43   H24   S    
C47   N1    A    
C31   C36   S    
C3    C22   A    
C55   H26   S    
C24   C54   S    
O8    Zn1   S    
C41   C51   S    
O10   Zn1   S    
C19   N2    S    
C16   O9    A    
C42   C52   S    
C47   C56   A    
