data_mof_unit_49989.cif
_audit_creation_date              2012-10-26T19:09:54-0400
_audit_creation_method            fapswitch 2.2
_symmetry_space_group_name_H-M    P1
_symmetry_Int_Tables_number       1
_space_group_crystal_system       triclinic
_cell_length_a                    15.153361
_cell_length_b                    15.180873
_cell_length_c                    9.412786
_cell_angle_alpha                 90.000895
_cell_angle_beta                  89.987329
_cell_angle_gamma                 90.00094
_cell_volume                      2165.32899323

loop_
_atom_site_label
_atom_site_type_symbol
_atom_type_description
_atom_site_fract_x
_atom_site_fract_y
_atom_site_fract_z
_atom_type_partial_charge
C1    C     C_R   0.120252 0.379919 0.500199 0.549392
C2    C     C_R   0.880007 0.620171 0.500214 0.550640
C3    C     C_R   0.380016 0.879819 0.500211 0.550586
C4    C     C_R   0.380003 0.120168 0.500214 0.550637
C5    C     C_3   0.786204 0.285209 0.655730 -0.232056
C6    C     C_3   0.844963 0.227328 0.423224 -0.233195
C7    C     C_3   0.786129 0.714722 0.655746 -0.232010
C8    C     C_3   0.844972 0.772683 0.423339 -0.233188
C9    C     C_3   0.286206 0.785207 0.655733 -0.232047
C10   C     C_3   0.344963 0.727328 0.423218 -0.233189
C11   C     C_3   0.286072 0.214665 0.655742 -0.232021
C12   C     C_R   0.120267 0.620067 0.500198 0.549530
C13   C     C_3   0.344989 0.272700 0.423439 -0.233198
C14   C     C_3   0.215056 0.713654 0.655725 -0.231008
C15   C     C_3   0.272936 0.655414 0.422951 -0.233168
C16   C     C_3   0.214914 0.286213 0.655733 -0.230773
C17   C     C_3   0.272964 0.344613 0.423175 -0.233204
C18   C     C_3   0.715049 0.213660 0.655722 -0.230992
C19   C     C_3   0.772937 0.155413 0.422962 -0.233169
C20   C     C_3   0.714974 0.786272 0.655738 -0.230790
C21   C     C_3   0.772947 0.844596 0.423072 -0.233197
C22   C     C_3   0.727013 0.344829 0.424742 -0.233366
C23   C     C_R   0.620256 0.879923 0.500199 0.549400
C24   C     C_3   0.727020 0.655178 0.424643 -0.233310
C25   C     C_3   0.227011 0.844830 0.424745 -0.233363
C26   C     C_3   0.227039 0.155196 0.424547 -0.233309
C27   C     C_3   0.811088 0.310822 0.500942 0.058602
C28   C     C_3   0.811070 0.689163 0.500951 0.058586
C29   C     C_3   0.311088 0.810822 0.500942 0.058607
C30   C     C_3   0.311064 0.189156 0.500951 0.058578
C31   C     C_3   0.189278 0.688984 0.500926 0.058368
C32   C     C_3   0.189252 0.310992 0.500933 0.058304
C33   C     C_3   0.689277 0.188985 0.500926 0.058361
C34   C     C_R   0.620266 0.120067 0.500198 0.549520
C35   C     C_3   0.689260 0.810998 0.500933 0.058316
C36   C     C_3   0.154987 0.772927 0.425015 -0.233643
C37   C     C_3   0.155013 0.227098 0.424816 -0.233631
C38   C     C_3   0.654989 0.272925 0.425007 -0.233649
C39   C     C_3   0.654994 0.727079 0.424913 -0.233625
C40   C     C_3   0.953594 0.577255 0.083683 -0.102371
C41   C     C_3   0.953579 0.577239 0.916369 -0.102607
C42   C     C_3   0.958364 0.419984 0.083694 -0.102681
C43   C     C_3   0.958355 0.419996 0.916351 -0.102838
C44   C     C_3   0.453924 0.077458 0.083684 -0.102389
C45   C     C_3   0.092288 0.502699 0.083844 -0.104313
C46   C     C_3   0.453909 0.077442 0.916369 -0.102625
C47   C     C_3   0.458024 0.920168 0.083693 -0.102661
C48   C     C_3   0.458015 0.920180 0.916353 -0.102822
C49   C     C_3   0.092282 0.502706 0.916133 -0.104035
C50   C     C_3   0.592299 0.002321 0.083844 -0.104316
C51   C     C_3   0.592292 0.002326 0.916133 -0.104040
C52   C     C_R   0.880017 0.379820 0.500211 0.550583
Cu1   Cu    Cu3+1 0.000100 0.500000 0.642410 0.856225
Cu2   Cu    Cu3+1 0.000100 0.500000 0.357590 0.856661
Cu3   Cu    Cu3+1 0.500100 0.000000 0.642410 0.856224
Cu4   Cu    Cu3+1 0.500100 1.000000 0.357590 0.856661
H1    H     H_    0.761184 0.343918 0.714147 0.109630
H2    H     H_    0.905302 0.201883 0.476747 0.096160
H3    H     H_    0.845320 0.739371 0.713526 0.109039
H4    H     H_    0.905293 0.798114 0.476939 0.096194
H5    H     H_    0.345421 0.760538 0.713424 0.108925
H6    H     H_    0.405302 0.701881 0.476739 0.096163
H7    H     H_    0.345243 0.239301 0.713589 0.109046
H8    H     H_    0.405292 0.298113 0.477111 0.096196
H9    H     H_    0.240401 0.654581 0.712788 0.108204
H10   H     H_    0.298446 0.595023 0.475993 0.095788
H11   H     H_    0.240201 0.345245 0.712977 0.108568
H12   H     H_    0.863253 0.243557 0.311703 0.110286
H13   H     H_    0.298438 0.404966 0.476375 0.095729
H14   H     H_    0.740388 0.154589 0.712796 0.108226
H15   H     H_    0.798446 0.095026 0.476015 0.095785
H16   H     H_    0.740283 0.845324 0.712904 0.108523
H17   H     H_    0.798439 0.904969 0.476194 0.095727
H18   H     H_    0.701795 0.404908 0.479074 0.096611
H19   H     H_    0.742663 0.363388 0.313132 0.111035
H20   H     H_    0.701785 0.595078 0.478893 0.096584
H21   H     H_    0.742707 0.636660 0.313027 0.110834
H22   H     H_    0.201795 0.904910 0.479076 0.096607
H23   H     H_    0.761085 0.655992 0.714077 0.109378
H24   H     H_    0.242659 0.863388 0.313132 0.111014
H25   H     H_    0.201787 0.095080 0.478728 0.096585
H26   H     H_    0.242762 0.136714 0.312931 0.110858
H27   H     H_    0.983949 0.639282 0.123443 0.105739
H28   H     H_    0.983868 0.639278 0.876521 0.105592
H29   H     H_    0.992333 0.359893 0.123587 0.105633
H30   H     H_    0.992270 0.359892 0.876372 0.105485
H31   H     H_    0.484534 0.139356 0.123456 0.105732
H32   H     H_    0.484456 0.139352 0.876509 0.105584
H33   H     H_    0.491743 0.859935 0.123578 0.105637
H34   H     H_    0.863301 0.756491 0.311818 0.110367
H35   H     H_    0.491678 0.859934 0.876379 0.105489
H36   H     H_    0.883969 0.577139 0.121085 0.108991
H37   H     H_    0.883947 0.577032 0.879127 0.108216
H38   H     H_    0.888826 0.415913 0.120863 0.109341
H39   H     H_    0.888810 0.416009 0.879341 0.108508
H40   H     H_    0.384296 0.077634 0.121068 0.109018
H41   H     H_    0.384275 0.077529 0.879145 0.108241
H42   H     H_    0.388472 0.916392 0.120876 0.109318
H43   H     H_    0.388454 0.916489 0.879328 0.108489
H44   H     H_    0.156192 0.737975 0.714762 0.112078
H45   H     H_    0.261182 0.843915 0.714148 0.109609
H46   H     H_    0.256687 0.637499 0.311301 0.110067
H47   H     H_    0.156004 0.261840 0.714596 0.112010
H48   H     H_    0.256789 0.362604 0.311532 0.110347
H49   H     H_    0.656184 0.237988 0.714747 0.112081
H50   H     H_    0.756690 0.137492 0.311315 0.110085
H51   H     H_    0.656084 0.761922 0.714680 0.112029
H52   H     H_    0.756738 0.862548 0.311422 0.110329
H53   H     H_    0.094959 0.798069 0.479855 0.096048
H54   H     H_    0.136058 0.757350 0.313543 0.112646
H55   H     H_    0.094949 0.201921 0.479506 0.095927
H56   H     H_    0.363253 0.743559 0.311696 0.110286
H57   H     H_    0.136160 0.242749 0.313340 0.112632
H58   H     H_    0.594959 0.298067 0.479839 0.096043
H59   H     H_    0.636066 0.257344 0.313536 0.112652
H60   H     H_    0.594948 0.701918 0.479677 0.095934
H61   H     H_    0.636103 0.742692 0.313438 0.112622
H62   H     H_    0.127378 0.562431 0.122181 0.108329
H63   H     H_    0.127345 0.562450 0.877839 0.107633
H64   H     H_    0.130925 0.445266 0.122530 0.107828
H65   H     H_    0.130922 0.445287 0.877432 0.107217
H66   H     H_    0.627641 0.061898 0.122205 0.108296
H67   H     H_    0.261013 0.155916 0.714002 0.109384
H68   H     H_    0.627612 0.061913 0.877809 0.107606
H69   H     H_    0.630691 0.944720 0.122507 0.107864
H70   H     H_    0.630685 0.944737 0.877460 0.107250
H71   H     H_    0.363353 0.256542 0.311922 0.110363
H72   H     H_    0.845418 0.260536 0.713419 0.108917
N1    N     N_3   0.001260 0.500000 0.143650 -0.218014
N2    N     N_3   0.001260 0.500000 0.856350 -0.217497
N3    N     N_3   0.501260 0.000000 0.143650 -0.218015
N4    N     N_3   0.501260 0.000000 0.856350 -0.217498
O1    O     O_R   0.091250 0.408820 0.620260 -0.514841
O2    O     O_R   0.908940 0.408800 0.379740 -0.516142
O3    O     O_R   0.908940 0.591200 0.620260 -0.516668
O4    O     O_R   0.908940 0.591200 0.379740 -0.516192
O5    O     O_R   0.408940 0.908800 0.620260 -0.516611
O6    O     O_R   0.408940 0.908800 0.379740 -0.516146
O7    O     O_R   0.408940 0.091200 0.620260 -0.516664
O8    O     O_R   0.408940 0.091200 0.379740 -0.516189
O9    O     O_R   0.091250 0.408820 0.379740 -0.513961
O10   O     O_R   0.091250 0.591180 0.620260 -0.514985
O11   O     O_R   0.091250 0.591180 0.379740 -0.514178
O12   O     O_R   0.591250 0.908820 0.620260 -0.514852
O13   O     O_R   0.591250 0.908820 0.379740 -0.513973
O14   O     O_R   0.591250 0.091180 0.620260 -0.514974
O15   O     O_R   0.591250 0.091180 0.379740 -0.514162
O16   O     O_R   0.908940 0.408800 0.620260 -0.516605

loop_
_geom_bond_atom_site_label_1
_geom_bond_atom_site_label_2
_ccdc_geom_bond_type
C45   H62   S    
C18   H14   S    
C40   N1    S    
C17   H13   S    
C25   H24   S    
C52   O2    A    
C6    H2    S    
C19   H15   S    
C50   H66   S    
C14   C31   S    
Cu3   Cu4   S    
Cu1   Cu2   S    
C44   N3    S    
C45   N1    S    
C6    C19   S    
C23   O13   A    
C47   H42   S    
C9    H5    S    
C17   H48   S    
C11   H7    S    
C10   C15   S    
C46   N4    S    
C41   N2    S    
C38   H58   S    
C37   H57   S    
Cu2   O2    S    
C21   H17   S    
C24   C39   S    
Cu3   O7    S    
Cu1   O10   S    
C11   C16   S    
Cu4   O13   S    
C3    C29   S    
C5    C27   S    
C20   C35   S    
C41   H37   S    
C47   C48   S    
C11   C30   S    
C48   H35   S    
Cu1   O3    S    
C43   H39   S    
C10   H56   S    
C3    O5    A    
C44   H31   S    
C50   H69   S    
C9    C29   S    
C20   H51   S    
C6    H12   S    
Cu2   O11   S    
C49   H65   S    
C52   O16   A    
C51   H68   S    
C47   H33   S    
C40   H27   S    
C10   H6    S    
C22   H19   S    
C1    O1    A    
C7    H3    S    
C44   C46   S    
C8    C21   S    
C46   H32   S    
C25   C29   S    
C33   C34   S    
C16   H11   S    
C25   H22   S    
C21   H52   S    
C13   C30   S    
Cu1   O1    S    
C19   C33   S    
C42   H29   S    
C24   H20   S    
Cu3   O14   S    
C5    C18   S    
C39   H61   S    
C15   H10   S    
C7    C20   S    
Cu1   O16   S    
C2    O4    A    
C7    C28   S    
C2    O3    A    
C47   N3    S    
C35   C39   S    
C9    C14   S    
C44   H40   S    
C4    O8    A    
Cu4   O6    S    
C34   O15   A    
C16   H47   S    
C6    C27   S    
C45   C49   S    
Cu2   O4    S    
C50   C51   S    
C3    O6    A    
C32   C37   S    
C40   H36   S    
C15   C31   S    
C45   H64   S    
C9    H45   S    
C40   C41   S    
C46   H41   S    
C39   H60   S    
C26   H25   S    
C23   C35   S    
C22   C27   S    
C12   C31   S    
C36   H54   S    
C8    C28   S    
C23   O12   A    
C8    H34   S    
C42   C43   S    
C22   H18   S    
C27   C52   S    
C7    H23   S    
C48   H43   S    
Cu3   O12   S    
C42   H38   S    
C43   H30   S    
Cu2   N1    S    
C43   N2    S    
C11   H67   S    
C24   C28   S    
C51   H70   S    
C51   N4    S    
C26   C37   S    
C14   H44   S    
C21   C35   S    
C13   C17   S    
C16   C32   S    
C49   N2    S    
C33   C38   S    
Cu3   O5    S    
C12   O11   A    
C5    H1    S    
C34   O14   A    
Cu4   O15   S    
C18   H49   S    
C8    H4    S    
C4    O7    A    
C48   N4    S    
C38   H59   S    
C41   H28   S    
C10   C29   S    
C49   H63   S    
C13   H8    S    
Cu4   O8    S    
C5    H72   S    
C14   H9    S    
C12   O10   A    
C42   N1    S    
C1    C32   S    
C15   H46   S    
C18   C33   S    
C37   H55   S    
Cu4   N3    S    
C1    O9    A    
C50   N3    S    
C25   C36   S    
C13   H71   S    
C19   H50   S    
C24   H21   S    
Cu2   O9    S    
C26   H26   S    
Cu3   N4    S    
C36   H53   S    
C17   C32   S    
C31   C36   S    
C20   H16   S    
C2    C28   S    
Cu1   N2    S    
C4    C30   S    
C26   C30   S    
C22   C38   S    
