data_mof_unit_18757.cif
_audit_creation_date              2013-03-05T15:41:54-0500
_audit_creation_method            fapswitch 2.2
_symmetry_space_group_name_H-M    P1
_symmetry_Int_Tables_number       1
_space_group_crystal_system       triclinic
_cell_length_a                    23.510216
_cell_length_b                    8.733717
_cell_length_c                    7.516223
_cell_angle_alpha                 103.546161
_cell_angle_beta                  94.191381
_cell_angle_gamma                 93.346814
_cell_volume                      1491.82890848

loop_
_atom_site_label
_atom_site_type_symbol
_atom_site_description
_atom_site_fract_x
_atom_site_fract_y
_atom_site_fract_z
_atom_type_partial_charge
O1    O     O_R   0.504120 0.286130 0.619770 -0.541231
O2    O     O_R   0.495880 0.713870 0.380230 -0.541694
O3    O     O_R   0.493410 0.256770 0.308360 -0.527703
O4    O     O_R   0.506590 0.743230 0.691640 -0.528241
C1    C     C_R   0.498027 0.200084 0.453251 0.780960
C2    C     C_R   0.501970 0.799916 0.546750 0.779345
O5    O     O_R   0.423230 0.514630 0.655730 -0.567006
O6    O     O_R   0.576770 0.485370 0.344270 -0.567243
O7    O     O_R   0.412530 0.485280 0.344320 -0.558845
O8    O     O_R   0.587470 0.514720 0.655680 -0.557274
C3    C     C_R   0.391182 0.500539 0.501996 0.811007
C4    C     C_R   0.608816 0.499371 0.497991 0.813139
Cu1   Cu    Cu3+1 0.506340 0.517380 0.684380 1.173487
Cu2   Cu    Cu3+1 0.493660 0.482620 0.315620 1.172644
C5    C     C_R   0.883970 0.639147 0.539554 0.662625
C6    C     C_R   0.116080 0.358962 0.464404 0.737570
N1    N     N_R   0.851584 0.497863 0.493406 -0.477068
N2    N     N_R   0.148426 0.500306 0.508572 -0.477224
C7    C     C_R   0.876121 0.357019 0.451274 0.724562
C8    C     C_R   0.123927 0.641088 0.552699 0.659033
C9    C     C_R   0.935813 0.354241 0.450593 -0.214743
C10   C     C_R   0.064255 0.643811 0.554373 -0.199567
C11   C     C_R   0.969926 0.498796 0.500638 -0.170615
C12   C     C_R   0.030139 0.499257 0.504277 -0.170293
C13   C     C_R   0.943956 0.642882 0.547208 -0.198108
C14   C     C_R   0.056109 0.355170 0.457755 -0.210035
C15   C     C_R   0.962206 0.211430 0.401879 0.631232
C16   C     C_R   0.037873 0.786576 0.603847 0.631199
C17   C     C_R   0.021547 0.211882 0.405414 0.628078
C18   C     C_R   0.978532 0.786125 0.600306 0.623904
O9    O     O_2   0.857942 0.775323 0.576388 -0.390370
O10   O     O_2   0.142137 0.222806 0.428468 -0.367191
O11   O     O_2   0.842698 0.220362 0.412543 -0.379227
O12   O     O_2   0.157360 0.777758 0.592392 -0.403138
C19   C     C_R   0.233966 0.440396 0.342642 0.684261
C20   C     C_R   0.755100 0.435473 0.330352 0.689407
C21   C     C_R   0.293161 0.439561 0.342005 -0.235677
C22   C     C_R   0.695815 0.433773 0.332351 -0.218085
H1    H     H_    0.311054 0.389945 0.214258 0.228001
H2    H     H_    0.669294 0.379649 0.207414 0.230429
C23   C     C_R   0.328752 0.501409 0.504619 -0.127127
C24   C     C_R   0.671238 0.498127 0.495300 -0.132358
C25   C     C_R   0.304136 0.565937 0.667396 -0.136276
C26   C     C_R   0.706862 0.559881 0.657815 -0.136654
H3    H     H_    0.330554 0.620772 0.792325 0.224467
H4    H     H_    0.689102 0.610049 0.785623 0.224786
C27   C     C_R   0.244871 0.563834 0.669042 -0.137409
C28   C     C_R   0.766002 0.558588 0.656830 -0.135266
H5    H     H_    0.226390 0.612293 0.796107 0.204988
H6    H     H_    0.792931 0.605617 0.783388 0.207049
C29   C     C_R   0.209477 0.500926 0.506859 0.165327
C30   C     C_R   0.790490 0.497490 0.493120 0.161147
C31   C     C_2   0.495477 0.032199 0.427733 0.329360
C32   C     C_2   0.504516 0.967802 0.572273 0.331074
N3    N     N_2   0.484110 0.456420 0.038520 0.050276
N4    N     N_2   0.515890 0.543580 0.961480 0.050006
F1    F     F_    0.930906 0.070128 0.347899 -0.523183
F2    F     F_    0.069180 0.927852 0.658167 -0.518674
F3    F     F_    0.044678 0.071006 0.354339 -0.531933
F4    F     F_    0.955407 0.926976 0.651717 -0.532448
F5    F     F_    0.200422 0.383233 0.183256 -0.609136
F6    F     F_    0.778096 0.376916 0.170203 -0.612361
F7    F     F_    0.482472 0.943330 0.252877 -0.594203
F8    F     F_    0.517518 0.056671 0.747133 -0.592452
N5    N     N_R   0.430678 0.403774 0.947902 0.263122
O13   O     O_R   0.420661 0.255503 0.863825 -0.290753
O14   O     O_R   0.387548 0.487025 0.991752 -0.368366
N6    N     N_R   0.569314 0.596289 0.052117 0.261576
O15   O     O_R   0.579288 0.744528 0.136215 -0.291832
O16   O     O_R   0.612465 0.513177 0.008148 -0.363051

loop_
_geom_bond_atom_site_label_1
_geom_bond_atom_site_label_2
_geom_bond_distance
_ccdc_geom_bond_type
C21   H1    1.082629 S    
O5    C3    1.308933 A    
O7    Cu2   1.936018 S    
C5    O9    1.349472 S    
C16   F2    1.358273 S    
C15   C17   1.393168 A    
C31   F7    1.363400 S    
N4    N6    1.383510 S    
C20   C30   1.403756 A    
C28   C30   1.400764 A    
O6    C4    1.308948 A    
Cu1   N4    2.035433 S    
C8    O12   1.349425 S    
C10   C12   1.412055 A    
C16   C18   1.393185 A    
Cu2   N3    2.035433 S    
C9    C15   1.408701 A    
C19   C21   1.392484 A    
C27   H5    1.082958 S    
C6    N2    1.368912 A    
C10   C16   1.408707 A    
Cu1   Cu2   2.708824 S    
C22   H2    1.079859 S    
C25   H3    1.079895 S    
C23   C25   1.402851 A    
O2    C2    1.293204 A    
O3    Cu2   1.960098 S    
C24   C26   1.404813 A    
C2    C32   1.430605 S    
C21   C23   1.405086 A    
O1    C1    1.293197 A    
C13   C18   1.408946 A    
O8    C4    1.301905 A    
N1    C30   1.435989 S    
C28   H6    1.083032 S    
C7    C9    1.405340 A    
C12   C14   1.411898 A    
N2    C29   1.436003 S    
C22   C24   1.403104 A    
N2    C8    1.368623 A    
O7    C3    1.301902 A    
C9    C11   1.412038 A    
C19   C29   1.402920 A    
O2    Cu2   1.960141 S    
C20   F6    1.357125 S    
N3    N4    1.294734 D    
C5    C13   1.405408 A    
O4    C2    1.297861 A    
C6    O10   1.349476 S    
C11   C12   1.413634 A    
C4    C24   1.469808 S    
C20   C22   1.394222 A    
C26   C28   1.391645 A    
O5    Cu1   1.948176 S    
C11   C13   1.411913 A    
O1    Cu1   1.960141 S    
C32   F8    1.363419 S    
C14   C17   1.408919 A    
C19   F5    1.357240 S    
N5    O13   1.300386 A    
C15   F1    1.358272 S    
C3    C23   1.469752 S    
C1    C31   1.430600 S    
O4    Cu1   1.960098 S    
C5    N1    1.368872 A    
N6    O16   1.299192 A    
N1    C7    1.368674 A    
O6    Cu2   1.948176 S    
N5    O14   1.299276 A    
C26   H4    1.082557 S    
N3    N5    1.383531 S    
C7    O11   1.349440 S    
C31   C32   1.344688 D    
C25   C27   1.393366 A    
O8    Cu1   1.936018 S    
C27   C29   1.401749 A    
C17   F3    1.358050 S    
C8    C10   1.405427 A    
N6    O15   1.300088 A    
O3    C1    1.297865 A    
C6    C14   1.405330 A    
C18   F4    1.358050 S    
