data_mof_unit_63490.cif
_audit_creation_date              2012-10-26T18:57:49-0400
_audit_creation_method            fapswitch 2.2
_symmetry_space_group_name_H-M    P1
_symmetry_Int_Tables_number       1
_space_group_crystal_system       triclinic
_cell_length_a                    15.11124
_cell_length_b                    13.932393
_cell_length_c                    15.968292
_cell_angle_alpha                 89.847831
_cell_angle_beta                  90.923191
_cell_angle_gamma                 89.877638
_cell_volume                      3361.43985225

loop_
_atom_site_label
_atom_site_type_symbol
_atom_type_description
_atom_site_fract_x
_atom_site_fract_y
_atom_site_fract_z
_atom_type_partial_charge
C1    C     C_R   0.329901 0.500185 0.502233 0.545398
C2    C     C_R   0.430370 0.791414 0.464876 0.351948
C3    C     C_R   0.458027 0.209755 0.436611 0.352326
C4    C     C_R   0.570539 0.791207 0.532949 0.342138
C5    C     C_R   0.500129 0.054768 0.498975 -0.004241
C6    C     C_R   0.501226 0.945567 0.496909 -0.017030
C7    C     C_R   0.499688 0.500109 0.341276 0.546054
C8    C     C_R   0.499997 0.499946 0.658710 0.544751
C9    C     C_R   0.487449 0.586242 0.955817 -0.096221
C10   C     C_R   0.510933 0.413896 0.044089 -0.092714
C11   C     C_R   0.487332 0.586318 0.043204 -0.100439
C12   C     C_R   0.670110 0.499924 0.498094 0.552243
C13   C     C_R   0.511050 0.413818 0.956692 -0.098871
C14   C     C_R   0.499313 0.500000 0.912616 0.043433
C15   C     C_R   0.499094 0.500153 0.087298 0.041284
C16   C     C_1   0.499494 0.499962 0.823056 -0.064035
C17   C     C_1   0.499199 0.500278 0.176885 -0.050274
C18   C     C_1   0.499391 0.500301 0.252045 -0.015617
C19   C     C_1   0.499685 0.499949 0.747915 -0.040107
C20   C     C_R   0.096215 0.589056 0.523276 0.257042
C21   C     C_R   0.904634 0.413587 0.477116 0.259404
C22   C     C_R   0.903446 0.585450 0.469414 0.255795
C23   C     C_R   0.048380 0.502316 0.513864 0.072787
C24   C     C_R   0.096101 0.417518 0.534309 0.258539
C25   C     C_R   0.187736 0.588366 0.514664 -0.087708
C26   C     C_R   0.812979 0.413172 0.484914 -0.085659
C27   C     C_R   0.811848 0.585876 0.477538 -0.087527
C28   C     C_R   0.187741 0.416043 0.526272 -0.111332
C29   C     C_R   0.233460 0.501078 0.509908 -0.079026
C30   C     C_R   0.766606 0.499844 0.491197 -0.075886
C31   C     C_3   0.497427 0.023723 0.686667 -0.137662
C32   C     C_3   0.295057 0.943885 0.523298 -0.076179
C33   C     C_3   0.506709 0.063176 0.300912 -0.101477
C34   C     C_R   0.951787 0.500587 0.488196 0.070823
C35   C     C_3   0.713213 0.928043 0.474751 -0.052212
C36   C     C_3   0.565301 0.249102 0.704063 -0.050176
C37   C     C_3   0.364706 0.755894 0.339780 -0.063341
C38   C     C_3   0.321871 0.242477 0.379797 -0.052085
C39   C     C_3   0.633493 0.758434 0.659853 -0.067425
C40   C     C_R   0.533981 0.106715 0.568722 0.236368
C41   C     C_R   0.425624 0.892791 0.471889 0.214130
C42   C     C_R   0.465693 0.108514 0.430763 0.224320
C43   C     C_R   0.576657 0.892278 0.522407 0.208343
C44   C     C_R   0.539685 0.208981 0.564947 0.373039
Cl1   Cl    Cl    0.051425 0.690354 0.573759 -0.513757
Cl2   Cl    Cl    0.951276 0.312881 0.427229 -0.516703
Cl3   Cl    Cl    0.947884 0.679434 0.408837 -0.520940
Cl4   Cl    Cl    0.050253 0.324711 0.595297 -0.508374
Cu1   Cu    Cu3+1 0.500000 0.596430 0.500000 1.031192
Cu2   Cu    Cu3+1 0.500000 0.403570 0.500000 1.050248
H1    H     H_    0.478154 0.653299 0.076323 0.109216
H2    H     H_    0.442909 0.076996 0.693429 0.083835
H3    H     H_    0.523367 0.007283 0.750484 0.138017
H4    H     H_    0.327981 0.986974 0.573374 0.082762
H5    H     H_    0.278760 0.870893 0.547003 0.151506
H6    H     H_    0.231798 0.980226 0.506601 0.179416
H7    H     H_    0.565521 0.023745 0.325987 0.099007
H8    H     H_    0.525159 0.137665 0.282967 0.146558
H9    H     H_    0.484078 0.025766 0.243228 0.139346
H10   H     H_    0.774849 0.968129 0.489426 0.187584
H11   H     H_    0.684466 0.958753 0.415930 0.088192
H12   H     H_    0.520286 0.346855 0.923548 0.103342
H13   H     H_    0.731757 0.851527 0.465399 0.157282
H14   H     H_    0.585846 0.313918 0.739413 0.132596
H15   H     H_    0.492029 0.243320 0.709104 0.087354
H16   H     H_    0.599294 0.187966 0.735461 0.167684
H17   H     H_    0.318595 0.704367 0.309320 0.141951
H18   H     H_    0.431930 0.741644 0.314916 0.105438
H19   H     H_    0.342687 0.829346 0.321807 0.173027
H20   H     H_    0.304415 0.173950 0.348376 0.180970
H21   H     H_    0.298302 0.241604 0.445554 0.105593
H22   H     H_    0.285664 0.300825 0.346420 0.144936
H23   H     H_    0.478358 0.653166 0.922004 0.111510
H24   H     H_    0.679976 0.708611 0.692453 0.147187
H25   H     H_    0.566065 0.743874 0.684021 0.103746
H26   H     H_    0.653886 0.832783 0.676043 0.171779
H27   H     H_    0.520084 0.346980 0.077902 0.119654
H28   H     H_    0.223320 0.655707 0.517705 0.197988
H29   H     H_    0.777836 0.345621 0.480548 0.188764
H30   H     H_    0.775765 0.652223 0.467024 0.186457
H31   H     H_    0.223465 0.350019 0.538921 0.156945
H32   H     H_    0.470815 0.955848 0.660419 0.108148
N1    N     N_R   0.500000 0.258690 0.500000 -0.268455
N2    N     N_R   0.500000 0.741310 0.500000 -0.267480
O1    O     O_R   0.371460 0.581430 0.500010 -0.452052
O2    O     O_3   0.347386 0.939318 0.451176 -0.518919
O3    O     O_3   0.437144 0.062671 0.358598 -0.524489
O4    O     O_3   0.654959 0.938789 0.542137 -0.507840
O5    O     O_3   0.593836 0.259041 0.620607 -0.497649
O6    O     O_3   0.361218 0.742425 0.427285 -0.523232
O7    O     O_3   0.413528 0.260540 0.374531 -0.524877
O8    O     O_3   0.638621 0.742281 0.572875 -0.524140
O9    O     O_R   0.628540 0.418570 0.499990 -0.472435
O10   O     O_R   0.628540 0.581430 0.499990 -0.454656
O11   O     O_R   0.371460 0.418570 0.500010 -0.503301
O12   O     O_R   0.499980 0.581410 0.380310 -0.504211
O13   O     O_R   0.500020 0.418590 0.619690 -0.473832
O14   O     O_R   0.500020 0.581410 0.619690 -0.493616
O15   O     O_R   0.499980 0.418590 0.380310 -0.440665
O16   O     O_3   0.567910 0.058808 0.638197 -0.510529

loop_
_geom_bond_atom_site_label_1
_geom_bond_atom_site_label_2
_ccdc_geom_bond_type
C36   O5    S    
C5    C42   A    
C38   H20   S    
C3    C42   A    
C33   H8    S    
C37   H19   S    
C2    N2    A    
C31   H2    S    
C21   C26   A    
C44   N1    A    
C41   O2    S    
Cu2   O15   S    
C31   H32   S    
C7    O15   A    
C37   O6    S    
C43   O4    S    
Cu1   N2    S    
C28   C29   A    
C10   C15   A    
C5    C6    S    
C36   H16   S    
Cu2   O11   S    
C20   C25   A    
C2    C41   A    
C37   H18   S    
C3    O7    S    
C39   H24   S    
C2    O6    S    
C8    O14   A    
Cu1   O14   S    
C11   C15   A    
C13   H12   S    
C6    C41   A    
C23   C24   A    
C39   H25   S    
Cu1   O10   S    
C32   H5    S    
C20   Cl1   S    
C23   C34   S    
C22   Cl3   S    
C33   H9    S    
C13   C14   A    
C27   C30   A    
C25   C29   A    
C12   O10   A    
C9    H23   S    
C32   H4    S    
C10   H27   S    
Cu2   N1    S    
C1    O1    A    
C22   C34   A    
C38   H22   S    
C8    C19   S    
C25   H28   S    
C24   Cl4   S    
Cu1   O1    S    
C27   H30   S    
C9    C14   A    
C36   H15   S    
C21   C34   A    
C31   O16   S    
C38   O7    S    
C35   H10   S    
C8    O13   A    
C7    O12   A    
C35   O4    S    
C4    N2    A    
C20   C23   A    
C1    O11   A    
C7    C18   S    
C32   O2    S    
C1    C29   S    
C17   C18   T    
C35   H11   S    
C39   H26   S    
C31   H3    S    
C9    C11   A    
C26   C30   A    
C22   C27   A    
C3    N1    A    
C14   C16   S    
C12   O9    A    
C39   O8    S    
C21   Cl2   S    
C15   C17   S    
C38   H21   S    
Cu2   O13   S    
C33   H7    S    
C12   C30   S    
C28   H31   S    
C24   C28   A    
C10   C13   A    
C40   O16   S    
Cu2   O9    S    
C4    C43   A    
C26   H29   S    
C6    C43   A    
C33   O3    S    
C16   C19   T    
C37   H17   S    
Cu1   O12   S    
C11   H1    S    
C40   C44   A    
Cu1   Cu2   S    
C5    C40   A    
C35   H13   S    
C42   O3    S    
C36   H14   S    
C32   H6    S    
C44   O5    S    
C4    O8    S    
