data_mof_unit_14870.cif
_audit_creation_date              2012-12-11T16:35:17-0500
_audit_creation_method            fapswitch 2.2
_symmetry_space_group_name_H-M    P1
_symmetry_Int_Tables_number       1
_space_group_crystal_system       triclinic
_cell_length_a                    6.936896
_cell_length_b                    17.890828
_cell_length_c                    19.296711
_cell_angle_alpha                 108.830551
_cell_angle_beta                  89.92345
_cell_angle_gamma                 90.558247
_cell_volume                      2266.56253757

loop_
_atom_site_label
_atom_site_type_symbol
_atom_type_description
_atom_site_fract_x
_atom_site_fract_y
_atom_site_fract_z
_atom_type_partial_charge
O1    O     O_R   0.505700 0.440210 0.561730 -0.535916
O2    O     O_R   0.169350 0.406300 0.412660 -0.544468
O3    O     O_R   0.005650 0.559790 0.438270 -0.548548
C1    C     C_R   0.338543 0.383430 0.384761 0.667098
O4    O     O_R   0.175560 0.430650 0.559600 -0.545683
O5    O     O_R   0.011900 0.584320 0.586250 -0.525463
C2    C     C_R   0.344623 0.410363 0.576322 0.745501
O6    O     O_R   0.499450 0.415680 0.413750 -0.543773
O7    O     O_3   0.341370 0.550390 0.508570 -0.353416
V1    V     V_3+5 0.063940 0.490650 0.498410 1.451801
O8    O     O_R   0.682570 0.593700 0.587340 -0.522272
C3    C     C_R   0.851899 0.614754 0.617025 0.761202
O9    O     O_R   0.676370 0.569350 0.440400 -0.510790
C4    C     C_R   0.845950 0.586361 0.420918 0.730572
V2    V     V_3+5 0.564750 0.509350 0.501590 1.524096
O10   O     O_3   0.837190 0.449610 0.491430 -0.389871
C5    C     C_R   0.943314 0.645521 0.253231 -0.010679
H1    H     H_    0.994419 0.616537 0.198101 0.142180
C6    C     C_R   0.932793 0.602542 0.302194 -0.112575
H2    H     H_    0.978498 0.541518 0.283927 0.126008
C7    C     C_R   0.857940 0.636450 0.373054 -0.115104
C8    C     C_R   0.801620 0.717093 0.396185 -0.017818
C9    C     C_R   0.821739 0.760236 0.346978 -0.107112
H3    H     H_    0.782620 0.821999 0.364228 0.146698
C10   C     C_R   0.883428 0.724321 0.274489 0.083752
C11   C     C_R   0.725178 0.815717 0.213413 0.019808
C12   C     C_R   0.742644 0.863121 0.167915 -0.210426
H4    H     H_    0.621381 0.898594 0.162488 0.150720
C13   C     C_R   0.912833 0.864649 0.128693 -0.079684
C14   C     C_R   0.066327 0.816621 0.134696 -0.140364
H5    H     H_    0.198486 0.815496 0.104441 0.133311
C15   C     C_R   0.051041 0.769057 0.179585 -0.150198
H6    H     H_    0.172234 0.732870 0.182945 0.174382
C16   C     C_R   0.884318 0.769483 0.221284 0.014447
H7    H     H_    0.666667 0.669926 0.952804 0.138787
C17   C     C_R   0.043809 0.893317 0.742441 -0.237884
C18   C     C_R   0.104144 0.899473 0.675172 -0.052961
C19   C     C_R   0.091231 0.833120 0.612661 -0.115084
C20   C     C_R   0.013974 0.762500 0.616523 -0.111217
C21   C     C_R   0.949622 0.754944 0.683696 0.078357
C22   C     C_R   0.967710 0.821645 0.747962 0.074091
C23   C     C_R   0.868694 0.682583 0.687171 -0.177030
C24   C     C_R   0.816063 0.676297 0.757659 -0.010254
C25   C     C_R   0.834536 0.744579 0.821459 0.069858
C26   C     C_R   0.908233 0.816372 0.816287 -0.157967
C27   C     C_R   0.746228 0.605398 0.769148 0.008042
C28   C     C_R   0.689276 0.605074 0.838869 -0.122766
C29   C     C_R   0.707290 0.671685 0.899136 -0.151421
C30   C     C_R   0.781770 0.740086 0.891103 -0.124480
H8    H     H_    0.060285 0.944608 0.790713 0.103090
H9    H     H_    0.137819 0.836208 0.560022 0.159672
H10   H     H_    0.005438 0.714210 0.565638 0.118649
H11   H     H_    0.635169 0.551510 0.847178 0.145094
H12   H     H_    0.798200 0.789296 0.941013 0.111289
C31   C     C_R   0.261475 0.221694 0.379396 -0.146255
C32   C     C_R   0.229576 0.144737 0.379456 -0.117150
C33   C     C_R   0.259136 0.081339 0.316143 -0.092045
C34   C     C_R   0.322181 0.094251 0.252310 -0.134093
C35   C     C_R   0.354369 0.171742 0.250199 0.058616
C36   C     C_R   0.322376 0.236903 0.315199 0.071603
C37   C     C_R   0.418730 0.184678 0.184954 -0.167936
C38   C     C_R   0.446881 0.263304 0.184822 0.074182
C39   C     C_R   0.413284 0.328422 0.249674 0.023679
C40   C     C_R   0.353074 0.315373 0.315259 -0.157679
C41   C     C_R   0.503425 0.278785 0.120291 -0.200901
C42   C     C_R   0.524803 0.355980 0.119303 -0.143123
C43   C     C_R   0.490375 0.419452 0.182236 0.312470
C44   C     C_R   0.436224 0.406078 0.246870 -0.187802
H13   H     H_    0.237057 0.268943 0.430139 0.092549
H14   H     H_    0.181786 0.134252 0.428982 0.131755
H15   H     H_    0.233543 0.021777 0.316599 0.149982
H16   H     H_    0.345999 0.042787 0.204888 0.112106
H17   H     H_    0.529851 0.231552 0.069716 0.118872
H18   H     H_    0.566565 0.366380 0.069087 0.149696
H19   H     H_    0.408796 0.457185 0.294237 0.134381
C45   C     C_R   0.545885 0.279311 0.679876 -0.132123
H20   H     H_    0.687837 0.263628 0.693349 0.095496
C46   C     C_R   0.532962 0.324641 0.632991 -0.085332
H21   H     H_    0.664213 0.339244 0.609939 0.099129
C47   C     C_R   0.354476 0.353046 0.618187 -0.024254
C48   C     C_R   0.187103 0.326545 0.644631 -0.147186
H22   H     H_    0.046211 0.342242 0.630713 0.114754
C49   C     C_R   0.199058 0.279357 0.689991 -0.112981
H23   H     H_    0.066246 0.260439 0.708963 0.106896
C50   C     C_R   0.379173 0.257302 0.710604 0.084827
C51   C     C_R   0.252562 0.222281 0.819520 -0.094625
H24   H     H_    0.133840 0.262473 0.824737 0.101353
C52   C     C_R   0.264098 0.180559 0.869538 -0.147392
H25   H     H_    0.152643 0.188511 0.910596 0.117525
C53   C     C_R   0.419041 0.129989 0.867291 -0.051352
C54   C     C_R   0.561432 0.121394 0.813603 -0.137918
H26   H     H_    0.680854 0.081775 0.809982 0.104144
C55   C     C_R   0.547487 0.161443 0.762282 -0.087815
H27   H     H_    0.656679 0.150712 0.720229 0.115319
C56   C     C_R   0.392937 0.212846 0.764432 0.112569
O11   O     O_R   0.273230 0.084330 0.086440 -0.535536
O12   O     O_R   0.596660 0.069390 0.940470 -0.545695
O13   O     O_R   0.760270 0.915710 0.913690 -0.537196
C57   C     C_R   0.428037 0.083763 0.918549 0.680694
O14   O     O_R   0.603330 0.093680 0.087390 -0.536259
O15   O     O_R   0.766990 0.940160 0.061660 -0.542687
C58   C     C_R   0.434072 0.116550 0.115432 0.693412
O16   O     O_R   0.266510 0.059870 0.938470 -0.539584
O17   O     O_3   0.431050 0.949630 0.991510 -0.367718
V3    V     V_3+5 0.708490 0.009340 0.001580 1.418847
O18   O     O_R   0.096270 0.930570 0.059390 -0.542344
C59   C     C_R   0.926742 0.915114 0.080739 0.694414
O19   O     O_R   0.089600 0.906290 0.912460 -0.537436
C60   C     C_R   0.920865 0.886195 0.883265 0.692563
V4    V     V_3+5 0.207670 0.990600 0.998190 1.427300
O20   O     O_3   0.935250 0.050360 0.008480 -0.368621
C61   C     C_2   0.183907 0.974822 0.669821 0.809688
O21   O     O_2   0.306767 0.973190 0.623982 -0.531902
O22   O     O_R   0.120339 0.048258 0.715272 -0.646884
H28   H     H_    0.004680 0.044971 0.746184 0.243299
C62   C     C_2   0.732754 0.528340 0.712861 0.701856
O23   O     O_2   0.580359 0.492134 0.704945 -0.565585
O24   O     O_R   0.896220 0.493552 0.674394 -0.658125
H29   H     H_    0.862565 0.444038 0.632967 0.284286
Br1   Br    Br    0.512247 0.525091 0.179651 -0.571404
C63   C     C_2   0.723537 0.759354 0.470469 0.711992
O25   O     O_2   0.650849 0.723127 0.507916 -0.559110
O26   O     O_R   0.729538 0.841951 0.497279 -0.658601
H30   H     H_    0.672197 0.864071 0.548115 0.321839
C64   C     C_2   0.536344 0.814151 0.249349 0.721790
O27   O     O_2   0.480455 0.754306 0.261059 -0.539571
O28   O     O_R   0.419941 0.881065 0.268539 -0.680451
H31   H     H_    0.296167 0.873296 0.293482 0.295508

loop_
_geom_bond_atom_site_label_1
_geom_bond_atom_site_label_2
_ccdc_geom_bond_type
C25   C30   A    
O15   C59   A    
C57   O16   A    
C31   C32   A    
C55   H27   S    
O11   C58   A    
C12   C13   A    
C6    H2    S    
C1    O6    A    
C61   O22   S    
O22   H28   S    
C53   C54   A    
O26   H30   S    
C62   O23   D    
C44   H19   S    
C31   C36   A    
C11   C12   A    
C38   C39   A    
O13   V3    S    
O16   V4    S    
C4    C7    S    
C17   C18   A    
C6    C7    A    
C18   C19   A    
C45   C46   A    
O5    C3    A    
C19   C20   A    
C46   C47   A    
O18   C59   A    
V2    O10   S    
C42   H18   S    
C41   H17   S    
O19   C60   A    
O24   H29   S    
O17   V3    S    
C18   C61   S    
C3    C23   S    
O12   C57   A    
V4    O20   S    
O8    V2    S    
C11   C16   A    
C28   C29   A    
O19   V4    S    
C9    H3    S    
O1    V2    S    
C14   C15   A    
C43   Br1   S    
C10   C16   S    
C28   H11   S    
O12   V3    S    
C21   C23   A    
C20   H10   S    
V3    O20   S    
C35   C36   A    
C55   C56   A    
O13   C60   A    
O1    C2    A    
C7    C8    A    
C17   C22   A    
H7    C29   S    
C61   O21   D    
C48   C49   A    
C48   H22   S    
O15   V3    S    
C35   C37   A    
C51   C52   A    
C43   C44   A    
C45   H20   S    
C54   H26   S    
O4    C2    A    
C51   H24   S    
C19   H9    S    
C34   C35   A    
O11   V4    S    
C11   C64   S    
C15   C16   A    
O2    C1    A    
C24   C25   A    
C13   C14   A    
C54   C55   A    
C49   H23   S    
O14   C58   A    
C5    H1    S    
O14   V3    S    
C33   H15   S    
C63   O25   D    
C31   H13   S    
O3    C4    A    
C21   C22   A    
C49   C50   A    
C52   C53   A    
O6    V2    S    
C32   H14   S    
O9    V2    S    
C64   O27   D    
C32   C33   A    
O28   H31   S    
O2    V1    S    
C53   C57   S    
C20   C21   A    
C17   H8    S    
C25   C26   A    
C8    C63   S    
O7    V1    S    
C1    C40   S    
C27   C28   A    
C29   C30   A    
C38   C41   A    
C46   H21   S    
C47   C48   A    
O5    V1    S    
O8    C3    A    
C39   C44   A    
C27   C62   S    
C36   C40   A    
C5    C10   A    
C15   H6    S    
C37   C58   S    
O7    V2    S    
O4    V1    S    
O3    V1    S    
V1    O10   S    
O17   V4    S    
C50   C56   S    
C34   H16   S    
C33   C34   A    
C14   H5    S    
C5    C6    A    
C62   O24   S    
C42   C43   A    
C26   C60   S    
C9    C10   A    
C37   C38   A    
C24   C27   A    
C63   O26   S    
C51   C56   A    
C39   C40   A    
C52   H25   S    
O18   V4    S    
C41   C42   A    
C23   C24   A    
C12   H4    S    
C64   O28   S    
C22   C26   A    
C8    C9    A    
C13   C59   S    
O9    C4    A    
C45   C50   A    
C30   H12   S    
C2    C47   S    
