data_mof_unit_28398.cif
_audit_creation_date              2012-10-26T20:12:43-0400
_audit_creation_method            fapswitch 2.2
_symmetry_space_group_name_H-M    P1
_symmetry_Int_Tables_number       1
_space_group_crystal_system       triclinic
_cell_length_a                    15.181123
_cell_length_b                    13.996011
_cell_length_c                    10.929923
_cell_angle_alpha                 90.329458
_cell_angle_beta                  94.281283
_cell_angle_gamma                 90.990363
_cell_volume                      2315.45319957

loop_
_atom_site_label
_atom_site_type_symbol
_atom_type_description
_atom_site_fract_x
_atom_site_fract_y
_atom_site_fract_z
_atom_type_partial_charge
C1    C     C_R   0.330618 0.499566 0.504194 0.561318
C2    C     C_R   0.436876 0.791039 0.428424 0.382497
C3    C     C_R   0.455043 0.206176 0.406975 0.394190
C4    C     C_R   0.557277 0.794797 0.579144 0.359424
C5    C     C_R   0.496051 0.054652 0.504203 -0.079536
C6    C     C_R   0.495902 0.946172 0.504734 -0.079322
C7    C     C_R   0.505406 0.499966 0.262080 0.535582
C8    C     C_R   0.499477 0.499674 0.736794 0.613763
C9    C     C_R   0.577857 0.668834 0.109910 0.239744
C10   C     C_R   0.405937 0.353033 0.875589 0.262623
C11   C     C_R   0.639011 0.605647 0.888719 0.259053
C12   C     C_R   0.671016 0.500549 0.500076 0.535917
C13   C     C_R   0.497324 0.318045 0.102123 0.308347
C14   C     C_R   0.643983 0.720013 0.054570 -0.124619
C15   C     C_R   0.400224 0.262784 0.930211 -0.162066
C16   C     C_R   0.677758 0.685664 0.948510 -0.076239
C17   C     C_R   0.449588 0.244358 0.039460 -0.047787
C18   C     C_R   0.564694 0.560500 0.937469 -0.045871
C19   C     C_R   0.490494 0.413318 0.057880 -0.065757
C20   C     C_R   0.548943 0.577763 0.060843 -0.048175
C21   C     C_R   0.463663 0.423604 0.933215 0.006062
C22   C     C_R   0.506081 0.497040 0.870087 -0.003711
C23   C     C_R   0.053082 0.491766 0.547925 0.004501
C24   C     C_R   0.514310 0.498508 0.127029 -0.064437
C25   C     C_R   0.109209 0.547884 0.627215 -0.131468
C26   C     C_R   0.907135 0.409875 0.534521 -0.126805
C27   C     C_R   0.914001 0.580921 0.551682 -0.123543
C28   C     C_R   0.087918 0.439359 0.454384 -0.122919
C29   C     C_R   0.200032 0.552292 0.612950 -0.021059
C30   C     C_R   0.815910 0.411867 0.508757 -0.033878
C31   C     C_R   0.822004 0.585911 0.529710 -0.013717
C32   C     C_R   0.177997 0.442267 0.437666 -0.033098
C33   C     C_R   0.235160 0.498994 0.517254 0.030047
C34   C     C_R   0.956638 0.493849 0.552641 0.007261
C35   C     C_R   0.770159 0.500228 0.509772 0.007075
C36   C     C_R   0.256417 0.610767 0.702101 0.041891
C37   C     C_R   0.274692 0.578152 0.822359 -0.073989
C38   C     C_R   0.328623 0.632637 0.906572 -0.113907
C39   C     C_R   0.364311 0.720087 0.871346 -0.089082
C40   C     C_R   0.344484 0.754204 0.752691 -0.091811
C41   C     C_R   0.289714 0.700409 0.668750 -0.060699
C42   C     C_R   0.775259 0.320621 0.464076 0.053775
C43   C     C_R   0.763170 0.245392 0.545648 -0.085984
C44   C     C_R   0.732224 0.156295 0.501035 -0.110035
C45   C     C_R   0.534647 0.109116 0.603014 -0.105617
C46   C     C_R   0.714963 0.141431 0.374807 -0.087899
C47   C     C_R   0.731197 0.214724 0.293095 -0.078398
C48   C     C_R   0.760545 0.304451 0.337431 -0.082760
C49   C     C_R   0.787218 0.683555 0.516372 0.061753
C50   C     C_R   0.748462 0.713930 0.402716 -0.048180
C51   C     C_R   0.728902 0.810201 0.384599 -0.091418
C52   C     C_R   0.750109 0.876777 0.478151 -0.108539
C53   C     C_R   0.788851 0.847500 0.591151 -0.088522
C54   C     C_R   0.807231 0.751203 0.610506 -0.049124
C55   C     C_R   0.207162 0.391567 0.328949 0.025526
C56   C     C_R   0.434276 0.891495 0.431352 -0.083479
C57   C     C_R   0.247025 0.442420 0.236663 -0.096900
C58   C     C_R   0.260365 0.397714 0.125084 -0.102235
C59   C     C_R   0.233909 0.302417 0.104898 -0.075382
C60   C     C_R   0.197173 0.250475 0.197644 -0.087674
C61   C     C_R   0.183660 0.294767 0.309267 -0.089340
C62   C     C_R   0.457458 0.105882 0.404768 -0.083094
C63   C     C_R   0.556887 0.895179 0.579679 -0.089346
C64   C     C_R   0.539942 0.209418 0.597732 0.366025
Cu1   Cu    Cu3+1 0.500000 0.596430 0.500000 0.990766
Cu2   Cu    Cu3+1 0.500000 0.403570 0.500000 1.006718
H1    H     H_    0.452307 0.172149 0.074441 0.150523
H2    H     H_    0.382006 0.925704 0.376092 0.127297
H3    H     H_    0.426235 0.069118 0.325334 0.122230
H4    H     H_    0.606190 0.932216 0.639623 0.122865
H5    H     H_    0.468334 0.703558 0.169981 0.333954
H6    H     H_    0.317909 0.317045 0.743752 0.316902
H7    H     H_    0.667500 0.498945 0.786019 0.312260
H8    H     H_    0.606898 0.342780 0.197886 0.320220
H9    H     H_    0.247526 0.510419 0.850414 0.132743
H10   H     H_    0.343330 0.606772 0.998851 0.098907
H11   H     H_    0.406862 0.761629 0.936186 0.125188
H12   H     H_    0.732423 0.722953 0.910476 0.144389
H13   H     H_    0.371497 0.822329 0.725733 0.107862
H14   H     H_    0.274216 0.727870 0.577384 0.142442
H15   H     H_    0.777673 0.255860 0.643383 0.115794
H16   H     H_    0.721501 0.099102 0.564652 0.101594
H17   H     H_    0.689553 0.073240 0.339632 0.106877
H18   H     H_    0.720197 0.202275 0.195275 0.130687
H19   H     H_    0.773225 0.360828 0.273208 0.087898
H20   H     H_    0.735249 0.663532 0.327716 0.115281
H21   H     H_    0.698523 0.833745 0.297712 0.123418
H22   H     H_    0.735649 0.950909 0.463656 0.095112
H23   H     H_    0.360388 0.205782 0.885846 0.091078
H24   H     H_    0.804708 0.899414 0.663573 0.099659
H25   H     H_    0.838842 0.729503 0.697835 0.113826
H26   H     H_    0.264262 0.517461 0.248976 0.101850
H27   H     H_    0.289159 0.437639 0.053273 0.103901
H28   H     H_    0.240708 0.268857 0.016995 0.105653
H29   H     H_    0.177309 0.176507 0.182034 0.104353
H30   H     H_    0.152376 0.254554 0.379023 0.101927
H31   H     H_    0.614944 0.312018 0.662300 0.356049
H32   H     H_    0.386303 0.680843 0.339709 0.369911
H33   H     H_    0.384760 0.309849 0.343901 0.372700
H34   H     H_    0.667366 0.788443 0.091590 0.121068
H35   H     H_    0.613342 0.685798 0.652541 0.411262
H36   H     H_    0.082122 0.588802 0.699674 0.110778
H37   H     H_    0.940832 0.342209 0.531570 0.109637
H38   H     H_    0.953527 0.646308 0.559585 0.106705
H39   H     H_    0.043713 0.399573 0.389368 0.113315
H40   H     H_    0.563331 0.074997 0.684628 0.123274
N1    N     N_R   0.500000 0.258690 0.500000 -0.227615
N2    N     N_R   0.500000 0.741310 0.500000 -0.232396
O1    O     O_R   0.371460 0.581430 0.500010 -0.526259
O2    O     O_3   0.354439 0.374007 0.769941 -0.691418
O3    O     O_3   0.680720 0.568455 0.791656 -0.716609
O4    O     O_3   0.560873 0.291540 0.191056 -0.661291
O5    O     O_3   0.586259 0.254890 0.694569 -0.708356
O6    O     O_3   0.370716 0.747017 0.354548 -0.733471
O7    O     O_3   0.403768 0.247890 0.314178 -0.687853
O8    O     O_3   0.616017 0.754613 0.664170 -0.704134
O9    O     O_R   0.628540 0.418570 0.499990 -0.525100
O10   O     O_R   0.628540 0.581430 0.499990 -0.501683
O11   O     O_R   0.371460 0.418570 0.500010 -0.506973
O12   O     O_R   0.499990 0.581440 0.319660 -0.499259
O13   O     O_R   0.500010 0.418560 0.680340 -0.456423
O14   O     O_R   0.500010 0.581440 0.680340 -0.501110
O15   O     O_R   0.499990 0.418560 0.319660 -0.470929
O16   O     O_3   0.531635 0.719334 0.190884 -0.676946

loop_
_geom_bond_atom_site_label_1
_geom_bond_atom_site_label_2
_ccdc_geom_bond_type
C11   C18   A    
C57   H26   S    
Cu2   N1    S    
C43   C44   A    
C41   H14   S    
C61   H30   S    
C1    C33   S    
C38   H10   S    
C53   C54   A    
C45   H40   S    
C4    N2    A    
C4    C63   A    
C30   C35   A    
C39   H11   S    
C36   C37   A    
C19   C21   A    
C58   H27   S    
C13   O4    S    
C44   H16   S    
C10   C15   A    
H8    O4    S    
C38   C39   A    
C25   H36   S    
H32   O6    S    
C7    C24   S    
C29   C33   A    
C27   H38   S    
C9    O16   S    
C47   H18   S    
C1    O11   A    
C1    O1    A    
C26   C34   A    
C20   C24   A    
Cu2   O9    S    
C8    C22   S    
Cu1   O10   S    
C59   H28   S    
Cu1   N2    S    
C16   H12   S    
C37   H9    S    
C59   C60   A    
C10   C21   A    
C21   C22   A    
C36   C41   A    
C31   C49   S    
C44   C46   A    
H7    O3    S    
C27   C34   A    
C25   C29   A    
H6    O2    S    
C17   H1    S    
C13   C19   A    
C27   C31   A    
C51   C52   A    
H5    O16   S    
C52   H22   S    
C48   H19   S    
C51   H21   S    
C39   C40   A    
Cu2   O13   S    
C3    N1    A    
C58   C59   A    
C56   H2    S    
Cu1   O14   S    
C5    C45   A    
C46   H17   S    
C62   H3    S    
C60   C61   A    
C6    C63   A    
C9    C14   A    
C37   C38   A    
C26   H37   S    
C15   H23   S    
C11   C16   A    
C9    C20   A    
C47   C48   A    
C29   C36   S    
C63   H4    S    
C28   C32   A    
C28   H39   S    
C23   C34   S    
C50   C51   A    
C40   H13   S    
C42   C48   A    
C23   C28   A    
C12   C35   S    
Cu1   O1    S    
C12   O10   A    
C40   C41   A    
C26   C30   A    
Cu2   O11   S    
C55   C57   A    
C43   H15   S    
C31   C35   A    
C42   C43   A    
H31   O5    S    
C52   C53   A    
C64   N1    A    
C3    C62   A    
C15   C17   A    
C46   C47   A    
H35   O8    S    
C64   O5    S    
C32   C55   S    
C14   C16   A    
C18   C22   A    
C7    O12   A    
C4    O8    S    
C6    C56   A    
C14   H34   S    
C45   C64   A    
C13   C17   A    
C32   C33   A    
C19   C24   A    
C54   H25   S    
Cu1   Cu2   S    
C2    C56   A    
H33   O7    S    
C2    O6    S    
C8    O14   A    
C57   C58   A    
C5    C6    S    
C55   C61   A    
C2    N2    A    
Cu1   O12   S    
C5    C62   A    
C10   O2    S    
C18   C20   A    
C23   C25   A    
C8    O13   A    
C50   H20   S    
C12   O9    A    
C60   H29   S    
C49   C50   A    
C53   H24   S    
C11   O3    S    
Cu2   O15   S    
C30   C42   S    
C3    O7    S    
C49   C54   A    
C7    O15   A    
