data_mof_unit_17251.cif
_audit_creation_date              2012-12-10T17:50:14-0500
_audit_creation_method            fapswitch 2.2
_symmetry_space_group_name_H-M    P1
_symmetry_Int_Tables_number       1
_space_group_crystal_system       triclinic
_cell_length_a                    10.614348
_cell_length_b                    14.652346
_cell_length_c                    14.492951
_cell_angle_alpha                 65.110024
_cell_angle_beta                  102.99962
_cell_angle_gamma                 102.690432
_cell_volume                      1972.23097095

loop_
_atom_site_label
_atom_site_type_symbol
_atom_type_description
_atom_site_fract_x
_atom_site_fract_y
_atom_site_fract_z
_atom_type_partial_charge
C1    C     C_R   0.469757 0.119628 0.311436 0.814854
C2    C     C_R   0.530247 0.880371 0.688564 0.814851
C3    C     C_R   0.489265 0.288183 0.172420 -0.289784
C4    C     C_R   0.510756 0.711812 0.827578 -0.289785
C5    C     C_R   0.459201 0.360042 0.072951 0.020095
C6    C     C_R   0.540838 0.639948 0.927040 0.020093
C7    C     C_R   0.348003 0.334626 0.007976 0.048223
C8    C     C_R   0.652048 0.665362 0.992007 0.048214
C9    C     C_R   0.529637 0.460316 0.041759 -0.010139
C10   C     C_R   0.470405 0.539673 0.958233 -0.010137
C11   C     C_R   0.346634 0.514623 0.904933 0.162061
C12   C     C_R   0.653410 0.485362 0.095055 0.162085
C13   C     C_R   0.304887 0.413687 0.915072 0.164316
C14   C     C_R   0.695174 0.586300 0.084908 0.164313
C15   C     C_R   0.734641 0.289623 0.660442 0.087021
C16   C     C_R   0.265375 0.710379 0.339550 0.086984
C17   C     C_R   0.695184 0.208131 0.628896 0.087288
C18   C     C_R   0.304824 0.791870 0.371097 0.087290
C19   C     C_R   0.515741 0.283889 0.514619 0.018115
C20   C     C_R   0.484259 0.716110 0.485387 0.018121
C21   C     C_R   0.556403 0.374124 0.534002 -0.096228
C22   C     C_R   0.443601 0.625874 0.466011 -0.096223
C23   C     C_R   0.259961 0.999484 0.501351 0.872487
C24   C     C_R   0.740039 0.000517 0.498647 0.872483
C25   C     C_R   0.660963 0.373069 0.615369 -0.010618
C26   C     C_R   0.339041 0.626925 0.384640 -0.010608
C27   C     C_R   0.491387 0.462651 0.478770 -0.043830
C28   C     C_R   0.508624 0.537348 0.521244 -0.043832
C29   C     C_R   0.590820 0.520639 0.617269 0.046871
C30   C     C_R   0.409196 0.479363 0.382744 0.046818
C31   C     C_R   0.682184 0.451939 0.652065 0.488559
C32   C     C_R   0.317813 0.548044 0.347957 0.488582
C33   C     C_3   0.011117 0.917316 0.487106 0.523979
C34   C     C_3   0.988883 0.082689 0.512891 0.523989
C35   C     C_3   0.932297 0.002124 0.408378 0.029624
C36   C     C_3   0.067704 0.997882 0.591618 0.029632
C37   C     C_3   0.876229 0.000979 0.498267 -0.205099
C38   C     C_3   0.123772 0.999025 0.501730 -0.205105
C39   C     C_3   0.955055 0.916081 0.576834 0.036706
C40   C     C_3   0.044946 0.083924 0.423164 0.036693
C41   C     C_R   0.432334 0.187140 0.202780 -0.111606
C42   C     C_R   0.567685 0.812857 0.797217 -0.111606
C43   C     C_R   0.277315 0.234048 0.043313 0.197165
C44   C     C_R   0.722733 0.765942 0.956666 0.197157
C45   C     C_R   0.330390 0.157605 0.134572 0.160783
C46   C     C_R   0.669644 0.842388 0.865418 0.160785
Cu1   Cu    Cu3+1 0.465750 0.918270 0.475680 0.935962
Cu2   Cu    Cu3+1 0.534250 0.081730 0.524320 0.935961
H1    H     H_    0.573491 0.725112 0.535667 0.144301
H2    H     H_    0.426508 0.274892 0.464337 0.144291
H3    H     H_    0.249427 0.854694 0.339334 0.148658
H4    H     H_    0.750585 0.145311 0.660652 0.148667
H5    H     H_    0.444052 0.688577 0.770820 0.194985
H6    H     H_    0.555960 0.311421 0.229180 0.194980
N1    N     N_R   0.585750 0.204560 0.560800 -0.201572
N2    N     N_R   0.414250 0.795440 0.439200 -0.201572
O1    O     O_R   0.454850 0.022100 0.338110 -0.583003
O2    O     O_R   0.545150 0.977900 0.661890 -0.582997
O3    O     O_R   0.512700 0.160150 0.379180 -0.585376
O4    O     O_R   0.487300 0.839850 0.620820 -0.585376
O5    O     O_R   0.287930 0.931000 0.479440 -0.550487
O6    O     O_R   0.712070 0.069000 0.520560 -0.550497
O7    O     O_R   0.345780 0.069050 0.520520 -0.597859
O8    O     O_R   0.654220 0.930950 0.479480 -0.597862
C47   C     C_3   0.852848 0.009383 0.304547 -0.839898
H7    H     H_    0.916457 0.005785 0.255318 0.231759
H8    H     H_    0.770434 0.946230 0.315205 0.234347
H9    H     H_    0.812813 0.082579 0.266189 0.238023
C48   C     C_3   0.147152 0.990623 0.695450 -0.839900
H10   H     H_    0.083542 0.994219 0.744679 0.231755
H11   H     H_    0.187188 0.917428 0.733808 0.238024
H12   H     H_    0.229564 0.053777 0.684792 0.234348
C49   C     C_3   0.853587 0.282321 0.741960 -0.808367
H13   H     H_    0.897377 0.212354 0.764136 0.198152
H14   H     H_    0.930185 0.347317 0.712254 0.244944
H15   H     H_    0.827077 0.279340 0.813087 0.272996
C50   C     C_3   0.146462 0.717698 0.257999 -0.808348
H16   H     H_    0.102703 0.787686 0.235790 0.198148
H17   H     H_    0.173005 0.720650 0.186895 0.272987
H18   H     H_    0.069831 0.652727 0.287686 0.244946
C51   C     C_3   0.568499 0.558807 0.693936 -0.799525
H19   H     H_    0.568145 0.495802 0.771137 0.256283
H20   H     H_    0.646701 0.620734 0.700670 0.225996
H21   H     H_    0.471596 0.584661 0.673929 0.219193
C52   C     C_3   0.431515 0.441201 0.306072 -0.799531
H22   H     H_    0.431886 0.504216 0.228878 0.256262
H23   H     H_    0.528409 0.415335 0.326081 0.219199
H24   H     H_    0.353297 0.379290 0.299322 0.226054
O9    O     O_3   0.036181 0.830092 0.479469 -0.561749
C53   C     C_3   0.920154 0.778893 0.443613 -0.325767
H25   H     H_    0.902449 0.811901 0.358273 0.175205
H26   H     H_    0.833333 0.779059 0.474564 0.157783
H27   H     H_    0.932959 0.698414 0.468396 0.177560
O10   O     O_3   0.963817 0.169912 0.520528 -0.561750
C54   C     C_3   0.079840 0.221106 0.556396 -0.325837
H28   H     H_    0.166667 0.220930 0.525460 0.157773
H29   H     H_    0.097527 0.188099 0.641735 0.175220
H30   H     H_    0.067042 0.301588 0.531606 0.177576
C55   C     C_3   0.900734 0.822850 0.663925 -0.831731
H31   H     H_    0.975288 0.770746 0.703782 0.247460
H32   H     H_    0.874873 0.846689 0.719753 0.232886
H33   H     H_    0.811643 0.782767 0.632939 0.214192
C56   C     C_3   0.099268 0.177160 0.336075 -0.831687
H34   H     H_    0.024716 0.229268 0.296226 0.247455
H35   H     H_    0.188360 0.217240 0.367065 0.214203
H36   H     H_    0.125125 0.153327 0.280243 0.232879
C57   C     C_3   0.225411 0.395650 0.822044 -0.886740
H37   H     H_    0.266398 0.450803 0.751647 0.234182
H38   H     H_    0.230836 0.319501 0.825795 0.241889
H39   H     H_    0.122572 0.406646 0.812803 0.241518
C58   C     C_3   0.774685 0.604335 0.177926 -0.886750
H40   H     H_    0.733706 0.549191 0.248331 0.234175
H41   H     H_    0.877514 0.593323 0.187149 0.241591
H42   H     H_    0.769292 0.680490 0.174176 0.241879
C59   C     C_3   0.729209 0.952748 0.837476 -0.864597
H43   H     H_    0.651749 0.000205 0.819661 0.247400
H44   H     H_    0.798508 0.966478 0.901542 0.231819
H45   H     H_    0.781697 0.978153 0.770770 0.226544
C60   C     C_3   0.270828 0.047245 0.162514 -0.864595
H46   H     H_    0.348291 0.999786 0.180341 0.247402
H47   H     H_    0.218325 0.021845 0.229212 0.226545
H48   H     H_    0.201543 0.033513 0.098443 0.231817
C61   C     C_3   0.134478 0.212512 0.000690 -0.882366
H49   H     H_    0.078100 0.158391 0.062967 0.234739
H50   H     H_    0.085598 0.281222 0.968603 0.250600
H51   H     H_    0.124659 0.179866 0.942424 0.230202
C62   C     C_3   0.865581 0.787475 0.999263 -0.882362
H52   H     H_    0.921946 0.841594 0.936975 0.234741
H53   H     H_    0.875428 0.820126 0.057530 0.230201
H54   H     H_    0.914451 0.718760 0.031342 0.250613
C63   C     C_3   0.246716 0.587666 0.852037 -0.875071
H55   H     H_    0.274387 0.656559 0.870038 0.242918
H56   H     H_    0.230680 0.609434 0.767490 0.234211
H57   H     H_    0.152395 0.550309 0.880995 0.235140
C64   C     C_3   0.753314 0.412307 0.147966 -0.875046
H58   H     H_    0.769334 0.390538 0.232513 0.234211
H59   H     H_    0.725637 0.343414 0.129962 0.242912
H60   H     H_    0.847645 0.449655 0.119021 0.235138
O11   O     O_3   0.779409 0.453458 0.733089 -0.576560
C65   C     C_3   0.878944 0.534428 0.694332 -0.341697
H61   H     H_    0.843460 0.609295 0.660949 0.171385
H62   H     H_    0.921504 0.525280 0.635709 0.152017
H63   H     H_    0.958186 0.534532 0.758732 0.196247
O12   O     O_3   0.220565 0.546493 0.266955 -0.576575
C66   C     C_3   0.121078 0.465485 0.305730 -0.341680
H64   H     H_    0.156701 0.390648 0.339444 0.171181
H65   H     H_    0.042046 0.465114 0.241280 0.196293
H66   H     H_    0.078197 0.474824 0.364079 0.152171

loop_
_geom_bond_atom_site_label_1
_geom_bond_atom_site_label_2
_ccdc_geom_bond_type
C25   C31   A    
Cu2   N1    S    
C38   C40   S    
C44   C62   S    
C26   C32   A    
C4    H5    S    
C64   H60   S    
C34   C37   S    
C49   H14   S    
C49   H13   S    
C54   H28   S    
C65   H63   S    
C20   N2    A    
C63   H57   S    
C66   H66   S    
C66   H64   S    
C54   H30   S    
C64   H58   S    
C63   H56   S    
C52   H22   S    
C29   C51   S    
C33   C39   S    
C46   C59   S    
C53   H27   S    
C34   C40   S    
C28   C29   A    
C35   C37   S    
C65   H62   S    
C1    O1    A    
C1    O3    A    
C3    H6    S    
C2    O4    A    
C52   H24   S    
C35   C47   S    
C59   H43   S    
C11   C13   A    
C64   H59   S    
C16   C50   S    
C42   C46   A    
C48   H11   S    
C66   H65   S    
Cu1   O4    S    
C39   C55   S    
C56   H35   S    
Cu1   Cu2   S    
C59   H44   S    
C12   C64   S    
C24   O6    A    
C57   H37   S    
C7    C43   A    
C58   H42   S    
C9    C10   A    
C17   N1    A    
C18   N2    A    
C3    C5    A    
C45   C60   S    
C23   O7    A    
C21   C27   A    
C24   O8    A    
C22   C28   A    
C27   C30   A    
C57   H38   S    
O10   C54   S    
C17   H4    S    
C51   H20   S    
C44   C46   A    
C18   H3    S    
C51   H19   S    
C52   H23   S    
C16   C26   A    
C14   C58   S    
C8    C44   A    
C61   H49   S    
C47   H9    S    
C65   H61   S    
C4    C6    A    
C10   C11   A    
Cu1   O8    S    
C5    C7    A    
C61   H51   S    
C6    C8    A    
C47   H8    S    
C50   H16   S    
C48   H12   S    
C62   H53   S    
C5    C9    A    
C20   H1    S    
C33   O9    S    
Cu1   O1    S    
C53   H26   S    
C55   H31   S    
C23   O5    A    
C60   H46   S    
C59   H45   S    
C2    O2    A    
C24   C37   S    
C50   H17   S    
C58   H41   S    
C16   C18   A    
C30   C52   S    
C43   C45   A    
C60   H47   S    
C1    C41   S    
C15   C49   S    
C12   C14   A    
C57   H39   S    
C31   O11   S    
C63   H55   S    
C43   C61   S    
Cu2   O6    S    
C56   H34   S    
C51   H21   S    
C36   C48   S    
Cu2   O3    S    
C60   H48   S    
C19   N1    A    
C15   C17   A    
C21   C25   A    
C3    C41   A    
C8    C14   A    
C58   H40   S    
C55   H32   S    
C36   C39   S    
C34   O10   S    
C20   C22   A    
O12   C66   S    
Cu2   O7    S    
C11   C63   S    
Cu1   O5    S    
O11   C65   S    
C54   H29   S    
Cu2   O2    S    
C23   C38   S    
C33   C38   S    
C36   C38   S    
C35   C40   S    
C62   H54   S    
C37   C39   S    
C40   C56   S    
C30   C32   A    
C13   C57   S    
C50   H18   S    
C19   H2    S    
C53   H25   S    
C4    C42   A    
C2    C42   S    
C33   C35   S    
C56   H36   S    
C34   C36   S    
C48   H10   S    
C9    C12   A    
C32   O12   S    
C61   H50   S    
C6    C10   A    
C7    C13   A    
C55   H33   S    
C49   H15   S    
C15   C25   A    
C29   C31   A    
C47   H7    S    
C22   C26   A    
C27   C28   A    
C41   C45   A    
O9    C53   S    
C62   H52   S    
Cu1   N2    S    
C19   C21   A    
