data_mof_unit_53023.cif
_audit_creation_date              2012-12-10T18:57:04-0500
_audit_creation_method            fapswitch 2.2
_symmetry_space_group_name_H-M    P1
_symmetry_Int_Tables_number       1
_space_group_crystal_system       triclinic
_cell_length_a                    10.761215
_cell_length_b                    9.842983
_cell_length_c                    10.805036
_cell_angle_alpha                 90.434356
_cell_angle_beta                  91.814609
_cell_angle_gamma                 90.220494
_cell_volume                      1143.87956947

loop_
_atom_site_label
_atom_site_type_symbol
_atom_type_description
_atom_site_fract_x
_atom_site_fract_y
_atom_site_fract_z
_atom_type_partial_charge
C1    C     C_R   0.260471 0.500058 0.508226 0.870438
C2    C     C_R   0.740044 0.500664 0.494169 0.891501
C3    C     C_R   0.588369 0.073290 0.566658 -0.077606
C4    C     C_R   0.409019 0.072065 0.437903 -0.070688
C5    C     C_R   0.587325 0.929380 0.568529 0.039879
C6    C     C_R   0.409940 0.928720 0.435624 0.043015
C7    C     C_R   0.491316 0.498633 0.259969 0.894166
C8    C     C_R   0.493900 0.499995 0.739514 0.887834
C9    C     C_R   0.487767 0.616065 0.064652 0.058187
C10   C     C_R   0.501335 0.617963 0.938047 0.066352
C11   C     C_R   0.475625 0.494330 0.127362 -0.166094
C12   C     C_R   0.480955 0.497740 0.870896 -0.177383
C13   C     C_R   0.450393 0.372758 0.060201 -0.065533
C14   C     C_R   0.445523 0.376743 0.931291 -0.071984
C15   C     C_3   0.424550 0.744483 0.924621 -0.240953
C16   C     C_3   0.397467 0.732111 0.060512 -0.246321
C17   C     C_R   0.063507 0.378462 0.501511 -0.187917
C18   C     C_R   0.936113 0.379175 0.494334 -0.191391
C19   C     C_R   0.873218 0.503200 0.491359 -0.094066
C20   C     C_R   0.128037 0.501141 0.517296 -0.086125
C21   C     C_R   0.939221 0.627469 0.496771 -0.038369
C22   C     C_R   0.064115 0.624872 0.529288 -0.033134
N1    N     N_R   0.500000 0.857200 0.500000 -0.127687
N2    N     N_R   0.500000 0.142810 0.500000 -0.094584
O1    O     O_R   0.316770 0.614620 0.499990 -0.620374
O2    O     O_R   0.683230 0.614620 0.500010 -0.616997
O3    O     O_R   0.316800 0.385290 0.500000 -0.633429
O4    O     O_R   0.683200 0.385290 0.500000 -0.626733
O5    O     O_R   0.500000 0.614690 0.316780 -0.616756
O6    O     O_R   0.500000 0.614690 0.683220 -0.622098
O7    O     O_R   0.500020 0.385360 0.316780 -0.614208
O8    O     O_R   0.499980 0.385360 0.683220 -0.613908
Zn1   Zn    Zn3+2 0.500000 0.653120 0.500000 0.981688
Zn2   Zn    Zn3+2 0.500000 0.346880 0.500000 0.971688
C23   C     C_1   0.425015 0.244063 0.119205 0.241153
N3    N     N_1   0.404825 0.139863 0.163142 -0.232548
C24   C     C_1   0.394582 0.259776 0.863147 0.240667
N4    N     N_1   0.353319 0.167263 0.809059 -0.183576
C25   C     C_1   0.500939 0.865316 0.901232 0.255605
N5    N     N_1   0.560655 0.961179 0.885106 -0.205978
C26   C     C_1   0.267900 0.687203 0.076711 0.231859
N6    N     N_1   0.166439 0.651135 0.088217 -0.183284
H1    H     H_    0.343123 0.733736 0.858922 0.166282
H2    H     H_    0.426676 0.819534 0.120674 0.174803
H3    H     H_    0.111021 0.281893 0.495320 0.173001
H4    H     H_    0.887392 0.282696 0.487996 0.174303
C27   C     C_1   0.885896 0.755648 0.456346 0.228913
N7    N     N_1   0.845060 0.857920 0.422391 -0.207382
C28   C     C_1   0.121922 0.746764 0.582209 0.207490
N8    N     N_1   0.167180 0.843665 0.625425 -0.204883
H5    H     H_    0.658271 0.129580 0.620261 0.139529
H6    H     H_    0.334888 0.127304 0.390944 0.144104
C29   C     C_1   0.675917 0.860016 0.647572 0.249981
N9    N     N_1   0.747105 0.804845 0.711920 -0.198622
C30   C     C_1   0.309619 0.860996 0.370161 0.217737
N10   N     N_1   0.226322 0.809077 0.318639 -0.199567

loop_
_geom_bond_atom_site_label_1
_geom_bond_atom_site_label_2
_ccdc_geom_bond_type
C1    O1    A    
C30   N10   T    
C13   C23   S    
C24   N4    T    
C7    O5    A    
C13   C14   A    
C11   C13   A    
C9    C10   A    
C16   H2    S    
O2    Zn1   S    
C27   N7    T    
C5    N1    A    
C6    C30   S    
C8    C12   S    
C8    O6    A    
C17   C18   A    
O7    Zn2   S    
C15   H1    S    
C2    O2    A    
C29   N9    T    
C14   C24   S    
C7    C11   S    
C9    C11   A    
C15   C25   S    
C3    N2    A    
C10   C12   A    
C4    H6    S    
C22   C28   S    
C6    N1    A    
C18   H4    S    
C5    C29   S    
C19   C21   A    
C9    C16   S    
C12   C14   A    
C18   C19   A    
C10   C15   S    
O3    Zn2   S    
C4    N2    A    
C7    O7    A    
O4    Zn2   S    
C15   C16   S    
C8    O8    A    
O5    Zn1   S    
C17   C20   A    
N1    Zn1   S    
C4    C6    A    
C28   N8    T    
C26   N6    T    
O1    Zn1   S    
C25   N5    T    
C1    O3    A    
C3    H5    S    
C1    C20   S    
C2    O4    A    
O6    Zn1   S    
C3    C5    A    
C2    C19   S    
C21   C22   A    
C16   C26   S    
N2    Zn2   S    
C17   H3    S    
C20   C22   A    
C21   C27   S    
C23   N3    T    
O8    Zn2   S    
