data_mof_unit_40450.cif
_audit_creation_date              2012-12-10T18:05:44-0500
_audit_creation_method            fapswitch 2.2
_symmetry_space_group_name_H-M    P1
_symmetry_Int_Tables_number       1
_space_group_crystal_system       triclinic
_cell_length_a                    10.906738
_cell_length_b                    10.733662
_cell_length_c                    9.686465
_cell_angle_alpha                 91.627262
_cell_angle_beta                  91.65364
_cell_angle_gamma                 90.344198
_cell_volume                      1133.03124954

loop_
_atom_site_label
_atom_site_type_symbol
_atom_type_description
_atom_site_fract_x
_atom_site_fract_y
_atom_site_fract_z
_atom_type_partial_charge
C1    C     C_R   0.497931 0.263020 0.498508 0.848923
C2    C     C_R   0.502102 0.736974 0.501505 0.847295
C3    C     C_R   0.871835 0.491272 0.506353 -0.152873
C4    C     C_R   0.127631 0.507032 0.494000 -0.145587
C5    C     C_R   0.941516 0.539450 0.620981 -0.213327
C6    C     C_R   0.057821 0.458198 0.379707 -0.216239
C7    C     C_R   0.595876 0.065144 0.438287 0.143399
C8    C     C_R   0.404314 0.934842 0.562006 0.144151
C9    C     C_R   0.599121 0.935409 0.441665 0.056373
C10   C     C_R   0.401022 0.064573 0.558544 0.058072
C11   C     C_R   0.502935 0.871115 0.503619 -0.116730
C12   C     C_R   0.497151 0.128870 0.496467 -0.117884
C13   C     C_R   0.491661 0.390827 0.068040 0.318364
C14   C     C_R   0.510772 0.609035 0.931966 0.274469
C15   C     C_R   0.491612 0.391916 0.921285 -0.152928
C16   C     C_R   0.509506 0.608034 0.078720 -0.166209
C17   C     C_R   0.262472 0.503517 0.497823 0.869419
C18   C     C_R   0.737340 0.495919 0.502197 0.871622
C19   C     C_R   0.179281 0.582595 0.048678 0.211598
C20   C     C_R   0.823681 0.418109 0.955918 0.196451
C21   C     C_R   0.122668 0.577271 0.176062 0.431364
C22   C     C_R   0.875379 0.421447 0.825396 0.388418
C23   C     C_R   0.106859 0.460048 0.238710 -0.075689
C24   C     C_R   0.892026 0.538224 0.761980 -0.058061
C25   C     C_R   0.141464 0.349024 0.166891 0.404041
C26   C     C_R   0.859987 0.649978 0.834234 0.418999
C27   C     C_R   0.183629 0.356678 0.032685 -0.188030
C28   C     C_R   0.820783 0.643533 0.969816 -0.197673
C29   C     C_R   0.204537 0.471917 0.974986 -0.318624
C30   C     C_R   0.800552 0.528917 0.029083 -0.255122
C31   C     C_R   0.931087 0.441379 0.391297 0.346958
C32   C     C_R   0.068273 0.556084 0.609492 0.358876
Cu1   Cu    Cu3+1 0.500000 0.500020 0.640660 0.984050
Cu2   Cu    Cu3+1 0.500000 0.499980 0.359340 0.991367
H1    H     H_    0.243612 0.474315 0.874023 0.232386
H2    H     H_    0.763226 0.526910 0.130935 0.240833
H3    H     H_    0.483963 0.304216 0.864366 0.139805
H4    H     H_    0.518026 0.695650 0.135674 0.143063
H5    H     H_    0.206034 0.272510 0.974765 0.174276
H6    H     H_    0.800442 0.728226 0.027874 0.175408
N1    N     N_R   0.500030 0.500030 0.852070 -0.163047
N2    N     N_R   0.499970 0.499970 0.147930 -0.160074
O1    O     O_R   0.499990 0.319660 0.618740 -0.616921
O2    O     O_R   0.500010 0.680340 0.381260 -0.618508
O3    O     O_R   0.499990 0.319630 0.381170 -0.517400
O4    O     O_R   0.500010 0.680370 0.618830 -0.520365
O5    O     O_R   0.319650 0.500020 0.618780 -0.548242
O6    O     O_R   0.680350 0.499980 0.381220 -0.542828
O7    O     O_R   0.319640 0.500000 0.381210 -0.587114
O8    O     O_R   0.680360 0.500000 0.618790 -0.583698
N3    N     N_3   0.210138 0.702001 0.995629 -0.526163
H7    H     H_    0.263120 0.690256 0.908401 0.243376
H8    H     H_    0.267682 0.747888 0.069096 0.230594
N4    N     N_3   0.793378 0.301391 0.014521 -0.543193
H9    H     H_    0.730744 0.255106 0.947016 0.229170
H10   H     H_    0.872806 0.247414 0.019149 0.259593
O9    O     O_3   0.088983 0.689274 0.237918 -0.712359
H11   H     H_    0.028258 0.674596 0.309552 0.325630
O10   O     O_3   0.904716 0.308496 0.762567 -0.736773
H12   H     H_    0.962803 0.321466 0.687833 0.332279
O11   O     O_3   0.136636 0.232271 0.223106 -0.733637
H13   H     H_    0.118741 0.240284 0.322477 0.320630
O12   O     O_3   0.865194 0.766420 0.777304 -0.726608
H14   H     H_    0.881166 0.757715 0.677501 0.319750
O13   O     O_3   0.862823 0.374314 0.292722 -0.703748
H15   H     H_    0.916396 0.311640 0.249342 0.348703
O14   O     O_3   0.136723 0.622318 0.708431 -0.731664
H16   H     H_    0.083133 0.681520 0.757356 0.358785
N5    N     N_3   0.694123 0.133369 0.379144 -0.527950
H17   H     H_    0.702047 0.103111 0.276255 0.246702
H18   H     H_    0.775752 0.112563 0.432634 0.253936
N6    N     N_3   0.306296 0.866620 0.621607 -0.536564
H19   H     H_    0.298887 0.896754 0.724607 0.243651
H20   H     H_    0.224448 0.887521 0.568608 0.257171
N7    N     N_3   0.702288 0.871037 0.385402 -0.591773
H21   H     H_    0.740478 0.814191 0.461036 0.213065
H22   H     H_    0.672070 0.814960 0.301169 0.225830
N8    N     N_3   0.297910 0.128941 0.614939 -0.590547
H23   H     H_    0.259646 0.185792 0.539355 0.213279
H24   H     H_    0.328206 0.185007 0.699149 0.226327
N9    N     N_3   0.482398 0.272511 0.130412 -0.510287
H25   H     H_    0.556882 0.218355 0.100462 0.204479
H26   H     H_    0.402553 0.227619 0.092683 0.201889
N10   N     N_3   0.525388 0.726893 0.869610 -0.515859
H27   H     H_    0.454756 0.785515 0.901131 0.183384
H28   H     H_    0.607663 0.767440 0.906285 0.212092

loop_
_geom_bond_atom_site_label_1
_geom_bond_atom_site_label_2
_ccdc_geom_bond_type
C2    O2    A    
C27   C29   A    
Cu2   N2    S    
C14   N10   S    
N7    H21   S    
N9    H25   S    
C10   N8    S    
C20   C30   A    
C2    O4    A    
C19   C21   A    
N10   H28   S    
N8    H24   S    
C28   H6    S    
C13   N9    S    
C3    C18   S    
C31   O13   S    
N5    H18   S    
C15   H3    S    
C1    O1    A    
C27   H5    S    
C5    C32   A    
C6    C31   A    
O10   H12   S    
Cu1   O4    S    
O11   H13   S    
C1    C12   S    
C2    C11   S    
C13   N2    A    
N9    H26   S    
C21   C23   A    
C7    C12   A    
N4    H10   S    
C8    N6    S    
O14   H16   S    
Cu1   O1    S    
Cu2   O2    S    
N10   H27   S    
C15   N1    A    
C20   N4    S    
C17   O7    A    
C22   O10   S    
N8    H23   S    
Cu1   O8    S    
N3    H7    S    
N3    H8    S    
C26   O12   S    
C21   O9    S    
C9    C11   A    
Cu1   Cu2   S    
Cu2   O3    S    
C25   O11   S    
C3    C31   A    
N7    H22   S    
C4    C32   A    
C10   C12   A    
C32   O14   S    
C4    C17   S    
N6    H20   S    
C20   C22   A    
C13   C15   A    
Cu1   O5    S    
C22   C24   A    
C4    C6    A    
Cu2   O6    S    
C19   C29   A    
C16   N2    A    
C18   O8    A    
C7    C9    A    
N4    H9    S    
Cu2   O7    S    
C17   O5    A    
C24   C26   A    
N6    H19   S    
C3    C5    A    
C18   O6    A    
C7    N5    S    
C25   C27   A    
C29   H1    S    
C26   C28   A    
C30   H2    S    
Cu1   N1    S    
C28   C30   A    
C1    O3    A    
O9    H11   S    
C5    C24   S    
C14   N1    A    
C8    C11   A    
C6    C23   S    
C14   C16   A    
C23   C25   A    
N5    H17   S    
O12   H14   S    
C19   N3    S    
C8    C10   A    
O13   H15   S    
C9    N7    S    
C16   H4    S    
