data_mof_unit_55712.cif
_audit_creation_date              2013-03-05T16:49:12-0500
_audit_creation_method            fapswitch 2.2
_symmetry_space_group_name_H-M    P1
_symmetry_Int_Tables_number       1
_space_group_crystal_system       triclinic
_cell_length_a                    17.368246
_cell_length_b                    8.936558
_cell_length_c                    8.104611
_cell_angle_alpha                 89.999951
_cell_angle_beta                  89.834258
_cell_angle_gamma                 90.000099
_cell_volume                      1257.93035658

loop_
_atom_site_label
_atom_site_type_symbol
_atom_site_description
_atom_site_fract_x
_atom_site_fract_y
_atom_site_fract_z
_atom_type_partial_charge
O1    O     O_R   0.500000 0.285350 0.636850 -0.610351
O2    O     O_R   0.500000 0.714650 0.363150 -0.613313
O3    O     O_R   0.500000 0.714650 0.636850 -0.613313
O4    O     O_R   0.500000 0.285350 0.363150 -0.610351
C1    C     C_R   0.500000 0.217970 0.500000 0.943745
C2    C     C_R   0.500000 0.782029 0.500000 0.935713
O5    O     O_R   0.389120 0.500000 0.636930 -0.615867
O6    O     O_R   0.610880 0.500000 0.363070 -0.615867
O7    O     O_R   0.610880 0.500000 0.636930 -0.615397
O8    O     O_R   0.389120 0.500000 0.363070 -0.615396
C3    C     C_1   0.500000 0.065174 0.500000 -0.168140
C4    C     C_1   0.500000 0.934814 0.500000 -0.167022
C5    C     C_R   0.352614 0.503068 0.500228 0.909609
C6    C     C_R   0.647386 0.503069 0.499772 0.909609
Zn1   Zn    Zn3+2 0.500000 0.500000 0.682780 1.014311
Zn2   Zn    Zn3+2 0.500000 0.500000 0.317220 1.014311
C7    C     C_R   0.839985 0.650465 0.627552 0.305155
C8    C     C_R   0.160015 0.650461 0.372455 0.305155
C9    C     C_R   0.148912 0.539582 0.649444 0.298361
C10   C     C_R   0.851088 0.539596 0.350557 0.298357
C11   C     C_R   0.763011 0.606567 0.632547 -0.229342
C12   C     C_R   0.236988 0.606565 0.367457 -0.229342
C13   C     C_R   0.226553 0.500170 0.641814 -0.214231
C14   C     C_R   0.773447 0.500182 0.358186 -0.214228
C15   C     C_R   0.729792 0.531909 0.498876 -0.152533
C16   C     C_R   0.270207 0.531904 0.501125 -0.152529
C17   C     C_R   0.884416 0.613191 0.487342 -0.134425
C18   C     C_R   0.115584 0.613184 0.512664 -0.134423
C19   C     C_1   0.965781 0.625666 0.495844 0.194933
C20   C     C_1   0.034219 0.625663 0.504163 0.194932
N1    N     N_1   0.500000 0.500000 0.073640 -0.021864
N2    N     N_1   0.500000 0.500000 0.926360 -0.021865
N3    N     N_R   0.871873 0.731845 0.765106 0.250341
O9    O     O_R   0.839724 0.723266 0.910062 -0.316751
O10   O     O_R   0.926726 0.828989 0.742532 -0.293183
N4    N     N_R   0.128125 0.731845 0.234905 0.250335
O11   O     O_R   0.160264 0.723246 0.089940 -0.316735
O12   O     O_R   0.073283 0.829009 0.257490 -0.293192
N5    N     N_R   0.104847 0.502115 0.794894 0.237318
O13   O     O_R   0.126720 0.392974 0.890232 -0.318182
O14   O     O_R   0.047385 0.585296 0.842061 -0.250653
N6    N     N_R   0.895153 0.502139 0.205104 0.237318
O15   O     O_R   0.873280 0.393001 0.109761 -0.318181
O16   O     O_R   0.952613 0.585326 0.157941 -0.250652
H1    H     H_    0.728079 0.635787 0.738730 0.201093
H2    H     H_    0.271919 0.635789 0.261274 0.201088
H3    H     H_    0.253221 0.445290 0.746278 0.202822
H4    H     H_    0.746780 0.445306 0.253718 0.202824

loop_
_geom_bond_atom_site_label_1
_geom_bond_atom_site_label_2
_geom_bond_distance
_ccdc_geom_bond_type
O4    Zn2   1.954016 S    
C9    C13   1.394932 A    
O7    C6    1.278424 A    
N6    O16   1.300974 A    
C19   C20   1.190750 T    
O1    Zn1   1.954017 S    
C10   C17   1.414317 A    
C17   C19   1.419435 S    
O2    Zn2   1.954016 S    
C10   N6    1.442989 S    
N1    N2    1.193646 T    
C3    C4    1.164966 T    
O3    C2    1.262026 A    
C18   C20   1.419434 S    
N3    O9    1.301563 A    
O7    Zn1   1.960259 S    
O3    Zn1   1.954016 S    
Zn1   N2    1.974121 S    
N5    O14   1.300974 A    
O8    Zn2   1.960261 S    
Zn2   N1    1.974121 S    
C9    C18   1.414317 A    
O2    C2    1.262026 A    
C7    N3    1.442930 S    
O1    C1    1.262029 A    
C9    N5    1.442988 S    
N4    O12   1.301439 A    
N4    O11   1.301555 A    
C12   H2    1.083445 S    
C1    C3    1.365469 S    
C11   H1    1.083445 S    
C6    C15   1.454273 S    
C2    C4    1.365375 S    
C5    C16   1.454272 S    
C13   H3    1.083570 S    
N6    O15   1.301671 A    
C14   H4    1.083569 S    
O5    C5    1.278398 A    
C8    C18   1.411616 A    
C14   C15   1.396568 A    
O6    Zn2   1.962370 S    
C12   C16   1.398313 A    
C13   C16   1.396570 A    
N5    O13   1.301672 A    
C11   C15   1.398314 A    
O6    C6    1.278398 A    
O5    Zn1   1.962372 S    
N3    O10   1.301445 A    
C8    C12   1.393734 A    
C8    N4    1.442924 S    
C7    C11   1.393736 A    
C10   C14   1.394932 A    
O4    C1    1.262029 A    
O8    C5    1.278424 A    
C7    C17   1.411620 A    
