data_mof_unit_6370.cif
_audit_creation_date              2012-12-10T20:39:09-0500
_audit_creation_method            fapswitch 2.2
_symmetry_space_group_name_H-M    P1
_symmetry_Int_Tables_number       1
_space_group_crystal_system       triclinic
_cell_length_a                    19.007212
_cell_length_b                    10.67794
_cell_length_c                    9.869289
_cell_angle_alpha                 90.084102
_cell_angle_beta                  90.609236
_cell_angle_gamma                 90.463517
_cell_volume                      2002.86867063

loop_
_atom_site_label
_atom_site_type_symbol
_atom_type_description
_atom_site_fract_x
_atom_site_fract_y
_atom_site_fract_z
_atom_type_partial_charge
C1    C     C_R   0.498474 0.260179 0.500178 0.909671
C2    C     C_R   0.289938 0.524724 0.497545 -0.103108
C3    C     C_R   0.929956 0.606989 0.505517 0.275909
C4    C     C_R   0.072046 0.610752 0.504694 0.337019
C5    C     C_R   0.818182 0.568312 0.627103 -0.163205
C6    C     C_R   0.747107 0.537397 0.625784 -0.200260
C7    C     C_R   0.710832 0.523401 0.502147 -0.035831
C8    C     C_R   0.746527 0.540347 0.379906 -0.197457
C9    C     C_R   0.817503 0.571417 0.381204 -0.164472
C10   C     C_R   0.853930 0.585334 0.504780 0.093641
C11   C     C_R   0.514777 0.063857 0.615647 0.125520
C12   C     C_R   0.365270 0.502671 0.499307 0.886518
C13   C     C_R   0.490722 0.128519 0.502840 -0.166921
C14   C     C_R   0.453823 0.065713 0.399480 -0.347141
C15   C     C_R   0.453859 0.934575 0.396412 0.534588
C16   C     C_R   0.489116 0.871499 0.502337 -0.223440
C17   C     C_R   0.513877 0.936513 0.615546 0.066423
C18   C     C_3   0.583506 0.929142 0.687019 -0.469951
C19   C     C_3   0.584426 0.071177 0.686868 -0.468263
C20   C     C_R   0.495669 0.389878 0.069876 0.171559
C21   C     C_R   0.511648 0.607244 0.072428 -0.136660
C22   C     C_R   0.510914 0.607564 0.928617 -0.146142
C23   C     C_R   0.497683 0.739812 0.500081 0.932084
C24   C     C_R   0.496955 0.390176 0.927735 0.186795
C25   C     C_3   0.441632 0.292095 0.914216 -0.507544
C26   C     C_3   0.438879 0.290258 0.068616 -0.182694
C27   C     C_R   0.634892 0.502891 0.500632 0.850653
C28   C     C_R   0.249981 0.497682 0.611905 -0.196611
C29   C     C_R   0.179578 0.530040 0.614758 -0.240041
C30   C     C_R   0.148031 0.589864 0.503208 -0.025637
C31   C     C_R   0.188052 0.617428 0.387231 0.553212
C32   C     C_R   0.259240 0.585459 0.386235 -0.276565
H1    H     H_    0.273263 0.452045 0.699337 0.158544
H2    H     H_    0.578904 0.888695 0.790254 0.194455
H3    H     H_    0.625072 0.887206 0.623150 0.199915
H4    H     H_    0.580321 0.112500 0.789897 0.196727
H5    H     H_    0.626421 0.112286 0.622661 0.198796
H6    H     H_    0.520961 0.693696 0.126659 0.162195
H7    H     H_    0.518500 0.694832 0.875342 0.148303
H8    H     H_    0.393841 0.328354 0.861979 0.211430
H9    H     H_    0.462434 0.203946 0.870837 0.185992
H10   H     H_    0.149550 0.506010 0.703814 0.170447
H11   H     H_    0.458363 0.200804 0.111544 0.153643
H12   H     H_    0.291210 0.612828 0.300875 0.184800
H13   H     H_    0.845102 0.577725 0.723878 0.150425
H14   H     H_    0.720512 0.525922 0.721546 0.158004
H15   H     H_    0.719537 0.531227 0.283135 0.158258
H16   H     H_    0.843831 0.583183 0.285241 0.150730
H17   H     H_    0.426669 0.118247 0.321811 0.161590
N1    N     N_R   0.035016 0.615303 0.386815 -0.120908
N2    N     N_R   0.965253 0.613691 0.387168 -0.180851
N3    N     N_R   0.966913 0.606835 0.623751 -0.181448
N4    N     N_R   0.036741 0.608542 0.623338 -0.187231
N5    N     N_R   0.499530 0.499140 0.142800 -0.108100
N6    N     N_R   0.499530 0.499180 0.857150 -0.099641
O1    O     O_R   0.500010 0.316790 0.614690 -0.615143
O2    O     O_R   0.500000 0.316760 0.385350 -0.631221
O3    O     O_R   0.398140 0.500000 0.614710 -0.615359
O4    O     O_R   0.398130 0.499970 0.385370 -0.631468
O5    O     O_R   0.500000 0.683240 0.614650 -0.627305
O6    O     O_R   0.499990 0.683210 0.385310 -0.585229
O7    O     O_R   0.601870 0.500030 0.614630 -0.618106
O8    O     O_R   0.601860 0.500000 0.385290 -0.619289
Zn1   Zn    Zn3+2 0.500000 0.500020 0.653130 0.942959
Zn2   Zn    Zn3+2 0.500000 0.499980 0.346870 0.948709
O9    O     O_3   0.417065 0.866417 0.298158 -0.585677
C33   C     C_3   0.434195 0.907721 0.166649 -0.318545
H18   H     H_    0.418585 0.833589 0.093220 0.190571
H19   H     H_    0.491685 0.925336 0.154954 0.139537
H20   H     H_    0.403796 0.992061 0.139239 0.155658
C34   C     C_3   0.367829 0.331296 0.126291 -0.322719
C35   C     C_3   0.308236 0.238533 0.091372 -0.381426
C36   C     C_3   0.237928 0.285351 0.143562 -0.874344
H21   H     H_    0.240905 0.302447 0.254582 0.266377
H22   H     H_    0.223515 0.373383 0.090990 0.246504
H23   H     H_    0.196286 0.214175 0.122730 0.264624
H24   H     H_    0.303645 0.224912 0.980064 0.232858
H25   H     H_    0.319361 0.146590 0.138820 0.228075
H26   H     H_    0.373102 0.332914 0.237731 0.233630
H27   H     H_    0.354169 0.426629 0.089427 0.211778
O10   O     O_3   0.159322 0.687875 0.282858 -0.592346
C37   C     C_3   0.158736 0.617382 0.161811 -0.300382
H28   H     H_    0.134512 0.523065 0.176346 0.158713
H29   H     H_    0.212494 0.609269 0.119764 0.153276
H30   H     H_    0.126174 0.667207 0.085472 0.207563

loop_
_geom_bond_atom_site_label_1
_geom_bond_atom_site_label_2
_ccdc_geom_bond_type
O8    Zn2   S    
C29   H10   S    
C36   H21   S    
C2    C12   S    
C34   H26   S    
O10   C37   S    
C7    C8    A    
N5    Zn2   S    
C24   N6    A    
C11   C19   S    
C35   H24   S    
C28   C29   A    
C1    O1    A    
C19   H4    S    
C25   H8    S    
C21   N5    A    
C4    N4    A    
C14   H17   S    
C15   C16   A    
C7    C27   S    
C2    C32   A    
C18   C19   S    
O7    Zn1   S    
C19   H5    S    
C12   O4    A    
C21   H6    S    
C20   C24   A    
C16   C17   A    
C35   H25   S    
O1    Zn1   S    
C9    C10   A    
C12   O3    A    
O9    C33   S    
C21   C22   A    
C26   C34   S    
C36   H22   S    
C34   H27   S    
C26   H11   S    
N1    N2    A    
O3    Zn1   S    
C23   O5    A    
C33   H18   S    
C24   C25   S    
C20   N5    A    
C25   H9    S    
C3    N2    A    
C8    C9    A    
C25   C26   S    
C15   O9    S    
C5    H13   S    
C4    N1    A    
C33   H19   S    
C29   C30   A    
C27   O7    A    
C1    O2    A    
C31   C32   A    
C30   C31   A    
N6    Zn1   S    
C17   C18   S    
C32   H12   S    
C18   H2    S    
C6    C7    A    
C27   O8    A    
C28   H1    S    
C16   C23   S    
C37   H29   S    
C36   H23   S    
C1    C13   S    
N3    N4    A    
C18   H3    S    
C11   C17   A    
C6    H14   S    
O2    Zn2   S    
C35   C36   S    
C3    N3    A    
C22   N6    A    
C37   H30   S    
C31   O10   S    
O5    Zn1   S    
C33   H20   S    
C8    H15   S    
C5    C10   A    
C3    C10   S    
O4    Zn2   S    
C11   C13   A    
C5    C6    A    
C20   C26   S    
C22   H7    S    
O6    Zn2   S    
C23   O6    A    
C34   C35   S    
C9    H16   S    
C37   H28   S    
C14   C15   A    
C2    C28   A    
C13   C14   A    
C4    C30   S    
