data_mof_unit_56587.cif
_audit_creation_date              2012-12-11T14:35:55-0500
_audit_creation_method            fapswitch 2.2
_symmetry_space_group_name_H-M    P1
_symmetry_Int_Tables_number       1
_space_group_crystal_system       triclinic
_cell_length_a                    13.503224
_cell_length_b                    13.479693
_cell_length_c                    27.510535
_cell_angle_alpha                 90.447797
_cell_angle_beta                  90.133378
_cell_angle_gamma                 60.174499
_cell_volume                      4344.04327191

loop_
_atom_site_label
_atom_site_type_symbol
_atom_type_description
_atom_site_fract_x
_atom_site_fract_y
_atom_site_fract_z
_atom_type_partial_charge
C1    C     C_R   0.620182 0.100982 0.570272 0.544999
C2    C     C_1   0.647972 0.702681 0.657929 -0.057589
C3    C     C_3   0.494816 0.548466 0.229009 -0.090356
C4    C     C_3   0.913263 0.970344 0.139412 -0.040885
C5    C     C_3   0.077710 0.163945 0.738415 -0.090632
C6    C     C_R   0.599709 0.779044 0.568573 0.551587
C7    C     C_3   0.155347 0.069551 0.775085 -0.184050
C8    C     C_1   0.100675 0.198524 0.902860 -0.000155
C9    C     C_1   0.232534 0.136347 0.618222 -0.006351
C10   C     C_3   0.079669 0.254462 0.772363 0.266258
C11   C     C_3   0.154978 0.161772 0.808702 0.062586
C12   C     C_3   0.185205 0.244686 0.746343 -0.079682
C13   C     C_3   0.185327 0.151579 0.713222 -0.028602
C14   C     C_1   0.630853 0.730561 0.615981 -0.007435
C15   C     C_3   0.260613 0.150329 0.782860 0.358247
C16   C     C_3   0.263496 0.056847 0.749059 -0.104114
C17   C     C_1   0.131013 0.176372 0.861078 -0.001667
C18   C     C_R   0.278406 0.121382 0.569916 0.547866
C19   C     C_1   0.206413 0.144565 0.660608 -0.047994
C20   C     C_3   0.628268 0.277301 0.738916 -0.126287
C21   C     C_3   0.554176 0.259841 0.777309 -0.120331
C22   C     C_1   0.691544 0.209772 0.902862 -0.001113
C23   C     C_1   0.635602 0.132265 0.618480 -0.010602
C24   C     C_3   0.736170 0.206665 0.770476 -0.139537
C25   C     C_3   0.697498 0.560790 0.768307 -0.113317
C26   C     C_3   0.662137 0.189344 0.808240 0.049947
C27   C     C_3   0.758562 0.095229 0.744112 -0.073563
C28   C     C_3   0.650837 0.166130 0.713270 0.003365
C29   C     C_3   0.683388 0.080360 0.782037 0.305219
C30   C     C_R   0.620001 0.097404 0.430070 0.536824
C31   C     C_3   0.576071 0.148350 0.750594 -0.085764
C32   C     C_1   0.674343 0.200157 0.860603 -0.034711
C33   C     C_1   0.644086 0.150729 0.660792 -0.055622
C34   C     C_R   0.733056 0.685003 0.360349 0.347801
C35   C     C_R   0.750187 0.669900 0.310076 0.009372
C36   C     C_3   0.677444 0.655821 0.805258 0.059603
C37   C     C_R   0.779676 0.631660 0.209697 0.048053
C38   C     C_R   0.874787 0.585603 0.240545 -0.128526
C39   C     C_R   0.860196 0.604545 0.290533 -0.104199
C40   C     C_R   0.791883 0.600856 0.161001 -0.086205
C41   C     C_R   0.694881 0.635273 0.131659 0.008919
C42   C     C_R   0.599505 0.780172 0.429409 0.590454
C43   C     C_R   0.528028 0.798975 0.347076 -0.180715
C44   C     C_R   0.543819 0.787392 0.297317 -0.016166
C45   C     C_R   0.654747 0.721096 0.278594 -0.005571
C46   C     C_R   0.450005 0.840553 0.266100 -0.120391
C47   C     C_3   0.587906 0.647022 0.740925 -0.123838
C48   C     C_R   0.464452 0.822224 0.216222 -0.136504
C49   C     C_R   0.573259 0.749225 0.197356 0.019323
C50   C     C_R   0.669518 0.702615 0.228429 0.079882
C51   C     C_R   0.586514 0.714026 0.148922 -0.128703
C52   C     C_R   0.621731 0.747747 0.378624 0.021813
C53   C     C_R   0.194134 0.070919 0.359836 -0.146315
C54   C     C_R   0.278332 0.121073 0.430798 0.545162
C55   C     C_R   0.166904 0.084479 0.310222 0.002971
C56   C     C_R   0.131324 0.102541 0.209202 0.005386
C57   C     C_R   0.122369 0.018337 0.235377 -0.143654
C58   C     C_3   0.660686 0.681672 0.710181 -0.000135
C59   C     C_R   0.139702 0.009574 0.285645 -0.141585
C60   C     C_R   0.109151 0.115709 0.159409 -0.139397
C61   C     C_R   0.107958 0.207167 0.134693 -0.002903
C62   C     C_R   0.216223 0.239271 0.357664 -0.109561
C63   C     C_R   0.196456 0.249543 0.308210 0.004728
C64   C     C_R   0.173074 0.171171 0.284072 0.064100
C65   C     C_R   0.205087 0.334054 0.282336 -0.131091
C66   C     C_3   0.770404 0.595237 0.736557 -0.084501
C67   C     C_R   0.190762 0.340938 0.232259 -0.137814
C68   C     C_R   0.165702 0.264684 0.207832 0.005086
C69   C     C_3   0.567992 0.741589 0.778542 -0.144877
C70   C     C_R   0.157150 0.179066 0.233666 0.065717
C71   C     C_R   0.142853 0.276869 0.158376 -0.134290
C72   C     C_R   0.222679 0.146155 0.383184 -0.001328
C73   C     C_R   0.565430 0.231848 0.360524 -0.102555
C74   C     C_R   0.563243 0.249631 0.310301 -0.004207
C75   C     C_R   0.574252 0.283241 0.210077 -0.042930
C76   C     C_R   0.505630 0.377005 0.240819 0.302662
C77   C     C_R   0.499567 0.359522 0.290717 0.374679
C78   C     C_3   0.748385 0.690204 0.773716 0.308991
C79   C     C_R   0.593015 0.299693 0.161573 -0.167896
C80   C     C_3   0.639880 0.777360 0.746889 -0.093758
C81   C     C_R   0.673311 0.207877 0.133276 -0.023162
C82   C     C_R   0.688020 0.027582 0.347661 -0.120381
C83   C     C_R   0.683971 0.043452 0.297812 -0.038022
C84   C     C_R   0.625086 0.154965 0.278972 -0.019368
C85   C     C_R   0.735844 0.949073 0.266500 -0.100773
C86   C     C_R   0.738849 0.964879 0.216824 0.382996
C87   C     C_R   0.695682 0.076086 0.198253 0.037654
C88   C     C_R   0.630426 0.171474 0.228944 -0.093736
C89   C     C_R   0.722473 0.094574 0.150993 0.290106
C90   C     C_1   0.696774 0.608916 0.900039 -0.008493
C91   C     C_1   0.687264 0.635353 0.857800 -0.035872
C92   C     C_R   0.630133 0.121263 0.379271 -0.009868
C93   C     C_R   0.049881 0.235849 0.950030 0.545875
C94   C     C_R   0.711582 0.563036 0.948112 0.548398
C95   C     C_R   0.722246 0.225815 0.950908 0.552167
C96   C     C_R   0.048835 0.244466 0.088204 0.542174
C97   C     C_R   0.709098 0.574560 0.086155 0.541734
C98   C     C_R   0.717917 0.232870 0.088975 0.561746
C99   C     C_3   0.886631 0.736718 0.755865 -0.088295
C100  C     C_3   0.007903 0.432908 0.807624 -0.106925
C101  C     C_3   0.629078 0.978886 0.832053 -0.065477
Cr1   Cr    Cr6+3 0.417550 0.169090 0.500530 1.041478
Cr2   Cr    Cr6+3 0.669180 0.913420 0.499920 1.071708
Cr3   Cr    Cr6+3 0.413260 0.917540 0.499520 1.034236
Cr4   Cr    Cr6+3 0.909170 0.177380 0.020380 1.037614
Cr5   Cr    Cr6+3 0.912710 0.429210 0.018220 1.041540
Cr6   Cr    Cr6+3 0.657170 0.432570 0.019030 1.032638
F1    F     F_    0.353753 0.143785 0.806689 -0.688143
F2    F     F_    0.823338 0.639114 0.391330 -0.634665
F3    F     F_    0.432197 0.450135 0.319892 -0.641808
F4    F     F_    0.784717 0.871178 0.187372 -0.616683
H1    H     H_    0.197787 0.316139 0.734410 0.102291
H2    H     H_    0.934644 0.565700 0.313816 0.183002
H3    H     H_    0.512506 0.741794 0.125677 0.120994
H4    H     H_    0.390117 0.859946 0.192822 0.119479
H5    H     H_    0.365307 0.892994 0.280523 0.135048
H6    H     H_    0.442291 0.851980 0.361265 0.145280
H7    H     H_    0.085266 0.059820 0.140701 0.111028
H8    H     H_    0.198196 0.999617 0.379503 0.125885
H9    H     H_    0.101744 0.959530 0.217008 0.103573
H10   H     H_    0.616955 0.865690 0.736600 0.113532
H11   H     H_    0.134339 0.942824 0.305101 0.128593
H12   H     H_    0.470446 0.327512 0.791437 0.135861
H13   H     H_    0.143787 0.346431 0.139223 0.135764
H14   H     H_    0.197230 0.407075 0.212776 0.137681
H15   H     H_    0.224221 0.393918 0.300756 0.159299
H16   H     H_    0.236258 0.299393 0.375279 0.155872
H17   H     H_    0.554080 0.385656 0.147294 0.178671
H18   H     H_    0.516638 0.303142 0.385048 0.180469
H19   H     H_    0.485414 0.801338 0.796248 0.118059
H20   H     H_    0.775416 0.862898 0.280534 0.141078
H21   H     H_    0.732338 0.941102 0.361673 0.150343
H22   H     H_    0.521791 0.628614 0.726547 0.118215
H23   H     H_    0.605614 0.358961 0.720582 0.119020
H24   H     H_    0.720471 0.471922 0.777732 0.139860
H25   H     H_    0.143672 0.997596 0.787092 0.120411
H26   H     H_    0.000996 0.171766 0.719925 0.121773
H27   H     H_    0.340957 0.975168 0.739074 0.116452
H28   H     H_    0.825387 0.810041 0.733374 0.143138
H29   H     H_    0.936799 0.659936 0.732572 0.083788
H30   H     H_    0.947317 0.760327 0.772198 0.158557
H31   H     H_    0.032109 0.475806 0.779583 0.124655
H32   H     H_    0.077486 0.391639 0.834859 0.131712
H33   H     H_    0.932084 0.499083 0.827371 0.186564
H34   H     H_    0.510947 0.123880 0.741424 0.149658
H35   H     H_    0.560884 0.984500 0.807753 0.164335
H36   H     H_    0.593163 0.050747 0.858707 0.144416
H37   H     H_    0.662103 0.898447 0.852873 0.168504
H38   H     H_    0.499344 0.566153 0.268261 0.182965
H39   H     H_    0.581799 0.505436 0.212581 0.095289
H40   H     H_    0.444065 0.631614 0.210647 0.145956
H41   H     H_    0.939930 0.906444 0.168846 0.161999
H42   H     H_    0.922642 0.043772 0.152362 0.079387
H43   H     H_    0.973610 0.929408 0.108710 0.137974
H44   H     H_    0.842267 0.026655 0.730347 0.104957
H45   H     H_    0.801817 0.230956 0.778920 0.130470
H46   H     H_    0.876384 0.540699 0.147357 0.133451
H47   H     H_    0.852522 0.535547 0.718533 0.133391
H48   H     H_    0.959915 0.531692 0.226169 0.119944
O1    O     O_R   0.301710 0.195650 0.554160 -0.501472
O2    O     O_R   0.635520 0.542770 0.964420 -0.506091
O3    O     O_R   0.665950 0.325030 0.970100 -0.495451
O4    O     O_R   0.522390 0.158990 0.550460 -0.493258
O5    O     O_R   0.816620 0.158530 0.074540 -0.481256
O6    O     O_R   0.004460 0.188870 0.069750 -0.510651
O7    O     O_R   0.025800 0.341780 0.072300 -0.520863
O8    O     O_R   0.807650 0.528950 0.067500 -0.500057
O9    O     O_R   0.633420 0.550490 0.071810 -0.517685
O10   O     O_R   0.664000 0.332180 0.069640 -0.510463
O11   O     O_3   0.826350 0.346390 0.019210 -0.255651
O12   O     O_R   0.658900 0.818120 0.449760 -0.453543
O13   O     O_R   0.694390 0.003530 0.554040 -0.506028
O14   O     O_R   0.657700 0.819660 0.549320 -0.491431
O15   O     O_R   0.501930 0.803280 0.552920 -0.504031
O16   O     O_R   0.318170 0.023580 0.549580 -0.494380
O17   O     O_R   0.303010 0.193990 0.446760 -0.513370
O18   O     O_R   0.523600 0.157450 0.450900 -0.501712
O19   O     O_R   0.695690 0.001860 0.446640 -0.507327
O20   O     O_3   0.831001 0.713571 0.793686 -0.558084
O21   O     O_3   0.979181 0.355936 0.785438 -0.594048
O22   O     O_3   0.719591 0.974464 0.804930 -0.564443
O23   O     O_R   0.503220 0.801620 0.445520 -0.526872
O24   O     O_3   0.439052 0.484822 0.221644 -0.549542
O25   O     O_3   0.801473 0.003416 0.122978 -0.484513
O26   O     O_R   0.319370 0.022040 0.450020 -0.506651
O27   O     O_3   0.499990 0.000010 0.499990 -0.266816
O28   O     O_R   0.818720 0.150820 0.967160 -0.495698
O29   O     O_R   0.006410 0.181720 0.970200 -0.496269
O30   O     O_R   0.027890 0.334070 0.964920 -0.503945
O31   O     O_R   0.809600 0.521790 0.967960 -0.489066

loop_
_geom_bond_atom_site_label_1
_geom_bond_atom_site_label_2
_ccdc_geom_bond_type
C4    H43   S    
C79   H17   S    
C63   C65   A    
C101  H37   S    
C26   C32   S    
C55   C59   A    
C27   C29   S    
C73   C74   A    
Cr3   O23   S    
C24   C27   S    
C66   H47   S    
C21   C26   S    
C9    C18   S    
C49   C51   A    
C61   C96   S    
C95   O28   A    
C85   C86   A    
C42   O23   A    
C7    C11   S    
Cr3   O26   S    
C21   C31   S    
Cr1   O27   S    
C29   O22   S    
Cr5   O7    S    
Cr4   O29   S    
C24   C26   S    
C38   H48   S    
C37   C40   A    
C16   H27   S    
C67   H14   S    
C38   C39   A    
C78   C80   S    
C43   C52   A    
C57   C59   A    
C81   C98   S    
Cr1   O17   S    
C15   C16   S    
Cr2   O14   S    
C82   C92   A    
C56   C57   A    
C34   C35   A    
C22   C95   S    
C54   O17   A    
C49   C50   A    
C47   C69   S    
C98   O10   A    
C11   C15   S    
C58   C66   S    
C101  H36   S    
Cr6   O2    S    
C44   C46   A    
Cr1   O4    S    
C39   H2    S    
C54   O26   A    
Cr6   O3    S    
C60   H7    S    
C26   C29   S    
C64   C70   A    
C76   O24   S    
C25   C47   S    
C5    C13   S    
C58   C80   S    
C81   C89   A    
C18   O16   A    
C61   C71   A    
C59   H11   S    
C4    H42   S    
C2    C14   T    
C20   H23   S    
C47   H22   S    
Cr2   O12   S    
Cr5   O11   S    
C99   H28   S    
C77   F3    S    
Cr2   O27   S    
C66   C78   S    
C9    C19   T    
C90   C94   S    
Cr3   O16   S    
C73   H18   S    
C80   H10   S    
C53   C55   A    
C27   H44   S    
C4    H41   S    
C46   C48   A    
C101  H35   S    
C3    H38   S    
C51   H3    S    
Cr4   O11   S    
C13   C19   S    
C67   C68   A    
C89   O25   S    
C20   C24   S    
C71   H13   S    
C76   C77   A    
C23   C33   T    
C100  H33   S    
C95   O3    A    
Cr1   O1    S    
C5    C7    S    
C40   C41   A    
C86   C87   A    
C69   H19   S    
Cr3   O15   S    
C6    O15   A    
C65   C67   A    
C97   O8    A    
C74   C77   A    
C78   O20   S    
C60   C61   A    
C15   F1    S    
C21   H12   S    
C35   C39   A    
C75   C76   A    
C94   O31   A    
C99   O20   S    
C37   C38   A    
C6    C14   S    
C40   H46   S    
C83   C84   A    
C12   C15   S    
C55   C64   A    
C62   C63   A    
C53   H8    S    
C30   O19   A    
Cr4   O5    S    
C62   C72   A    
C4    O25   S    
C94   O2    A    
C10   C12   S    
C43   H6    S    
C48   H4    S    
C36   C91   S    
C30   C92   S    
C48   C49   A    
C83   C85   A    
C28   C33   S    
C1    C23   S    
C56   C70   A    
C10   C11   S    
C57   H9    S    
C43   C44   A    
Cr2   O13   S    
C41   C97   S    
C99   H29   S    
Cr5   O31   S    
C82   H21   S    
C35   C45   A    
C12   H1    S    
C22   C32   T    
C101  O22   S    
C44   C45   A    
C79   C81   A    
Cr6   O10   S    
C34   F2    S    
Cr6   O9    S    
C11   C17   S    
C3    H39   S    
C3    H40   S    
C99   H30   S    
C28   C31   S    
C7    C16   S    
C25   C66   S    
C84   C88   A    
C73   C92   A    
C74   C84   A    
C100  H32   S    
C98   O5    A    
C2    C58   S    
C5    H26   S    
C6    O14   A    
C93   O30   A    
C97   O9    A    
C20   C28   S    
C1    O13   A    
C34   C52   A    
Cr3   O27   S    
C46   H5    S    
Cr2   O19   S    
C10   O21   S    
Cr5   O8    S    
Cr4   O28   S    
C87   C89   A    
C86   F4    S    
C5    C10   S    
C29   C31   S    
C100  H31   S    
C65   H15   S    
C8    C17   T    
C37   C50   A    
C90   C91   T    
C62   H16   S    
C75   C79   A    
C45   C50   A    
C68   C71   A    
C30   O18   A    
Cr4   O6    S    
C96   O7    A    
C36   C69   S    
C25   H24   S    
C18   O1    A    
C42   O12   A    
C25   C36   S    
C63   C64   A    
C31   H34   S    
C93   O29   A    
C56   C60   A    
C75   C88   A    
C7    H25   S    
C54   C72   S    
C20   C21   S    
C1    O4    A    
C87   C88   A    
C68   C70   A    
C82   C83   A    
C8    C93   S    
C13   C16   S    
C27   C28   S    
Cr1   O18   S    
C96   O6    A    
C69   C80   S    
C36   C78   S    
Cr5   O30   S    
C12   C13   S    
C53   C72   A    
C3    O24   S    
C41   C51   A    
C85   H20   S    
C24   H45   S    
C42   C52   S    
C47   C58   S    
Cr6   O11   S    
C100  O21   S    
