data_mof_unit_49257.cif
_audit_creation_date              2012-12-11T14:15:18-0500
_audit_creation_method            fapswitch 2.2
_symmetry_space_group_name_H-M    P1
_symmetry_Int_Tables_number       1
_space_group_crystal_system       triclinic
_cell_length_a                    11.127874
_cell_length_b                    12.714369
_cell_length_c                    23.629469
_cell_angle_alpha                 90.898489
_cell_angle_beta                  96.727436
_cell_angle_gamma                 68.856226
_cell_volume                      3095.37584295

loop_
_atom_site_label
_atom_site_type_symbol
_atom_type_description
_atom_site_fract_x
_atom_site_fract_y
_atom_site_fract_z
_atom_type_partial_charge
C1    C     C_R   0.149312 0.615620 0.428760 0.543963
C2    C     C_2   0.229102 0.203932 0.233574 0.306841
C3    C     C_2   0.122019 0.207793 0.256212 0.214102
C4    C     C_R   0.749338 0.603326 0.403527 0.580385
C5    C     C_1   0.115007 0.223064 0.316490 0.049376
C6    C     C_1   0.234318 0.182973 0.172985 -0.003520
C7    C     C_1   0.109565 0.243156 0.366296 0.015917
C8    C     C_1   0.171566 0.758356 0.125490 0.022206
C9    C     C_2   0.154461 0.734321 0.235668 0.272487
C10   C     C_2   0.217453 0.635937 0.264819 0.268329
C11   C     C_1   0.206569 0.629034 0.324846 0.088411
C12   C     C_R   0.660474 0.555117 0.308352 0.236842
C13   C     C_1   0.162683 0.742731 0.174806 0.011074
C14   C     C_1   0.187399 0.624790 0.373757 0.044729
C15   C     C_1   0.594791 0.766280 0.860048 0.026151
C16   C     C_R   0.100612 0.282753 0.423240 0.537927
C17   C     C_2   0.599810 0.735721 0.750342 0.267363
C18   C     C_2   0.701610 0.656153 0.731140 0.301933
C19   C     C_1   0.700661 0.641663 0.670433 0.026771
C20   C     C_1   0.599844 0.754127 0.810022 0.090876
C21   C     C_1   0.711993 0.627319 0.620918 0.030031
C22   C     C_R   0.226144 0.152254 0.845545 -0.024444
C23   C     C_R   0.693763 0.734852 0.318752 0.211975
C24   C     C_R   0.099667 0.210678 0.634336 -0.041839
C25   C     C_R   0.982417 0.225578 0.716038 0.249877
C26   C     C_R   0.982500 0.227335 0.657267 0.225034
C27   C     C_R   0.217877 0.156203 0.666827 0.243865
C28   C     C_R   0.151782 0.617898 0.590460 0.563944
C29   C     C_R   0.221220 0.156116 0.726439 -0.062516
C30   C     C_R   0.102129 0.187979 0.751649 -0.097261
C31   C     C_R   0.107410 0.176980 0.811534 0.216394
C32   C     C_R   0.337846 0.147018 0.819717 0.221556
C33   C     C_R   0.339000 0.134847 0.761595 0.282148
C34   C     C_R   0.697846 0.742003 0.259196 -0.075165
C35   C     C_R   0.128223 0.745383 0.850630 -0.023820
C36   C     C_R   0.202986 0.643346 0.647592 -0.005844
C37   C     C_R   0.325406 0.575225 0.740034 0.263716
C38   C     C_R   0.305706 0.560677 0.681015 0.235501
C39   C     C_R   0.131585 0.743570 0.673176 0.221165
C40   C     C_R   0.749723 0.602075 0.565638 0.546215
C41   C     C_R   0.126103 0.741884 0.732225 -0.070293
C42   C     C_R   0.224777 0.655420 0.766730 -0.073620
C43   C     C_R   0.221009 0.655242 0.826290 0.210456
C44   C     C_R   0.017282 0.814769 0.815811 0.205855
C45   C     C_R   0.683121 0.653029 0.225390 -0.075767
C46   C     C_R   0.019979 0.818941 0.757018 0.284575
C47   C     C_R   0.265993 0.110749 0.069093 0.549431
C48   C     C_R   0.601170 0.775443 0.081297 0.572779
C49   C     C_R   0.189137 0.788257 0.069557 0.541878
C50   C     C_R   0.245642 0.109882 0.905191 0.575042
C51   C     C_R   0.570539 0.777356 0.917667 0.524283
C52   C     C_R   0.098310 0.276134 0.583699 0.540010
C53   C     C_R   0.164057 0.785933 0.906746 0.557639
C54   C     C_R   0.673556 0.756338 0.139197 -0.024684
C55   C     C_R   0.693659 0.634555 0.343421 -0.018510
C56   C     C_R   0.693307 0.654303 0.167059 0.250361
C57   C     C_R   0.649099 0.568033 0.248982 0.292743
C58   C     C_3   0.844102 0.505873 0.130934 -0.100357
C59   C     C_3   0.070001 0.929774 0.241689 -0.012868
C60   C     C_3   0.921820 0.541794 0.746479 -0.087097
C61   C     C_3   0.972162 0.088934 0.832059 0.052603
C62   C     C_3   0.449608 0.249063 0.863502 -0.008001
C63   C     C_3   0.326958 0.032434 0.602098 -0.002145
C64   C     C_3   0.856414 0.828614 0.870658 -0.093953
C65   C     C_3   0.819808 0.864928 0.706938 0.006830
C66   C     C_3   0.381832 0.369778 0.671061 0.028721
C67   C     C_R   0.695862 0.843321 0.171303 0.180490
C68   C     C_3   0.648510 0.405776 0.202755 0.021905
C69   C     C_3   0.721683 0.367071 0.335308 -0.032441
C70   C     C_3   0.446232 0.190830 0.243408 -0.019529
C71   C     C_R   0.715697 0.833304 0.231328 0.287707
C72   C     C_1   0.243797 0.156768 0.124112 0.015031
Cl1   Cl    Cl    0.460667 0.817694 0.705201 -0.607488
Cl2   Cl    Cl    0.662921 0.854047 0.362553 -0.466469
Cl3   Cl    Cl    0.983412 0.202553 0.213466 -0.742054
Cl4   Cl    Cl    0.304663 0.511244 0.231533 -0.574010
Cl5   Cl    Cl    0.830179 0.293327 0.742065 -0.402020
Cl6   Cl    Cl    0.493477 0.097370 0.736777 -0.491973
Cl7   Cl    Cl    0.833311 0.251308 0.613583 -0.421128
Cl8   Cl    Cl    0.312755 0.535694 0.870655 -0.586546
Cl9   Cl    Cl    0.704215 0.963158 0.137228 -0.536556
Cl10  Cl    Cl    0.482820 0.504814 0.775892 -0.438442
Cl11  Cl    Cl    0.060878 0.871104 0.631730 -0.490000
Cl12  Cl    Cl    0.768027 0.934118 0.268380 -0.462545
Cr1   Cr    Cr6+3 0.189770 0.415650 0.511620 1.089869
Cr2   Cr    Cr6+3 0.930400 0.667320 0.496770 1.134749
Cr3   Cr    Cr6+3 0.879870 0.417010 0.491650 1.095521
Cr4   Cr    Cr6+3 0.149500 0.973980 0.985330 1.065108
Cr5   Cr    Cr6+3 0.457000 0.976510 0.994660 1.104772
Cr6   Cr    Cr6+3 0.411170 0.724270 0.995270 1.135662
H1    H     H_    0.859327 0.427068 0.107158 0.178004
H2    H     H_    0.061813 0.011975 0.836282 0.130961
H3    H     H_    0.915361 0.087327 0.790517 0.224287
H4    H     H_    0.913080 0.085344 0.866145 0.197553
H5    H     H_    0.436127 0.299606 0.823634 0.184104
H6    H     H_    0.543577 0.243508 0.887557 0.184341
H7    H     H_    0.371844 0.292329 0.890643 0.154521
H8    H     H_    0.272440 0.070149 0.560434 0.118281
H9    H     H_    0.284446 0.973829 0.618781 0.197659
H10   H     H_    0.427784 0.981511 0.594440 0.179142
H11   H     H_    0.914283 0.800528 0.912847 0.137819
H12   H     H_    0.902557 0.482172 0.173521 0.139388
H13   H     H_    0.846703 0.754529 0.847626 0.124831
H14   H     H_    0.758422 0.886148 0.878632 0.175084
H15   H     H_    0.777066 0.846154 0.743898 0.142585
H16   H     H_    0.852846 0.790273 0.679656 0.094652
H17   H     H_    0.741957 0.932784 0.680743 0.219687
H18   H     H_    0.279020 0.376673 0.670821 0.079860
H19   H     H_    0.435933 0.339320 0.713659 0.198654
H20   H     H_    0.426201 0.304872 0.640148 0.223190
H21   H     H_    0.604871 0.349281 0.220007 0.145587
H22   H     H_    0.753316 0.378239 0.218927 0.141642
H23   H     H_    0.879203 0.560936 0.106474 0.123020
H24   H     H_    0.640266 0.395355 0.155945 0.194393
H25   H     H_    0.814982 0.365179 0.321515 0.092032
H26   H     H_    0.687835 0.306645 0.310336 0.135727
H27   H     H_    0.741893 0.333995 0.379929 0.181275
H28   H     H_    0.431224 0.252307 0.207896 0.157203
H29   H     H_    0.480046 0.102835 0.228174 0.168932
H30   H     H_    0.524045 0.198338 0.275270 0.187247
H31   H     H_    0.004633 0.949376 0.200810 0.208876
H32   H     H_    0.167077 0.931698 0.235862 0.110582
H33   H     H_    0.026521 0.996405 0.271930 0.219836
H34   H     H_    0.949766 0.607298 0.727037 0.052692
H35   H     H_    0.915602 0.478201 0.714633 0.159948
H36   H     H_    0.000158 0.497567 0.780858 0.168076
O1    O     O_R   0.196340 0.303200 0.448500 -0.480135
O2    O     O_R   0.555390 0.700940 0.062700 -0.449746
O3    O     O_R   0.295020 0.731920 0.049950 -0.478945
O4    O     O_R   0.199310 0.519670 0.454880 -0.489924
O5    O     O_R   0.094290 0.884230 0.921550 -0.517358
O6    O     O_R   0.168980 0.069410 0.926940 -0.488270
O7    O     O_R   0.358400 0.089990 0.927950 -0.468666
O8    O     O_R   0.544850 0.873850 0.939920 -0.499948
O9    O     O_R   0.536020 0.701900 0.936430 -0.459074
O10   O     O_R   0.277070 0.732810 0.932890 -0.438346
O11   O     O_3   0.339220 0.891590 0.991750 -0.295468
O12   O     O_R   0.811960 0.658090 0.547150 -0.504776
O13   O     O_R   0.045660 0.691380 0.441680 -0.463478
O14   O     O_R   0.811930 0.659460 0.430950 -0.447563
O15   O     O_R   0.757900 0.507620 0.421760 -0.500957
O16   O     O_R   0.988630 0.322990 0.439840 -0.520264
O17   O     O_R   0.196380 0.301720 0.573850 -0.499000
O18   O     O_R   0.199350 0.518300 0.571080 -0.477300
O19   O     O_R   0.045700 0.689900 0.567030 -0.462047
O20   O     O_3   0.710671 0.557927 0.136040 -0.527885
O21   O     O_3   0.079752 0.825700 0.265390 -0.556018
O22   O     O_3   0.804458 0.590538 0.770649 -0.545880
O23   O     O_R   0.757930 0.506140 0.547110 -0.450696
O24   O     O_3   0.998530 0.189314 0.837682 -0.514779
O25   O     O_3   0.453865 0.139050 0.851444 -0.510105
O26   O     O_3   0.330806 0.117463 0.640789 -0.503608
O27   O     O_3   0.910230 0.889073 0.838420 -0.563138
O28   O     O_3   0.921376 0.903561 0.724937 -0.482410
O29   O     O_3   0.392745 0.472148 0.654851 -0.503228
O30   O     O_3   0.575419 0.518535 0.214502 -0.466690
O31   O     O_3   0.621233 0.475006 0.331859 -0.506368
O32   O     O_3   0.332338 0.215227 0.269949 -0.550187
O33   O     O_R   0.988670 0.321620 0.556040 -0.455148
O34   O     O_3   0.000020 0.499990 0.500010 -0.300035
O35   O     O_R   0.113660 0.883270 0.047820 -0.498099
O36   O     O_R   0.186930 0.068530 0.043990 -0.485852
O37   O     O_R   0.377770 0.089040 0.054220 -0.479026
O38   O     O_R   0.562800 0.872960 0.056970 -0.459473

loop_
_geom_bond_atom_site_label_1
_geom_bond_atom_site_label_2
_ccdc_geom_bond_type
C59   H31   S    
C64   H13   S    
C69   H26   S    
C24   C52   S    
C27   O26   S    
C62   H6    S    
C35   C53   S    
C41   C42   A    
C16   O16   A    
C24   C27   A    
Cr4   O11   S    
Cr1   O17   S    
C39   C41   A    
C6    C72   T    
C32   O25   S    
C45   C57   A    
C28   O19   A    
C63   H10   S    
C22   C32   A    
C25   Cl5   S    
C44   O27   S    
C60   H35   S    
C19   C21   T    
C24   C26   A    
C63   H8    S    
C18   O22   S    
C30   C31   A    
C51   O8    A    
C61   H3    S    
C33   Cl6   S    
C27   C29   A    
Cr4   O35   S    
C29   C33   A    
C17   C20   S    
Cr3   O34   S    
C18   C19   S    
C68   H22   S    
C37   C42   A    
C60   H34   S    
C9    C13   S    
C63   H9    S    
C65   O28   S    
C47   O36   A    
C10   Cl4   S    
C45   C56   A    
C70   H30   S    
C40   O12   A    
C58   H23   S    
C69   O31   S    
C41   C46   A    
C28   O18   A    
Cr1   O34   S    
C15   C51   S    
C12   O31   S    
C29   C30   A    
C3    Cl3   S    
C61   O24   S    
Cr5   O38   S    
C49   O35   A    
C1    O13   A    
C61   H2    S    
Cr2   O14   S    
C22   C50   S    
C47   O37   A    
C59   H32   S    
C66   H19   S    
C62   H5    S    
C17   Cl1   S    
Cr6   O3    S    
C2    C6    S    
C53   O10   A    
C51   O9    A    
C38   O29   S    
Cr1   O18   S    
C65   H15   S    
C44   C46   A    
C59   H33   S    
C15   C20   T    
C46   O28   S    
C57   O30   S    
C54   C56   A    
C52   O17   A    
Cr5   O7    S    
C62   O25   S    
C1    O4    A    
C22   C31   A    
C4    O15   A    
C5    C7    T    
C31   O24   S    
C61   H4    S    
C64   H11   S    
C3    C5    S    
C43   Cl8   S    
C49   O3    A    
C64   O27   S    
C9    O21   S    
C66   H20   S    
C70   O32   S    
C68   H21   S    
C48   C54   S    
C37   C38   A    
Cr1   O4    S    
C4    O14   A    
C62   H7    S    
Cr6   O10   S    
C70   H29   S    
C2    O32   S    
C23   C34   A    
C17   C18   D    
C34   C45   A    
Cr3   O15   S    
C35   C44   A    
C50   O6    A    
Cr2   O13   S    
C58   H12   S    
C12   C57   A    
C7    C16   S    
C67   Cl9   S    
Cr5   O11   S    
C4    C55   S    
C37   Cl10  S    
Cr1   O1    S    
C42   C43   A    
Cr4   O6    S    
C23   Cl2   S    
C36   C38   A    
Cr2   O19   S    
C65   H16   S    
Cr6   O11   S    
C35   C43   A    
C71   Cl12  S    
C58   H1    S    
C25   C30   A    
C64   H14   S    
C69   H25   S    
Cr5   O8    S    
C36   C39   A    
C53   O5    A    
C66   H18   S    
C68   O30   S    
C50   O7    A    
C58   O20   S    
C23   C55   A    
C48   O38   A    
C26   Cl7   S    
C32   C33   A    
C60   H36   S    
C2    C3    D    
C25   C26   A    
C39   Cl11  S    
C54   C67   A    
Cr5   O37   S    
Cr6   O9    S    
C66   O29   S    
C21   C40   S    
C48   O2    A    
C52   O33   A    
Cr4   O36   S    
C34   C71   A    
C69   H27   S    
C11   C14   T    
Cr3   O33   S    
C40   O23   A    
C9    C10   D    
C67   C71   A    
Cr3   O16   S    
C56   O20   S    
C16   O1    A    
C63   O26   S    
C12   C55   A    
C10   C11   S    
Cr2   O12   S    
C8    C13   T    
C70   H28   S    
C47   C72   S    
C28   C36   S    
Cr3   O23   S    
Cr6   O2    S    
C1    C14   S    
C60   O22   S    
Cr4   O5    S    
Cr2   O34   S    
C8    C49   S    
C65   H17   S    
C68   H24   S    
C59   O21   S    
