data_mof_unit_22676.cif
_audit_creation_date              2012-12-10T16:56:31-0500
_audit_creation_method            fapswitch 2.2
_symmetry_space_group_name_H-M    P1
_symmetry_Int_Tables_number       1
_space_group_crystal_system       triclinic
_cell_length_a                    7.764083
_cell_length_b                    8.5795
_cell_length_c                    15.662872
_cell_angle_alpha                 90.148976
_cell_angle_beta                  88.569683
_cell_angle_gamma                 93.231163
_cell_volume                      1041.35050533

loop_
_atom_site_label
_atom_site_type_symbol
_atom_type_description
_atom_site_fract_x
_atom_site_fract_y
_atom_site_fract_z
_atom_type_partial_charge
C1    C     C_R   0.545423 0.794525 0.497774 0.960978
C2    C     C_3   0.365533 0.385852 0.022490 -0.225915
C3    C     C_1   0.522236 0.496842 0.750610 -0.194648
C4    C     C_1   0.476292 0.497908 0.249403 -0.187053
C5    C     C_3   0.351671 0.529325 0.964409 0.175679
C6    C     C_3   0.640357 0.450825 0.035637 0.173894
C7    C     C_3   0.518899 0.490345 0.917242 0.173189
C8    C     C_3   0.473587 0.491115 0.082813 0.166565
C9    C     C_1   0.529398 0.493469 0.825995 -0.090886
C10   C     C_1   0.466344 0.495154 0.174102 -0.080561
C11   C     C_3   0.803273 0.407934 0.081484 -0.434686
C12   C     C_R   0.454572 0.205478 0.502179 0.961217
C13   C     C_3   0.780211 0.246081 0.123185 -0.338471
C14   C     C_3   0.926680 0.217726 0.183403 -0.867435
C15   C     C_3   0.189986 0.578974 0.919932 -0.442985
C16   C     C_3   0.106624 0.446474 0.865789 -0.342399
C17   C     C_3   0.982146 0.509331 0.802243 -0.833127
C18   C     C_R   0.506473 0.499947 0.661927 0.906732
C19   C     C_R   0.493469 0.499959 0.338066 0.905365
C20   C     C_2   0.569414 0.957853 0.496465 -0.382262
C21   C     C_2   0.430575 0.042152 0.503394 -0.382617
C22   C     C_3   0.457887 0.634859 0.026049 -0.236930
C23   C     C_3   0.534350 0.345774 0.973667 -0.215756
C24   C     C_3   0.626642 0.594874 0.977893 -0.242073
H1    H     H_    0.734397 0.679277 0.959126 0.133410
H2    H     H_    0.929289 0.305347 0.235793 0.270036
H3    H     H_    0.906727 0.099520 0.211926 0.246439
H4    H     H_    0.656530 0.234469 0.160367 0.231248
H5    H     H_    0.777026 0.154756 0.072693 0.209061
H6    H     H_    0.913084 0.408943 0.035258 0.192986
H7    H     H_    0.833297 0.498567 0.130566 0.213075
H8    H     H_    0.886090 0.579937 0.835671 0.257007
H9    H     H_    0.054098 0.583493 0.753787 0.263070
H10   H     H_    0.913485 0.410641 0.768994 0.255739
H11   H     H_    0.205252 0.383661 0.829264 0.235735
H12   H     H_    0.257720 0.301903 0.041333 0.131237
H13   H     H_    0.036405 0.359193 0.907742 0.206093
H14   H     H_    0.095195 0.617180 0.968812 0.183511
H15   H     H_    0.228304 0.681050 0.878739 0.210111
H16   H     H_    0.423440 0.751953 0.048920 0.136987
H17   H     H_    0.568492 0.228923 0.950322 0.131294
H18   H     H_    0.700802 0.008232 0.489826 0.181386
H19   H     H_    0.299185 0.991774 0.510018 0.181136
H20   H     H_    0.012370 0.383980 0.436536 0.192553
H21   H     H_    0.987614 0.615913 0.563519 0.191469
H22   H     H_    0.052533 0.224944 0.148201 0.252209
N1    N     N_2   0.950320 0.457950 0.477300 -0.174594
N2    N     N_2   0.049680 0.542050 0.522700 -0.175503
O1    O     O_R   0.389250 0.738570 0.505570 -0.612786
O2    O     O_R   0.610750 0.261430 0.494430 -0.612286
O3    O     O_R   0.678390 0.711630 0.491020 -0.631462
O4    O     O_R   0.321610 0.288370 0.508980 -0.631422
O5    O     O_R   0.355460 0.513480 0.630490 -0.613867
O6    O     O_R   0.644540 0.486520 0.369510 -0.612336
O7    O     O_R   0.644600 0.486540 0.615950 -0.623691
O8    O     O_R   0.355400 0.513460 0.384050 -0.621627
Zn1   Zn    Zn3+2 0.306940 0.517990 0.509710 0.938859
Zn2   Zn    Zn3+2 0.693060 0.482010 0.490290 0.939108

loop_
_geom_bond_atom_site_label_1
_geom_bond_atom_site_label_2
_ccdc_geom_bond_type
C19   O8    A    
O4    Zn1   S    
C12   O2    A    
C24   H1    S    
C13   H4    S    
C3    C9    T    
C14   H3    S    
C11   C13   S    
C8    C22   S    
N1    N2    D    
C23   H17   S    
H20   N1    S    
C16   H13   S    
C6    C24   S    
C20   C21   D    
C11   H7    S    
N2    Zn1   S    
C15   H14   S    
O3    Zn2   S    
C13   C14   S    
C14   H2    S    
N1    Zn2   S    
C20   H18   S    
C1    O3    A    
C15   H15   S    
O7    Zn2   S    
C17   H9    S    
C18   O7    A    
C7    C23   S    
C6    C23   S    
C19   O6    A    
C13   H5    S    
C12   O4    A    
C5    C7    S    
C16   H11   S    
C22   C24   S    
C5    C15   S    
C2    C5    S    
C17   H10   S    
C4    C10   T    
C15   C16   S    
O2    Zn2   S    
C6    C11   S    
O1    Zn1   S    
O8    Zn1   S    
C3    C18   S    
C14   H22   S    
O6    Zn2   S    
H21   N2    S    
C2    H12   S    
C2    C23   S    
C7    C9    S    
C17   H8    S    
O5    Zn1   S    
C22   H16   S    
C1    C20   S    
C6    C8    S    
C18   O5    A    
C21   H19   S    
C4    C19   S    
C1    O1    A    
C12   C21   S    
C8    C10   S    
C2    C8    S    
C5    C22   S    
C7    C24   S    
C11   H6    S    
C16   C17   S    
