data_mof_unit_56374.cif
_audit_creation_date              2012-12-10T20:25:46-0500
_audit_creation_method            fapswitch 2.2
_symmetry_space_group_name_H-M    P1
_symmetry_Int_Tables_number       1
_space_group_crystal_system       triclinic
_cell_length_a                    8.578858
_cell_length_b                    10.674587
_cell_length_c                    9.883857
_cell_angle_alpha                 90.050307
_cell_angle_beta                  97.710903
_cell_angle_gamma                 90.087359
_cell_volume                      896.935802681

loop_
_atom_site_label
_atom_site_type_symbol
_atom_type_description
_atom_site_fract_x
_atom_site_fract_y
_atom_site_fract_z
_atom_type_partial_charge
C1    C     C_R   0.509282 0.260015 0.500741 0.879307
C2    C     C_R   0.362606 0.486175 0.913164 0.224299
C3    C     C_3   0.254559 0.375749 0.897222 -0.513228
C4    C     C_R   0.202009 0.508803 0.465127 0.868084
C5    C     C_3   0.255763 0.375995 0.050666 -0.489967
C6    C     C_R   0.505877 0.739883 0.500788 0.905868
C7    C     C_R   0.798095 0.505799 0.534700 1.004248
C8    C     C_2   0.041298 0.542235 0.450206 -0.185772
C9    C     C_2   0.962673 0.504811 0.550886 -0.386673
C10   C     C_R   0.526586 0.063759 0.624738 0.134796
C11   C     C_R   0.540929 0.128449 0.504564 -0.169041
C12   C     C_R   0.584204 0.932502 0.393646 -0.211948
C13   C     C_R   0.588871 0.062555 0.392396 -0.045207
C14   C     C_2   0.981198 0.629462 0.337385 0.390251
C15   C     C_1   0.634277 0.123250 0.272816 0.213316
C16   C     C_R   0.535136 0.870724 0.505572 -0.120225
C17   C     C_R   0.523730 0.936232 0.625135 0.135024
C18   C     C_3   0.401776 0.930274 0.719477 -0.468714
C19   C     C_3   0.405454 0.072207 0.720048 -0.479760
C20   C     C_R   0.362983 0.485903 0.055693 0.204105
C21   C     C_R   0.633805 0.522879 0.087200 -0.099000
C22   C     C_R   0.633840 0.523223 0.943653 -0.138041
H1    H     H_    0.742645 0.540242 0.902774 0.153793
H2    H     H_    0.293543 0.115343 0.672179 0.201691
H3    H     H_    0.455331 0.111551 0.820770 0.211100
H4    H     H_    0.742593 0.538734 0.153091 0.161934
H5    H     H_    0.033765 0.629416 0.243421 0.058661
H6    H     H_    0.137149 0.399167 0.842548 0.196395
H7    H     H_    0.310101 0.291677 0.858641 0.213944
H8    H     H_    0.140081 0.400703 0.082306 0.196169
H9    H     H_    0.313342 0.292113 0.101894 0.224601
H10   H     H_    0.018405 0.454021 0.639068 0.139900
H11   H     H_    0.609611 0.880605 0.304768 0.199205
H12   H     H_    0.288226 0.890567 0.670105 0.206633
H13   H     H_    0.448153 0.888439 0.819784 0.211988
N1    N     N_R   0.498950 0.499140 0.142680 -0.106890
N2    N     N_R   0.498950 0.499180 0.857030 -0.107844
N3    N     N_1   0.670610 0.171644 0.177023 -0.213806
O1    O     O_R   0.500020 0.316790 0.614690 -0.612395
O2    O     O_R   0.500000 0.316760 0.385350 -0.613295
O3    O     O_R   0.271760 0.500010 0.587850 -0.608136
O4    O     O_R   0.271740 0.499970 0.358500 -0.638722
O5    O     O_R   0.500000 0.683240 0.614650 -0.621762
O6    O     O_R   0.499980 0.683210 0.385310 -0.608033
O7    O     O_R   0.728260 0.500030 0.641500 -0.644057
O8    O     O_R   0.728240 0.499990 0.412150 -0.591352
O9    O     O_2   0.879743 0.706796 0.351290 -0.579095
Zn1   Zn    Zn3+2 0.500010 0.500020 0.653130 0.948179
Zn2   Zn    Zn3+2 0.499990 0.499980 0.346870 0.969474

loop_
_geom_bond_atom_site_label_1
_geom_bond_atom_site_label_2
_ccdc_geom_bond_type
O6    Zn2   S    
C21   H4    S    
C15   N3    T    
C14   O9    D    
C14   H5    S    
C11   C13   A    
C18   H13   S    
O1    Zn1   S    
C2    N2    A    
C10   C19   S    
C4    C8    S    
C17   C18   S    
C4    O3    A    
C21   N1    A    
C6    O6    A    
C21   C22   A    
N2    Zn1   S    
C18   H12   S    
O8    Zn2   S    
C3    H7    S    
C4    O4    A    
C7    O7    A    
C3    H6    S    
O3    Zn1   S    
C19   H2    S    
C2    C3    S    
C6    O5    A    
C13   C15   S    
C19   H3    S    
C9    H10   S    
C10   C11   A    
C1    O1    A    
O4    Zn2   S    
C2    C20   A    
O2    Zn2   S    
C20   N1    A    
C7    O8    A    
C12   C13   A    
C7    C9    S    
C18   C19   S    
O5    Zn1   S    
O7    Zn1   S    
C5    C20   S    
C22   H1    S    
C8    C9    D    
C8    C14   S    
C10   C17   A    
C1    O2    A    
C3    C5    S    
C12   H11   S    
C22   N2    A    
C6    C16   S    
N1    Zn2   S    
C12   C16   A    
C5    H8    S    
C16   C17   A    
C5    H9    S    
C1    C11   S    
