data_mof_unit_49568.cif
_audit_creation_date              2013-03-05T16:56:14-0500
_audit_creation_method            fapswitch 2.2
_symmetry_space_group_name_H-M    P1
_symmetry_Int_Tables_number       1
_space_group_crystal_system       triclinic
_cell_length_a                    17.630116
_cell_length_b                    16.740563
_cell_length_c                    10.857833
_cell_angle_alpha                 89.841007
_cell_angle_beta                  91.164422
_cell_angle_gamma                 88.747185
_cell_volume                      3203.11560059

loop_
_atom_site_label
_atom_site_type_symbol
_atom_site_description
_atom_site_fract_x
_atom_site_fract_y
_atom_site_fract_z
_atom_type_partial_charge
O1    O     O_R   0.389130 0.566570 0.500000 -0.533328
O2    O     O_R   0.389130 0.433430 0.500000 -0.530467
C1    C     C_R   0.353758 0.500435 0.514484 0.960360
O3    O     O_R   0.500000 0.566540 0.314800 -0.551636
O4    O     O_R   0.500000 0.433460 0.314800 -0.546998
C2    C     C_R   0.495756 0.500414 0.256638 0.913074
Zn1   Zn    Zn3+2 0.500020 0.588860 0.500010 1.091345
Zn2   Zn    Zn3+2 0.500020 0.411140 0.500010 1.114326
O5    O     O_R   0.610900 0.566520 0.500010 -0.617255
O6    O     O_R   0.610900 0.433480 0.500010 -0.563164
O7    O     O_R   0.500030 0.566540 0.685210 -0.638481
O8    O     O_R   0.500030 0.433460 0.685210 -0.649087
C3    C     C_R   0.645915 0.498851 0.483942 0.976093
C4    C     C_R   0.501105 0.500550 0.742518 0.838956
C5    C     C_3   0.483020 0.589449 0.067024 -0.222509
C6    C     C_3   0.426675 0.450101 0.063681 -0.224704
H1    H     H_    0.521155 0.630048 0.118150 0.236782
H2    H     H_    0.441195 0.386762 0.079208 0.246505
C7    C     C_3   0.507877 0.590413 0.932300 -0.267369
C8    C     C_3   0.423595 0.461584 0.920734 -0.258418
H3    H     H_    0.569755 0.602845 0.933028 0.164514
H4    H     H_    0.422337 0.400666 0.879969 0.190481
H5    H     H_    0.616202 0.505578 0.096983 0.222926
H6    H     H_    0.583725 0.407190 0.118483 0.267296
H7    H     H_    0.620269 0.471470 0.892084 0.184591
H8    H     H_    0.559199 0.388367 0.911191 0.220656
C9    C     C_3   0.569146 0.464933 0.073297 -0.368436
C10   C     C_3   0.492332 0.501594 0.119187 -0.026800
C11   C     C_3   0.497896 0.503027 0.877613 0.048833
C12   C     C_3   0.565770 0.452935 0.932378 -0.458765
C13   C     C_R   0.844717 0.568268 0.442291 0.334684
C14   C     C_R   0.847891 0.423179 0.478807 0.249811
C15   C     C_R   0.765667 0.566202 0.424116 0.195694
C16   C     C_R   0.768964 0.421640 0.458272 0.291513
C17   C     C_R   0.727538 0.495416 0.454075 -0.400182
C18   C     C_R   0.885279 0.496206 0.466198 -0.251443
C19   C     C_1   0.966449 0.496295 0.465798 0.252419
C20   C     C_1   0.034253 0.497073 0.468056 0.085039
C21   C     C_R   0.151310 0.571185 0.496866 -0.138838
C22   C     C_R   0.155559 0.425629 0.499503 -0.139394
C23   C     C_R   0.227740 0.572309 0.534302 0.345356
C24   C     C_R   0.232282 0.426400 0.535911 0.385705
C25   C     C_R   0.270934 0.500067 0.533693 -0.333078
C26   C     C_R   0.115181 0.497971 0.480650 -0.101186
C27   C     C_R   0.449746 0.845766 0.488099 0.258602
C28   C     C_R   0.530359 0.158216 0.422844 0.283741
C29   C     C_R   0.448415 0.763175 0.450240 0.477269
C30   C     C_R   0.506021 0.239663 0.402965 0.482406
N1    N     N_R   0.500030 0.707230 0.500030 -0.130761
N2    N     N_R   0.500030 0.292770 0.500030 -0.129420
C31   C     C_R   0.555205 0.734564 0.578885 -0.051950
C32   C     C_R   0.501459 0.259992 0.616476 -0.012177
H9    H     H_    0.592738 0.691627 0.624989 0.151002
H10   H     H_    0.493602 0.297564 0.695443 0.180919
C33   C     C_R   0.566727 0.817063 0.598925 -0.127936
C34   C     C_R   0.510100 0.176733 0.638615 -0.164335
C35   C     C_R   0.514237 0.874380 0.551550 -0.085274
C36   C     C_R   0.525978 0.124184 0.541165 -0.085943
C37   C     C_1   0.526119 0.962161 0.560486 0.176925
C38   C     C_1   0.529051 0.035661 0.557339 0.184977
S1    S     S_3+6 0.261157 0.661765 0.603340 0.051399
O9    O     O_2   0.335199 0.650493 0.672038 -0.295587
O10   O     O_2   0.269100 0.723233 0.504444 -0.270801
O11   O     O_3   0.195972 0.695062 0.703074 -0.509466
H11   H     H_    0.210800 0.750413 0.722971 0.409025
S2    S     S_3+6 0.274378 0.337341 0.601728 0.042363
O12   O     O_2   0.305457 0.285614 0.500931 -0.283940
O13   O     O_2   0.337008 0.357011 0.691662 -0.336627
O14   O     O_3   0.208840 0.286107 0.677782 -0.515913
H12   H     H_    0.235335 0.236153 0.705082 0.400105
S3    S     S_3+6 0.371617 0.914658 0.461640 0.123006
O15   O     O_2   0.380485 0.954273 0.338536 -0.191524
O16   O     O_2   0.296843 0.873744 0.464043 -0.163970
O17   O     O_3   0.369245 0.985309 0.571573 -0.561722
H13   H     H_    0.336621 0.029039 0.536697 0.397704
S4    S     S_3+6 0.568962 0.099023 0.301964 0.110350
O18   O     O_2   0.508598 0.046320 0.249271 -0.198760
O19   O     O_2   0.599339 0.150563 0.201661 -0.204161
O20   O     O_3   0.640608 0.041110 0.359034 -0.546702
H14   H     H_    0.653468 0.003810 0.291559 0.402131
S5    S     S_3+6 0.402436 0.740717 0.309729 0.111919
O21   O     O_2   0.340694 0.798851 0.269891 -0.187840
O22   O     O_2   0.463103 0.743958 0.215256 -0.309997
O23   O     O_3   0.365657 0.649451 0.314879 -0.559446
H15   H     H_    0.309930 0.657276 0.307166 0.380811
S6    S     S_3+6 0.459365 0.261277 0.262461 0.088096
O24   O     O_2   0.516725 0.288542 0.172516 -0.291983
O25   O     O_2   0.422620 0.187652 0.212094 -0.236350
O26   O     O_3   0.391316 0.331146 0.284788 -0.553923
H16   H     H_    0.343366 0.307162 0.255603 0.386488
C39   C     C_1   0.631486 0.841088 0.672007 0.253501
N3    N     N_1   0.683476 0.860331 0.730605 -0.111830
C40   C     C_1   0.504695 0.147217 0.763096 0.270114
N4    N     N_1   0.500351 0.123623 0.862939 -0.064089
C41   C     C_1   0.403542 0.621029 0.072230 0.390625
N5    N     N_1   0.341658 0.645847 0.069416 -0.102721
C42   C     C_1   0.352698 0.462190 0.124736 0.237605
N6    N     N_1   0.295080 0.471545 0.172515 -0.170836
C43   C     C_1   0.475169 0.661194 0.864827 0.286793
N7    N     N_1   0.450584 0.717391 0.814669 -0.103203
C44   C     C_1   0.353345 0.502097 0.874100 0.269135
N8    N     N_1   0.297298 0.532341 0.839334 -0.078140
S7    S     S_3+6 0.894190 0.660173 0.445650 0.074274
O27   O     O_2   0.946248 0.659352 0.556995 -0.305349
O28   O     O_2   0.940202 0.665416 0.331014 -0.264805
O29   O     O_3   0.837565 0.741805 0.454798 -0.475632
H17   H     H_    0.872229 0.787506 0.451692 0.406700
S8    S     S_3+6 0.899277 0.336138 0.531306 0.111301
O30   O     O_2   0.933897 0.295316 0.422362 -0.192990
O31   O     O_2   0.961557 0.358415 0.620547 -0.300592
O32   O     O_3   0.842673 0.271933 0.602702 -0.415884
H18   H     H_    0.824323 0.301239 0.675827 0.361130
S9    S     S_3+6 0.718483 0.641575 0.332252 0.130683
O33   O     O_2   0.771953 0.673835 0.239209 -0.164621
O34   O     O_2   0.652150 0.607042 0.263844 -0.315530
O35   O     O_3   0.687034 0.717181 0.420220 -0.461879
H19   H     H_    0.703943 0.703151 0.505195 0.346231
S10   S     S_3+6 0.725519 0.330916 0.409029 0.104724
O36   O     O_2   0.690949 0.290432 0.517508 -0.289880
O37   O     O_2   0.664469 0.349561 0.313974 -0.290544
O38   O     O_3   0.788401 0.267764 0.344373 -0.425778
H20   H     H_    0.759672 0.218732 0.326879 0.411035
C45   C     C_1   0.111843 0.646254 0.470096 0.432411
N9    N     N_1   0.082454 0.707265 0.448215 -0.025660
C46   C     C_1   0.119775 0.350043 0.475391 0.417507
N10   N     N_1   0.092576 0.289020 0.455645 -0.031957

loop_
_geom_bond_atom_site_label_1
_geom_bond_atom_site_label_2
_geom_bond_distance
_ccdc_geom_bond_type
C16   S10   1.793854 S    
S2    O13   1.501674 D    
C6    C10   1.569830 S    
C40   N4    1.157334 T    
C27   S3    1.795145 S    
C41   N5    1.158718 T    
H6    C9    1.105698 S    
C23   S1    1.782839 S    
C28   S4    1.783763 S    
S5    O21   1.500429 D    
C45   N9    1.156980 T    
C21   C23   1.400052 A    
O35   H19   0.989882 S    
C5    C7    1.535695 S    
C1    C25   1.479356 S    
C19   C20   1.195500 T    
C14   C18   1.409157 A    
C18   C19   1.431170 S    
C7    H3    1.114932 S    
S4    O19   1.502013 D    
C3    C17   1.481453 S    
C5    C41   1.488983 S    
O4    C2    1.284989 A    
O7    C4    1.265982 A    
S6    O25   1.504033 D    
C6    C42   1.485171 S    
C35   C37   1.492039 S    
S2    O14   1.682486 S    
O29   H17   0.990497 S    
C36   C38   1.491485 S    
C21   C45   1.448934 S    
S8    O30   1.501466 D    
C5    H1    1.108611 S    
C16   C17   1.421183 A    
S1    O10   1.495913 D    
O5    C3    1.292172 A    
S10   O36   1.503637 D    
C33   C39   1.442197 S    
C2    C10   1.492479 S    
O32   H18   0.990668 S    
C34   C36   1.406511 A    
N1    C31   1.369844 A    
N2    C32   1.376433 A    
S4    O20   1.682460 S    
H5    C9    1.111015 S    
C6    C8    1.563125 S    
S9    O35   1.679047 S    
C30   N2    1.384888 A    
S2    O12   1.502243 D    
C37   C38   1.233042 T    
C28   C36   1.408160 A    
C9    C12   1.543864 S    
C23   C25   1.415097 A    
O14   H12   0.990602 S    
O3    Zn1   2.046412 S    
S5    O22   1.498661 D    
C32   H10   1.074223 S    
C42   N6    1.157773 T    
C8    C11   1.574585 S    
C27   C29   1.444082 A    
C34   C40   1.443478 S    
C28   C30   1.434837 A    
O17   H13   0.990623 S    
C44   N8    1.156330 T    
S4    O18   1.502478 D    
Zn1   N1    1.981585 S    
C29   N1    1.391895 A    
C39   N3    1.157184 T    
S3    O16   1.499469 D    
C7    C43   1.490422 S    
S6    O24   1.497538 D    
C8    C44   1.478573 S    
S6    O26   1.678739 S    
O1    C1    1.293282 A    
S10   O38   1.680496 S    
C14   C16   1.405558 A    
S1    O11   1.682265 S    
Zn1   O7    2.044267 S    
C20   C26   1.430948 S    
C11   C12   1.553425 S    
S3    O17   1.683180 S    
C43   N7    1.157255 T    
Zn2   O8    2.046307 S    
C27   C35   1.410892 A    
C13   C15   1.404773 A    
S7    O28   1.502842 D    
O23   H15   0.990156 S    
O38   H20   0.990714 S    
O3    C2    1.278823 A    
C8    H4    1.113332 S    
H8    C12   1.113775 S    
C33   C35   1.407384 A    
C46   N10   1.156702 T    
C30   S6    1.751512 S    
C24   C25   1.422327 A    
C4    C11   1.469738 S    
C7    C11   1.592299 S    
Zn2   N2    1.981576 S    
S7    O27   1.502791 D    
S5    O23   1.673969 S    
S9    O33   1.502954 D    
H7    C12   1.113659 S    
Zn1   O5    1.982231 S    
O1    Zn1   1.998293 S    
Zn2   O6    1.998293 S    
O2    Zn2   1.982265 S    
O8    C4    1.285808 A    
O6    C3    1.281393 A    
O4    Zn2   2.044370 S    
C21   C26   1.403454 A    
C15   S9    1.786735 S    
S8    O32   1.681005 S    
O11   H11   0.991486 S    
O2    C1    1.283048 A    
S3    O15   1.502984 D    
C5    C10   1.578563 S    
C22   C46   1.448341 S    
C22   C24   1.401832 A    
C15   C17   1.415439 A    
S8    O31   1.503412 D    
S7    O29   1.679025 S    
C31   C33   1.417083 A    
C29   S5    1.758487 S    
S1    O9    1.498284 D    
S10   O37   1.503146 D    
O20   H14   0.990529 S    
C22   C26   1.403682 A    
C6    H2    1.097109 S    
C14   S8    1.784804 S    
C9    C10   1.565773 S    
C24   S2    1.791213 S    
C13   C18   1.409623 A    
C31   H9    1.081139 S    
O26   H16   0.990409 S    
C32   C34   1.418112 A    
C13   S7    1.785193 S    
S9    O34   1.500054 D    
