data_mof_unit_40227.cif
_audit_creation_date              2013-03-05T15:49:29-0500
_audit_creation_method            fapswitch 2.2
_symmetry_space_group_name_H-M    P1
_symmetry_Int_Tables_number       1
_space_group_crystal_system       triclinic
_cell_length_a                    18.724984
_cell_length_b                    18.02251
_cell_length_c                    34.236286
_cell_angle_alpha                 90.000164
_cell_angle_beta                  90.000672
_cell_angle_gamma                 89.994062
_cell_volume                      11553.760847

loop_
_atom_site_label
_atom_site_type_symbol
_atom_site_description
_atom_site_fract_x
_atom_site_fract_y
_atom_site_fract_z
_atom_type_partial_charge
Zn1   Zn    Zn3+2 0.000000 0.586740 0.782740 1.168017
Zn2   Zn    Zn3+2 1.000000 0.413260 0.217260 1.167170
Zn3   Zn    Zn3+2 0.413260 0.000000 0.782740 1.116826
Zn4   Zn    Zn3+2 0.586740 0.000000 0.217260 1.117047
Zn5   Zn    Zn3+2 0.000000 0.413260 0.782740 1.168018
Zn6   Zn    Zn3+2 1.000000 0.586740 0.217260 1.167369
Zn7   Zn    Zn3+2 0.586740 0.000000 0.782740 1.116834
Zn8   Zn    Zn3+2 0.413260 0.000000 0.217260 1.116923
Zn9   Zn    Zn3+2 0.500000 0.086740 0.282740 1.164799
Zn10  Zn    Zn3+2 0.500000 0.913260 0.717260 1.165407
Zn11  Zn    Zn3+2 0.913260 0.500000 0.282740 1.124708
Zn12  Zn    Zn3+2 0.086740 0.500000 0.717260 1.125169
Zn13  Zn    Zn3+2 0.500000 0.913260 0.282740 1.164943
Zn14  Zn    Zn3+2 0.500000 0.086740 0.717260 1.165386
Zn15  Zn    Zn3+2 0.086740 0.500000 0.282740 1.124647
Zn16  Zn    Zn3+2 0.913260 0.500000 0.717260 1.125190
C1    C     C_R   0.630909 0.999724 0.520535 0.343342
C2    C     C_R   0.369080 0.999823 0.479467 0.343307
C3    C     C_R   0.997601 0.636065 0.520558 0.339890
C4    C     C_R   0.996739 0.363968 0.479451 0.339978
C5    C     C_R   0.369082 0.000247 0.520533 0.343340
C6    C     C_R   0.630912 0.000152 0.479469 0.343404
C7    C     C_R   0.002364 0.363947 0.520555 0.339889
C8    C     C_R   0.003210 0.636047 0.479453 0.340006
C9    C     C_R   0.131110 0.502267 0.020596 0.333022
C10   C     C_R   0.868906 0.502430 0.979395 0.333006
C11   C     C_R   0.497902 0.135959 0.020484 0.345045
C12   C     C_R   0.498795 0.864004 0.979491 0.344810
C13   C     C_R   0.868911 0.497764 0.020597 0.333007
C14   C     C_R   0.131110 0.497592 0.979394 0.333004
C15   C     C_R   0.502056 0.864014 0.020483 0.345055
C16   C     C_R   0.501179 0.135970 0.979493 0.344810
O1    O     O_3   0.000000 0.500000 0.750000 -0.549269
O2    O     O_3   0.000000 0.500000 0.250000 -0.549274
O3    O     O_3   0.500000 0.000000 0.750000 -0.553258
O4    O     O_3   0.500000 0.000000 0.250000 -0.553160
O5    O     O_R   0.060740 0.500000 0.662560 -0.585981
O6    O     O_R   0.939260 0.500000 0.337440 -0.586667
O7    O     O_R   0.500000 0.060740 0.662560 -0.579868
O8    O     O_R   0.500000 0.939260 0.337440 -0.580292
O9    O     O_R   0.939260 0.500000 0.662560 -0.585975
O10   O     O_R   0.060740 0.500000 0.337440 -0.586583
O11   O     O_R   0.500000 0.939260 0.662560 -0.579829
O12   O     O_R   0.500000 0.060740 0.337440 -0.580595
O13   O     O_R   0.560740 0.000000 0.162560 -0.594952
O14   O     O_R   0.439260 0.000000 0.837440 -0.595435
O15   O     O_R   0.000000 0.560740 0.162560 -0.590415
O16   O     O_R   0.000000 0.439260 0.837440 -0.590096
O17   O     O_R   0.439260 0.000000 0.162560 -0.595260
O18   O     O_R   0.560740 0.000000 0.837440 -0.595480
O19   O     O_R   0.000000 0.439260 0.162560 -0.590464
O20   O     O_R   1.000000 0.560740 0.837440 -0.590109
O21   O     O_R   0.853850 0.585450 0.727070 -0.632817
O22   O     O_R   0.146150 0.414550 0.272930 -0.625843
O23   O     O_R   0.414550 0.853850 0.727070 -0.595322
O24   O     O_R   0.585450 0.146150 0.272930 -0.578857
O25   O     O_R   0.146150 0.414550 0.727070 -0.632837
O26   O     O_R   0.853850 0.585450 0.272930 -0.625775
O27   O     O_R   0.585450 0.146150 0.727070 -0.595278
O28   O     O_R   0.414550 0.853850 0.272930 -0.578597
O29   O     O_R   0.853850 0.414550 0.272930 -0.632908
O30   O     O_R   0.146150 0.585450 0.727070 -0.625932
O31   O     O_R   0.414550 0.146150 0.272930 -0.594833
O32   O     O_R   0.585450 0.853850 0.727070 -0.577551
O33   O     O_R   0.146150 0.585450 0.272930 -0.632911
O34   O     O_R   0.853850 0.414550 0.727070 -0.625914
O35   O     O_R   0.585450 0.853850 0.272930 -0.594905
O36   O     O_R   0.414550 0.146150 0.727070 -0.577597
O37   O     O_R   0.353850 0.085450 0.227070 -0.626753
O38   O     O_R   0.646150 0.914550 0.772930 -0.627516
O39   O     O_R   0.914550 0.353850 0.227070 -0.557352
O40   O     O_R   0.085450 0.646150 0.772930 -0.615219
O41   O     O_R   0.646150 0.914550 0.227070 -0.626752
O42   O     O_R   0.353850 0.085450 0.772930 -0.627521
O43   O     O_R   0.085450 0.646150 0.227070 -0.557061
O44   O     O_R   0.914550 0.353850 0.772930 -0.615216
O45   O     O_R   0.353850 0.914550 0.772930 -0.626590
O46   O     O_R   0.646150 0.085450 0.227070 -0.627393
O47   O     O_R   0.914550 0.646150 0.772930 -0.556274
O48   O     O_R   0.085450 0.353850 0.227070 -0.615401
O49   O     O_R   0.646150 0.085450 0.772930 -0.626590
O50   O     O_R   0.353850 0.914550 0.227070 -0.627444
O51   O     O_R   0.085450 0.353850 0.772930 -0.556288
O52   O     O_R   0.914550 0.646150 0.227070 -0.615393
C17   C     C_R   0.435446 0.005481 0.581760 -0.114723
C18   C     C_R   0.564553 0.005413 0.418241 -0.116253
C19   C     C_R   0.002728 0.432840 0.581887 -0.108516
C20   C     C_R   0.003130 0.567147 0.418121 -0.108560
C21   C     C_R   0.564546 0.994503 0.581761 -0.114714
C22   C     C_R   0.435442 0.994577 0.418239 -0.115728
C23   C     C_R   0.997263 0.567167 0.581889 -0.108491
C24   C     C_R   0.996850 0.432867 0.418121 -0.108649
C25   C     C_R   0.935247 0.499927 0.081856 -0.128371
C26   C     C_R   0.064772 0.499676 0.918133 -0.128667
C27   C     C_R   0.501056 0.932807 0.081870 -0.141962
C28   C     C_R   0.500495 0.067181 0.918106 -0.142726
C29   C     C_R   0.064777 0.500118 0.081857 -0.128542
C30   C     C_R   0.935238 0.500332 0.918134 -0.128673
C31   C     C_R   0.498896 0.067165 0.081867 -0.141636
C32   C     C_R   0.499505 0.932798 0.918104 -0.142729
C33   C     C_R   0.499996 0.999997 0.601840 -0.025173
C34   C     C_R   0.499998 0.999999 0.398160 -0.025280
C35   C     C_R   0.999998 0.500003 0.602062 -0.070324
C36   C     C_R   0.999997 0.500006 0.397944 -0.069933
C37   C     C_R   0.000011 0.500010 0.101886 -0.061679
C38   C     C_R   0.000004 0.500001 0.898107 -0.061981
C39   C     C_R   0.499990 0.999988 0.102058 -0.074205
C40   C     C_R   0.500001 0.999991 0.897924 -0.073779
C41   C     C_R   0.565622 0.997953 0.541003 -0.027519
C42   C     C_R   0.434368 0.998011 0.458998 -0.027094
C43   C     C_R   0.998357 0.568190 0.541036 -0.021772
C44   C     C_R   0.997927 0.431837 0.458973 -0.021919
C45   C     C_R   0.434370 0.002025 0.541002 -0.027400
C46   C     C_R   0.565625 0.001971 0.458999 -0.027063
C47   C     C_R   0.001622 0.431820 0.541035 -0.021823
C48   C     C_R   0.002039 0.568178 0.458974 -0.021859
C49   C     C_R   0.065729 0.500722 0.041012 -0.006360
C50   C     C_R   0.934287 0.500856 0.958979 -0.006104
C51   C     C_R   0.499007 0.068146 0.041029 -0.036263
C52   C     C_R   0.499524 0.931819 0.958943 -0.035931
C53   C     C_R   0.934293 0.499317 0.041012 -0.006452
C54   C     C_R   0.065727 0.499163 0.958978 -0.006114
C55   C     C_R   0.500950 0.931825 0.041030 -0.036140
C56   C     C_R   0.500461 0.068156 0.958945 -0.035920
C57   C     C_R   1.000000 0.500001 0.644471 0.951164
C58   C     C_R   1.000000 0.500003 0.355531 0.950381
C59   C     C_R   0.499997 0.999999 0.644082 0.904075
C60   C     C_R   0.499999 1.000000 0.355918 0.902841
C61   C     C_R   0.499998 0.999994 0.144465 0.950450
C62   C     C_R   0.500000 0.999996 0.855529 0.949211
C63   C     C_R   0.000008 0.500002 0.144098 0.893826
C64   C     C_R   0.000001 0.500000 0.855899 0.893319
C65   C     C_R   0.859257 0.639267 0.751587 0.924596
C66   C     C_R   0.136725 0.356133 0.251528 0.872702
C67   C     C_R   0.360289 0.859216 0.749697 0.942716
C68   C     C_R   0.639752 0.140906 0.251306 0.839663
C69   C     C_R   0.140743 0.360733 0.751588 0.924605
C70   C     C_R   0.863275 0.643867 0.251528 0.872811
C71   C     C_R   0.639711 0.140784 0.749698 0.942719
C72   C     C_R   0.360235 0.859110 0.251317 0.839544
C73   C     C_R   0.859284 0.360693 0.248441 0.925907
C74   C     C_R   0.136732 0.643866 0.748469 0.872644
C75   C     C_R   0.360257 0.140764 0.250326 0.942644
C76   C     C_R   0.639830 0.859196 0.748626 0.839074
C77   C     C_R   0.140727 0.639294 0.248431 0.925640
C78   C     C_R   0.863268 0.356134 0.748470 0.872668
C79   C     C_R   0.639738 0.859233 0.250323 0.942625
C80   C     C_R   0.360173 0.140808 0.748629 0.839048
H1    H     H_    0.128857 0.804624 0.867144 0.203905
H2    H     H_    0.757918 0.317820 0.112696 0.182873
H3    H     H_    0.350760 0.244545 0.880973 0.200483
H4    H     H_    0.743807 0.818301 0.119880 0.185941
H5    H     H_    0.871138 0.195390 0.867150 0.203904
H6    H     H_    0.242438 0.681907 0.112737 0.182773
H7    H     H_    0.649181 0.755386 0.880955 0.200475
H8    H     H_    0.256188 0.181694 0.119886 0.185937
H9    H     H_    0.128629 0.194965 0.132975 0.203931
H10   H     H_    0.756214 0.680751 0.887047 0.182504
H11   H     H_    0.349152 0.757009 0.118614 0.200496
H12   H     H_    0.743568 0.182078 0.880193 0.185960
H13   H     H_    0.871364 0.805011 0.132972 0.203928
H14   H     H_    0.243730 0.319184 0.887060 0.182513
H15   H     H_    0.651322 0.242536 0.118506 0.200492
H16   H     H_    0.256427 0.817942 0.880191 0.185967
H17   H     H_    0.706989 0.225238 0.385488 0.196172
H18   H     H_    0.325673 0.772435 0.613715 0.196148
H19   H     H_    0.763364 0.676565 0.387575 0.206247
H20   H     H_    0.164289 0.251857 0.621295 0.184421
H21   H     H_    0.292525 0.775369 0.385517 0.196154
H22   H     H_    0.674401 0.227461 0.613702 0.196149
H23   H     H_    0.236524 0.323343 0.387593 0.206243
H24   H     H_    0.835799 0.748243 0.621308 0.184392
H25   H     H_    0.709731 0.778214 0.614352 0.196133
H26   H     H_    0.325322 0.227584 0.386378 0.196104
H27   H     H_    0.762890 0.323515 0.612463 0.206321
H28   H     H_    0.166149 0.746419 0.378946 0.184375
H29   H     H_    0.290368 0.221925 0.614357 0.196140
H30   H     H_    0.674590 0.772349 0.386360 0.196132
H31   H     H_    0.237174 0.676391 0.612479 0.206296
H32   H     H_    0.833443 0.253939 0.379003 0.184301
C81   C     C_R   0.201659 0.694685 0.671829 0.344969
C82   C     C_R   0.829003 0.270405 0.316790 0.326472
C83   C     C_R   0.312077 0.224319 0.676341 0.310182
C84   C     C_R   0.694146 0.803545 0.326347 0.377058
C85   C     C_R   0.798367 0.305278 0.671825 0.344915
C86   C     C_R   0.170800 0.729725 0.316757 0.326520
C87   C     C_R   0.687980 0.775759 0.676330 0.310169
C88   C     C_R   0.305818 0.196424 0.326355 0.377101
C89   C     C_R   0.201253 0.305089 0.328198 0.344966
C90   C     C_R   0.830146 0.730380 0.683373 0.326870
C91   C     C_R   0.313340 0.774090 0.323428 0.310886
C92   C     C_R   0.694124 0.196339 0.673708 0.376684
C93   C     C_R   0.798683 0.694859 0.328192 0.344938
C94   C     C_R   0.169895 0.269655 0.683366 0.326857
C95   C     C_R   0.686375 0.226274 0.323375 0.311063
C96   C     C_R   0.305908 0.803615 0.673708 0.376772
C97   C     C_R   0.659658 0.230119 0.180862 0.328040
C98   C     C_R   0.287927 0.801579 0.820025 0.341617
C99   C     C_R   0.857073 0.772236 0.193269 0.335890
C100  C     C_R   0.220735 0.321238 0.825504 0.368276
C101  C     C_R   0.340565 0.769662 0.180946 0.327800
C102  C     C_R   0.712070 0.198432 0.820025 0.341621
C103  C     C_R   0.142913 0.227748 0.193272 0.335925
C104  C     C_R   0.779239 0.678733 0.825496 0.368257
C105  C     C_R   0.658663 0.768895 0.818712 0.327013
C106  C     C_R   0.287779 0.198304 0.180020 0.342072
C107  C     C_R   0.856914 0.227958 0.806817 0.335734
C108  C     C_R   0.220262 0.679098 0.174389 0.368912
C109  C     C_R   0.341310 0.231073 0.818726 0.327035
C110  C     C_R   0.712215 0.801700 0.180015 0.342042
C111  C     C_R   0.143085 0.772048 0.806813 0.335731
C112  C     C_R   0.779852 0.320840 0.174376 0.369108
C113  C     C_R   0.248016 0.703293 0.640131 -0.261173
C114  C     C_R   0.800616 0.251274 0.353082 -0.242801
C115  C     C_R   0.268459 0.229601 0.643353 -0.252272
C116  C     C_R   0.701052 0.758306 0.359222 -0.255317
C117  C     C_R   0.752033 0.296634 0.640119 -0.261090
C118  C     C_R   0.199046 0.749045 0.353052 -0.242800
C119  C     C_R   0.731619 0.770503 0.643350 -0.252231
C120  C     C_R   0.298874 0.241637 0.359237 -0.255262
C121  C     C_R   0.247518 0.296520 0.359936 -0.261391
C122  C     C_R   0.802544 0.750613 0.647074 -0.242396
C123  C     C_R   0.270167 0.768370 0.356577 -0.252980
C124  C     C_R   0.700855 0.241586 0.640831 -0.255848
C125  C     C_R   0.752393 0.703409 0.359921 -0.261379
C126  C     C_R   0.197526 0.249469 0.647067 -0.242420
C127  C     C_R   0.729449 0.232084 0.356561 -0.253236
C128  C     C_R   0.299199 0.758336 0.640841 -0.255746
C129  C     C_R   0.683294 0.252834 0.144306 -0.248501
C130  C     C_R   0.238865 0.805195 0.850817 -0.267174
C131  C     C_R   0.833591 0.794789 0.156299 -0.254460
C132  C     C_R   0.258084 0.297876 0.858611 -0.244123
C133  C     C_R   0.317064 0.746834 0.144383 -0.248414
C134  C     C_R   0.761131 0.194820 0.850819 -0.267137
C135  C     C_R   0.166400 0.205192 0.156304 -0.254486
C136  C     C_R   0.741871 0.702072 0.858600 -0.244112
C137  C     C_R   0.681669 0.745623 0.855291 -0.248290
C138  C     C_R   0.238664 0.194523 0.149256 -0.267332
C139  C     C_R   0.833392 0.205528 0.843797 -0.254348
C140  C     C_R   0.257006 0.703044 0.141190 -0.244312
C141  C     C_R   0.318285 0.254323 0.855305 -0.248300
C142  C     C_R   0.761329 0.805470 0.149251 -0.267334
C143  C     C_R   0.166605 0.794484 0.843793 -0.254331
C144  C     C_R   0.743296 0.296718 0.141148 -0.244342
C145  C     C_R   0.499996 0.999989 0.520472 -0.061284
C146  C     C_R   0.499996 0.999990 0.479529 -0.061133
C147  C     C_R   0.999988 0.500006 0.520490 -0.068887
C148  C     C_R   0.999985 0.500007 0.479519 -0.068886
C149  C     C_R   0.000011 0.500017 0.020467 -0.072724
C150  C     C_R   0.000008 0.500012 0.979522 -0.072621
C151  C     C_R   0.499983 0.999986 0.020482 -0.058009
C152  C     C_R   0.499989 0.999987 0.979491 -0.057811
C153  C     C_R   0.276608 0.779254 0.709974 -0.057199
C154  C     C_R   0.717861 0.233770 0.285488 -0.060937
C155  C     C_R   0.214528 0.268206 0.717218 -0.063965
C156  C     C_R   0.779874 0.726253 0.291202 -0.052370
C157  C     C_R   0.723407 0.220725 0.709974 -0.057171
C158  C     C_R   0.281993 0.766394 0.285515 -0.060929
C159  C     C_R   0.785495 0.731816 0.717218 -0.063965
C160  C     C_R   0.220093 0.273720 0.291207 -0.052400
C161  C     C_R   0.276507 0.220713 0.290074 -0.057290
C162  C     C_R   0.718700 0.767162 0.714352 -0.060851
C163  C     C_R   0.215063 0.731351 0.282774 -0.064167
C164  C     C_R   0.779731 0.273809 0.708826 -0.052340
C165  C     C_R   0.723468 0.779266 0.290068 -0.057259
C166  C     C_R   0.281330 0.232874 0.714358 -0.060872
C167  C     C_R   0.784822 0.268744 0.282777 -0.064271
C168  C     C_R   0.220282 0.726173 0.708828 -0.052333
C169  C     C_R   0.763598 0.289499 0.211978 -0.073509
C170  C     C_R   0.194417 0.756946 0.777096 -0.068823
C171  C     C_R   0.737165 0.787196 0.218618 -0.069277
C172  C     C_R   0.296473 0.240930 0.785444 -0.048252
C173  C     C_R   0.236461 0.710459 0.211997 -0.073676
C174  C     C_R   0.805583 0.243058 0.777098 -0.068824
C175  C     C_R   0.262825 0.212800 0.218623 -0.069307
C176  C     C_R   0.703516 0.759057 0.785436 -0.048249
C177  C     C_R   0.763309 0.710271 0.787887 -0.074250
C178  C     C_R   0.194289 0.242939 0.222953 -0.068961
C179  C     C_R   0.737061 0.212890 0.781424 -0.069192
C180  C     C_R   0.296187 0.759347 0.214365 -0.048523
C181  C     C_R   0.236680 0.289716 0.787894 -0.074242
C182  C     C_R   0.805698 0.757050 0.222950 -0.068926
C183  C     C_R   0.262939 0.787115 0.781423 -0.069183
C184  C     C_R   0.703901 0.240569 0.214322 -0.048602
H33   H     H_    0.386191 0.011164 0.598086 0.208454
H34   H     H_    0.613814 0.011030 0.401915 0.208019
H35   H     H_    0.004904 0.381491 0.598195 0.239860
H36   H     H_    0.005585 0.618479 0.401816 0.240100
H37   H     H_    0.613801 0.988816 0.598087 0.208455
H38   H     H_    0.386182 0.988960 0.401911 0.208085
H39   H     H_    0.995090 0.618515 0.598198 0.239854
H40   H     H_    0.994397 0.381535 0.401817 0.240189
H41   H     H_    0.885847 0.500292 0.098364 0.208867
H42   H     H_    0.114169 0.499797 0.901617 0.208562
H43   H     H_    0.502166 0.881422 0.098075 0.240249
H44   H     H_    0.501134 0.118572 0.901891 0.239410
H45   H     H_    0.114177 0.499781 0.098367 0.208752
H46   H     H_    0.885840 0.500208 0.901619 0.208564
H47   H     H_    0.497752 0.118552 0.098068 0.240420
H48   H     H_    0.498873 0.881408 0.901887 0.239388
C185  C     C_R   0.301380 0.805366 0.747013 -0.093387
C186  C     C_R   0.686603 0.206909 0.250425 -0.064668
C187  C     C_R   0.195913 0.303154 0.753024 -0.097560
C188  C     C_R   0.818214 0.711344 0.256080 -0.067174
C189  C     C_R   0.698624 0.194631 0.747013 -0.093385
C190  C     C_R   0.313365 0.793126 0.250455 -0.064707
C191  C     C_R   0.804090 0.696847 0.753022 -0.097583
C192  C     C_R   0.181773 0.288647 0.256082 -0.067134
C193  C     C_R   0.301312 0.194602 0.253030 -0.093331
C194  C     C_R   0.686812 0.793312 0.749401 -0.064837
C195  C     C_R   0.196001 0.696773 0.246948 -0.097184
C196  C     C_R   0.818130 0.288707 0.743942 -0.067372
C197  C     C_R   0.698677 0.805391 0.253024 -0.093332
C198  C     C_R   0.313197 0.206697 0.749407 -0.064813
C199  C     C_R   0.803984 0.303241 0.246949 -0.097064
C200  C     C_R   0.181872 0.711290 0.743942 -0.067366
N1    N     N_R   0.131302 0.667554 0.663493 0.205352
O53   O     O_R   0.121357 0.624208 0.633628 -0.415611
O54   O     O_R   0.076416 0.701432 0.678377 -0.327036
N2    N     N_R   0.904103 0.284314 0.314658 0.186618
O55   O     O_R   0.942934 0.247421 0.289889 -0.301212
O56   O     O_R   0.935178 0.323066 0.341797 -0.416785
N3    N     N_R   0.387703 0.229365 0.670013 0.230726
O57   O     O_R   0.425226 0.276863 0.690014 -0.312046
O58   O     O_R   0.416837 0.196902 0.640017 -0.381403
N4    N     N_R   0.670802 0.878543 0.332479 0.190274
O59   O     O_R   0.703644 0.932924 0.315055 -0.444486
O60   O     O_R   0.630039 0.893654 0.362111 -0.450824
N5    N     N_R   0.868719 0.332431 0.663498 0.205338
O61   O     O_R   0.878661 0.375780 0.633634 -0.415623
O62   O     O_R   0.923609 0.298570 0.678388 -0.327031
N6    N     N_R   0.095737 0.715644 0.314589 0.186562
O63   O     O_R   0.056860 0.752494 0.289825 -0.301086
O64   O     O_R   0.064718 0.676767 0.341697 -0.416843
N7    N     N_R   0.612359 0.770729 0.669983 0.230706
O65   O     O_R   0.574820 0.723201 0.689956 -0.312072
O66   O     O_R   0.583251 0.803230 0.639992 -0.381436
N8    N     N_R   0.329196 0.121436 0.332478 0.190279
O67   O     O_R   0.296372 0.067046 0.315051 -0.444512
O68   O     O_R   0.369968 0.106334 0.362108 -0.450800
N9    N     N_R   0.130812 0.332132 0.336453 0.205258
O69   O     O_R   0.120663 0.375310 0.366365 -0.415818
O70   O     O_R   0.076016 0.298359 0.321404 -0.326734
N10   N     N_R   0.905032 0.715482 0.685692 0.186299
O71   O     O_R   0.944130 0.752093 0.710443 -0.300741
O72   O     O_R   0.935790 0.676117 0.658688 -0.416988
N11   N     N_R   0.389056 0.768647 0.329370 0.231077
O73   O     O_R   0.426218 0.721808 0.308739 -0.311699
O74   O     O_R   0.418764 0.800228 0.359456 -0.380139
N12   N     N_R   0.671002 0.121261 0.667604 0.190201
O75   O     O_R   0.703958 0.067003 0.685076 -0.443972
O76   O     O_R   0.630286 0.105976 0.637978 -0.451505
N13   N     N_R   0.869122 0.667832 0.336462 0.205272
O77   O     O_R   0.879260 0.624644 0.366371 -0.415762
O78   O     O_R   0.923918 0.701638 0.321435 -0.326746
N14   N     N_R   0.095001 0.284517 0.685679 0.186312
O79   O     O_R   0.055913 0.247894 0.710430 -0.300767
O80   O     O_R   0.064230 0.323861 0.658670 -0.416992
N15   N     N_R   0.610640 0.231820 0.329225 0.231164
O81   O     O_R   0.573570 0.278493 0.308440 -0.311657
O82   O     O_R   0.580794 0.200473 0.359338 -0.379894
N16   N     N_R   0.329019 0.878693 0.667589 0.190235
O83   O     O_R   0.296065 0.932957 0.685058 -0.444064
O84   O     O_R   0.369716 0.893967 0.637954 -0.451410
N17   N     N_R   0.586247 0.208548 0.184480 0.192369
O85   O     O_R   0.556546 0.167764 0.157752 -0.423378
O86   O     O_R   0.545931 0.241755 0.210018 -0.317006
N18   N     N_R   0.362711 0.803806 0.828998 0.196209
O87   O     O_R   0.405578 0.756416 0.812575 -0.339094
O88   O     O_R   0.385754 0.843047 0.858282 -0.427916
N19   N     N_R   0.931841 0.778745 0.202228 0.236259
O89   O     O_R   0.951871 0.799591 0.236913 -0.290194
O90   O     O_R   0.979697 0.771832 0.174891 -0.352626
N20   N     N_R   0.169869 0.379113 0.831662 0.181455
O91   O     O_R   0.183736 0.445430 0.818670 -0.471191
O92   O     O_R   0.123116 0.371415 0.859460 -0.402066
N21   N     N_R   0.413969 0.791221 0.184627 0.192341
O93   O     O_R   0.443770 0.831963 0.157912 -0.423110
O94   O     O_R   0.454190 0.758042 0.210221 -0.316946
N22   N     N_R   0.637285 0.196206 0.828996 0.196215
O95   O     O_R   0.594420 0.243591 0.812568 -0.339087
O96   O     O_R   0.614241 0.156975 0.858283 -0.427898
N23   N     N_R   0.068140 0.221257 0.202227 0.236252
O97   O     O_R   0.048091 0.200496 0.236924 -0.290193
O98   O     O_R   0.020293 0.228132 0.174882 -0.352873
N24   N     N_R   0.830118 0.620871 0.831655 0.181443
O99   O     O_R   0.816264 0.554550 0.818664 -0.471178
O100  O     O_R   0.876870 0.628581 0.859452 -0.402053
N25   N     N_R   0.585300 0.790468 0.814812 0.192238
O101  O     O_R   0.555199 0.831157 0.841453 -0.422297
O102  O     O_R   0.545386 0.757383 0.789043 -0.316914
N26   N     N_R   0.362558 0.196163 0.171018 0.196193
O103  O     O_R   0.405434 0.243483 0.187486 -0.339414
O104  O     O_R   0.385604 0.156992 0.141710 -0.428645
N27   N     N_R   0.931676 0.221322 0.797884 0.236342
O105  O     O_R   0.951688 0.200086 0.763262 -0.290293
O106  O     O_R   0.979525 0.228413 0.825212 -0.351908
N28   N     N_R   0.170033 0.620581 0.168352 0.181576
O107  O     O_R   0.184455 0.554612 0.181653 -0.470253
O108  O     O_R   0.123423 0.627350 0.140418 -0.404197
N29   N     N_R   0.414676 0.209509 0.814832 0.192243
O109  O     O_R   0.444773 0.168819 0.841476 -0.422309
O110  O     O_R   0.454596 0.242599 0.789069 -0.316900
N30   N     N_R   0.637437 0.803858 0.171010 0.196210
O111  O     O_R   0.594558 0.756525 0.187464 -0.339305
O112  O     O_R   0.614401 0.843051 0.141707 -0.428587
N31   N     N_R   0.068325 0.778685 0.797877 0.236346
O113  O     O_R   0.048319 0.799937 0.763257 -0.290287
O114  O     O_R   0.020473 0.771587 0.825203 -0.351897
N32   N     N_R   0.829851 0.379588 0.168383 0.181559
O115  O     O_R   0.815233 0.445430 0.181796 -0.469902
O116  O     O_R   0.876409 0.373152 0.140402 -0.405006
O117  O     O_3   0.695200 0.996331 0.540442 -0.640435
C201  C     C_3   0.722911 0.068822 0.544560 0.113477
H49   H     H_    0.689002 0.101438 0.565016 0.173342
H50   H     H_    0.725577 0.098310 0.515960 0.163846
C202  C     C_3   0.798613 0.063657 0.561043 -0.339946
H51   H     H_    0.797639 0.032106 0.588944 0.258916
H52   H     H_    0.833044 0.033336 0.539939 0.219353
C203  C     C_3   0.830570 0.140257 0.568529 -0.892422
H53   H     H_    0.829982 0.174200 0.541476 0.250572
H54   H     H_    0.886675 0.134303 0.578552 0.279344
H55   H     H_    0.799835 0.169340 0.591567 0.281424
O118  O     O_3   0.304791 0.996459 0.459555 -0.640573
C204  C     C_3   0.277012 0.068946 0.455518 0.113562
H56   H     H_    0.310935 0.101703 0.435132 0.173037
H57   H     H_    0.274240 0.098280 0.484158 0.164476
C205  C     C_3   0.201358 0.063799 0.438970 -0.339919
H58   H     H_    0.202474 0.032604 0.410960 0.258738
H59   H     H_    0.166953 0.033129 0.459943 0.219534
C206  C     C_3   0.169231 0.140417 0.431736 -0.892525
H60   H     H_    0.169615 0.173980 0.458921 0.250503
H61   H     H_    0.113182 0.134461 0.421620 0.279828
H62   H     H_    0.199995 0.169908 0.408855 0.281086
O119  O     O_3   0.998940 0.702428 0.540990 -0.636587
C207  C     C_3   0.931035 0.736388 0.539216 0.098334
H63   H     H_    0.890691 0.701439 0.554504 0.133248
H64   H     H_    0.913580 0.745357 0.508498 0.183657
C208  C     C_3   0.935323 0.811865 0.559482 -0.318556
H65   H     H_    0.946131 0.803422 0.591098 0.257886
H66   H     H_    0.980268 0.844363 0.546907 0.231781
C209  C     C_3   0.866421 0.856260 0.554579 -0.954530
H67   H     H_    0.859779 0.873400 0.523664 0.265969
H68   H     H_    0.868945 0.906914 0.572962 0.277984
H69   H     H_    0.819333 0.823010 0.563587 0.266583
O120  O     O_3   0.997619 0.297594 0.459019 -0.636296
C210  C     C_3   0.929482 0.264152 0.460804 0.098420
H70   H     H_    0.889323 0.299499 0.445617 0.133026
H71   H     H_    0.912085 0.255143 0.491527 0.183578
C211  C     C_3   0.933161 0.188761 0.440410 -0.318592
H72   H     H_    0.943866 0.197305 0.408792 0.258674
H73   H     H_    0.977948 0.155852 0.452866 0.231808
C212  C     C_3   0.863983 0.144855 0.445343 -0.953141
H74   H     H_    0.857317 0.127685 0.476250 0.265755
H75   H     H_    0.866112 0.094231 0.426921 0.278378
H76   H     H_    0.817088 0.178473 0.436401 0.266439
O121  O     O_3   0.304794 0.003638 0.540444 -0.640470
C213  C     C_3   0.277053 0.931153 0.544528 0.113302
H77   H     H_    0.311068 0.898403 0.564875 0.173087
H78   H     H_    0.274171 0.901814 0.515893 0.164232
C214  C     C_3   0.201469 0.936311 0.561171 -0.339834
H79   H     H_    0.202685 0.967614 0.589147 0.259080
H80   H     H_    0.166947 0.966877 0.540210 0.219407
C215  C     C_3   0.169431 0.859703 0.568530 -0.892387
H81   H     H_    0.169590 0.826089 0.541363 0.250570
H82   H     H_    0.113470 0.865677 0.578786 0.279513
H83   H     H_    0.200395 0.830261 0.591349 0.281198
O122  O     O_3   0.695204 0.003512 0.459561 -0.640489
C216  C     C_3   0.722966 0.931020 0.455516 0.113623
H84   H     H_    0.689021 0.898269 0.435138 0.173052
H85   H     H_    0.725755 0.901687 0.484156 0.164478
C217  C     C_3   0.798608 0.936153 0.438950 -0.340002
H86   H     H_    0.797476 0.967354 0.410942 0.258770
H87   H     H_    0.833037 0.966809 0.459918 0.219455
C218  C     C_3   0.830710 0.859527 0.431704 -0.892416
H88   H     H_    0.830350 0.825962 0.458888 0.250508
H89   H     H_    0.886749 0.865473 0.421570 0.279802
H90   H     H_    0.799915 0.830046 0.408832 0.281093
O123  O     O_3   0.001036 0.297580 0.540984 -0.636520
C219  C     C_3   0.068946 0.263632 0.539202 0.098365
H91   H     H_    0.109307 0.298619 0.554454 0.133200
H92   H     H_    0.086354 0.254605 0.508481 0.183674
C220  C     C_3   0.064707 0.188195 0.559512 -0.318511
H93   H     H_    0.053929 0.196699 0.591126 0.257956
H94   H     H_    0.019762 0.155653 0.546969 0.231723
C221  C     C_3   0.133623 0.143818 0.554614 -0.954615
H95   H     H_    0.140218 0.126583 0.523710 0.265969
H96   H     H_    0.131157 0.093222 0.573043 0.278054
H97   H     H_    0.180711 0.177120 0.563568 0.266559
O124  O     O_3   0.002274 0.702418 0.459018 -0.636351
C222  C     C_3   0.070375 0.735935 0.460807 0.098230
H98   H     H_    0.110592 0.700593 0.445663 0.133012
H99   H     H_    0.087719 0.745045 0.491531 0.183717
C223  C     C_3   0.066648 0.811267 0.440357 -0.318615
H100  H     H_    0.056002 0.802622 0.408740 0.258526
H101  H     H_    0.021803 0.844157 0.452763 0.231862
C224  C     C_3   0.135772 0.855266 0.445292 -0.953535
H102  H     H_    0.142274 0.872687 0.476172 0.265693
H103  H     H_    0.133694 0.905745 0.426759 0.278458
H104  H     H_    0.182736 0.821618 0.436490 0.266429
O125  O     O_3   0.194830 0.500796 0.041236 -0.653424
C225  C     C_3   0.229307 0.570332 0.038460 0.102380
H105  H     H_    0.197208 0.613619 0.053644 0.147855
H106  H     H_    0.237352 0.587517 0.007572 0.185280
C226  C     C_3   0.302571 0.564477 0.058028 -0.332634
H107  H     H_    0.295332 0.558630 0.090106 0.242876
H108  H     H_    0.330665 0.514169 0.047160 0.237516
C227  C     C_3   0.349058 0.632227 0.049500 -0.957106
H109  H     H_    0.365227 0.632504 0.018320 0.264445
H110  H     H_    0.398050 0.630127 0.067740 0.280742
H111  H     H_    0.319847 0.684337 0.056048 0.261898
O126  O     O_3   0.805189 0.500831 0.958757 -0.653487
C228  C     C_3   0.770521 0.570268 0.961550 0.102297
H112  H     H_    0.802367 0.613578 0.946233 0.147946
H113  H     H_    0.762679 0.587581 0.992434 0.185155
C229  C     C_3   0.697113 0.564089 0.942175 -0.332820
H114  H     H_    0.704105 0.557965 0.910095 0.242448
H115  H     H_    0.669220 0.513814 0.953231 0.237489
C230  C     C_3   0.650542 0.631811 0.950645 -0.957709
H116  H     H_    0.634517 0.632261 0.981846 0.264856
H117  H     H_    0.601472 0.629493 0.932477 0.280059
H118  H     H_    0.679610 0.683939 0.943960 0.262227
O127  O     O_3   0.499410 0.202788 0.040391 -0.637315
C231  C     C_3   0.428770 0.228927 0.044780 0.101070
H119  H     H_    0.395806 0.188115 0.061319 0.165354
H120  H     H_    0.403688 0.239134 0.015752 0.164826
C232  C     C_3   0.430497 0.302003 0.067428 -0.303634
H121  H     H_    0.458582 0.293456 0.095693 0.278176
H122  H     H_    0.460525 0.344062 0.050262 0.212714
C233  C     C_3   0.355388 0.331118 0.075562 -0.899779
H123  H     H_    0.325616 0.339399 0.047866 0.248124
H124  H     H_    0.358837 0.385131 0.091051 0.275820
H125  H     H_    0.325681 0.291463 0.094286 0.281635
O128  O     O_3   0.500520 0.797175 0.959590 -0.637833
C234  C     C_3   0.429944 0.770898 0.955132 0.101245
H126  H     H_    0.396939 0.811659 0.938577 0.165770
H127  H     H_    0.404805 0.760618 0.984137 0.164708
C235  C     C_3   0.431868 0.697848 0.932468 -0.304221
H128  H     H_    0.460079 0.706450 0.904245 0.277734
H129  H     H_    0.461855 0.655805 0.949670 0.212590
C236  C     C_3   0.356832 0.668663 0.924219 -0.899145
H130  H     H_    0.326960 0.660281 0.951874 0.247841
H131  H     H_    0.360418 0.614688 0.908702 0.275580
H132  H     H_    0.327149 0.708325 0.905482 0.282013
O129  O     O_3   0.805193 0.499214 0.041238 -0.653401
C237  C     C_3   0.770748 0.429660 0.038467 0.102375
H133  H     H_    0.802911 0.386367 0.053607 0.147811
H134  H     H_    0.762623 0.412521 0.007578 0.185303
C238  C     C_3   0.697538 0.435441 0.058100 -0.332506
H135  H     H_    0.704867 0.441213 0.090176 0.243012
H136  H     H_    0.669395 0.485764 0.047289 0.237515
C239  C     C_3   0.651052 0.367694 0.049566 -0.957044
H137  H     H_    0.634804 0.367478 0.018398 0.264401
H138  H     H_    0.602105 0.369735 0.067845 0.280858
H139  H     H_    0.680299 0.315582 0.056060 0.261836
O130  O     O_3   0.194825 0.499181 0.958754 -0.653481
C240  C     C_3   0.229484 0.429739 0.961546 0.102285
H140  H     H_    0.197621 0.386428 0.946241 0.147933
H141  H     H_    0.237347 0.412438 0.992431 0.185162
C241  C     C_3   0.302878 0.435899 0.942155 -0.332809
H142  H     H_    0.295862 0.442001 0.910075 0.242468
H143  H     H_    0.330783 0.486180 0.953196 0.237497
C242  C     C_3   0.349451 0.368180 0.950628 -0.957752
H144  H     H_    0.365505 0.367755 0.981825 0.264842
H145  H     H_    0.398504 0.370478 0.932446 0.280081
H146  H     H_    0.320372 0.316050 0.943963 0.262226
O131  O     O_3   0.500545 0.797184 0.040389 -0.637365
C243  C     C_3   0.571187 0.771055 0.044790 0.101101
H147  H     H_    0.604134 0.811868 0.061338 0.165421
H148  H     H_    0.596288 0.760859 0.015767 0.164809
C244  C     C_3   0.569457 0.697973 0.067432 -0.303770
H149  H     H_    0.541345 0.706506 0.095690 0.278113
H150  H     H_    0.539456 0.655911 0.050255 0.212702
C245  C     C_3   0.644566 0.668877 0.075586 -0.899641
H151  H     H_    0.674366 0.660613 0.047898 0.248113
H152  H     H_    0.641116 0.614858 0.091068 0.275813
H153  H     H_    0.674245 0.708534 0.094322 0.281659
O132  O     O_3   0.499461 0.202800 0.959592 -0.637843
C246  C     C_3   0.570038 0.229083 0.955149 0.101243
H154  H     H_    0.603056 0.188326 0.938600 0.165737
H155  H     H_    0.595157 0.239365 0.984160 0.164730
C247  C     C_3   0.568122 0.302134 0.932486 -0.304179
H156  H     H_    0.539938 0.293527 0.904255 0.277745
H157  H     H_    0.538113 0.344170 0.949680 0.212601
C248  C     C_3   0.643161 0.331332 0.924259 -0.899209
H158  H     H_    0.673001 0.339727 0.951924 0.247832
H159  H     H_    0.639580 0.385304 0.908738 0.275585
H160  H     H_    0.672871 0.291672 0.905534 0.281990

loop_
_geom_bond_atom_site_label_1
_geom_bond_atom_site_label_2
_geom_bond_distance
_ccdc_geom_bond_type
C20   C36   1.394580 A    
C230  H118  1.109669 S    
O131  C243  1.412102 S    
C96   C128  1.395676 A    
O49   C71   1.281278 A    
C2    C5    1.405975 A    
C248  H158  1.110029 S    
O40   C74   1.274789 A    
O5    C57   1.295030 A    
O51   C69   1.273298 A    
C39   C61   1.451848 S    
C153  C185  1.429915 A    
C219  H91   1.114233 S    
Zn4   O4    1.973447 S    
C236  H131  1.110402 S    
C93   N13   1.434215 S    
Zn6   O43   1.954413 S    
C37   C63   1.445175 S    
Zn13  O28   1.954415 S    
C240  H140  1.113530 S    
C38   C64   1.445021 S    
Zn14  O27   1.954413 S    
C23   H39   1.081592 S    
Zn8   O37   1.929162 S    
C160  C192  1.425957 A    
C161  C193  1.430249 A    
C203  H53   1.110026 S    
C25   C53   1.398497 A    
C20   H36   1.081484 S    
C216  C217  1.528533 S    
C222  H99   1.113026 S    
O8    C60   1.264333 A    
C9    C14   1.413107 A    
C74   C200  1.488394 S    
C94   C155  1.429111 A    
H16   C130  1.082708 S    
C233  H123  1.110019 S    
O121  C213  1.412839 S    
C234  C235  1.528619 S    
C100  N20   1.428065 S    
Zn3   O42   1.929159 S    
C99   C131  1.400180 A    
C65   C191  1.465002 S    
O50   C72   1.304499 A    
C201  C202  1.528541 S    
O6    C58   1.295056 A    
C239  H139  1.109649 S    
C14   C54   1.410051 A    
C215  H81   1.109990 S    
N4    O59   1.301815 A    
C206  H62   1.108173 S    
C181  C187  1.437526 A    
C19   C47   1.398908 A    
C182  C188  1.421254 A    
C29   C37   1.393185 A    
C183  C185  1.419227 A    
C28   C40   1.394226 A    
O44   C78   1.274775 A    
H12   C134  1.082706 S    
C145  C146  1.401753 A    
C201  H50   1.115199 S    
H27   C117  1.082870 S    
C31   C39   1.394297 A    
C167  C199  1.421250 A    
N18   O87   1.299907 A    
N13   O78   1.299533 A    
C109  N29   1.433882 S    
C83   C115  1.396994 A    
C225  H106  1.112181 S    
C32   C40   1.394247 A    
H5    C139  1.082644 S    
N3    O57   1.302101 A    
C173  C180  1.426126 A    
Zn15  O22   1.929163 S    
O9    C57   1.295031 A    
O21   C65   1.286687 A    
C110  C142  1.399914 A    
N26   O104  1.300549 A    
Zn6   O15   1.930457 S    
O11   C59   1.264326 A    
N7    O66   1.301702 A    
O19   C63   1.264088 A    
H9    C135  1.082629 S    
C171  C182  1.401370 A    
C216  H84   1.113209 S    
C81   N1    1.433974 S    
C96   C153  1.426688 A    
O15   C63   1.264031 A    
C9    O125  1.386951 S    
C212  H76   1.109835 S    
N24   O100  1.300538 A    
C210  H70   1.114233 S    
C210  H71   1.113058 S    
Zn4   O46   1.929341 S    
C245  H151  1.110018 S    
C102  C134  1.399867 A    
Zn12  O30   1.929341 S    
C231  C232  1.528646 S    
H1    C143  1.082646 S    
O126  C228  1.412958 S    
C247  C248  1.526669 S    
C106  C138  1.399923 A    
N6    O63   1.299889 A    
H22   C124  1.082968 S    
C26   C54   1.398540 A    
C176  C194  1.414550 A    
C241  H142  1.111583 S    
O24   C68   1.261309 A    
C216  H85   1.115176 S    
C4    O120  1.385856 S    
N25   O101  1.298974 A    
Zn1   O47   1.954234 S    
C204  C205  1.528539 S    
H26   C120  1.082962 S    
O124  C222  1.412412 S    
C85   N5    1.433966 S    
Zn2   O39   1.954422 S    
Zn3   O45   1.929343 S    
C219  C220  1.529119 S    
C91   C123  1.397197 A    
C218  H88   1.110022 S    
C170  C200  1.421515 A    
C207  H63   1.114220 S    
C240  C241  1.530310 S    
C21   C33   1.394025 A    
C203  H55   1.108157 S    
C52   C152  1.415735 A    
Zn15  O10   1.934979 S    
C19   H35   1.081589 S    
C229  H114  1.111581 S    
C1    C41   1.409479 A    
C107  N27   1.437907 S    
C155  C166  1.406964 A    
C3    C43   1.410017 A    
C105  N25   1.433880 S    
Zn3   O14   1.934968 S    
C30   C38   1.393159 A    
C243  C244  1.528640 S    
C95   C127  1.397271 A    
C115  C126  1.381471 A    
Zn5   O44   1.954415 S    
C93   C125  1.398224 A    
C104  C136  1.396787 A    
C113  C128  1.379643 A    
N17   O85   1.298850 A    
C204  H57   1.115178 S    
C26   H42   1.084093 S    
C104  C177  1.438723 A    
C215  H83   1.108169 S    
C45   C145  1.416139 A    
N24   O99   1.301473 A    
C101  N21   1.433947 S    
C29   C49   1.398538 A    
N12   O75   1.301818 A    
O34   C78   1.294684 A    
C31   H47   1.079706 S    
C24   C36   1.394562 A    
C31   C51   1.398255 A    
N7    O65   1.302101 A    
C168  C200  1.426365 A    
C220  C221  1.527350 S    
C238  H136  1.112275 S    
C95   C154  1.431232 A    
N15   O81   1.302148 A    
C2    O118  1.384767 S    
O128  C234  1.412143 S    
C100  C132  1.396795 A    
N3    O58   1.301704 A    
Zn12  O1    1.973447 S    
C213  H78   1.115166 S    
N22   O95   1.299910 A    
O22   C66   1.294802 A    
C232  C233  1.526671 S    
C211  H73   1.112120 S    
C73   C199  1.465322 S    
C234  H126  1.114777 S    
H29   C115  1.083013 S    
C163  C195  1.421329 A    
N23   O98   1.301712 A    
N29   O109  1.298971 A    
C92   N12   1.436008 S    
C118  C123  1.381833 A    
C206  H61   1.110394 S    
C214  H79   1.111818 S    
C243  H147  1.114772 S    
C55   C151  1.415717 A    
C86   C118  1.394676 A    
C105  C176  1.426436 A    
C149  C150  1.401805 A    
C82   N2    1.430313 S    
C106  C175  1.425908 A    
C111  N31   1.437896 S    
C90   C122  1.394433 A    
C101  C180  1.426253 A    
H20   C126  1.080599 S    
C76   C194  1.477947 S    
C102  C179  1.426001 A    
C179  C189  1.419230 A    
C211  C212  1.527371 S    
H3    C141  1.083090 S    
N16   O83   1.301818 A    
C103  C178  1.425842 A    
C91   N11   1.435641 S    
H6    C140  1.080942 S    
C136  C137  1.378214 A    
C221  H97   1.109851 S    
C212  H75   1.109858 S    
C91   C158  1.431302 A    
N20   O91   1.301472 A    
C22   C34   1.394043 A    
H10   C136  1.080881 S    
H13   C131  1.082633 S    
C241  C242  1.527740 S    
C206  H60   1.110021 S    
Zn5   O1    1.923600 S    
Zn9   O4    1.923593 S    
Zn10  O3    1.923597 S    
Zn11  O26   1.929159 S    
C173  C195  1.437614 A    
C40   C62   1.451451 S    
C154  C186  1.420552 A    
C207  C208  1.529122 S    
C174  C196  1.421509 A    
O39   C73   1.273351 A    
O26   C70   1.294790 A    
C239  H138  1.110398 S    
C41   C145  1.416146 A    
O125  C225  1.412975 S    
C79   C197  1.472394 S    
C155  C187  1.421585 A    
C84   C165  1.426762 A    
N5    O62   1.299447 A    
C14   O130  1.386932 S    
C221  H95   1.109560 S    
C162  C194  1.420719 A    
C229  C230  1.527739 S    
C120  C121  1.379665 A    
C202  H52   1.111857 S    
C30   C50   1.398530 A    
C107  C174  1.425845 A    
C108  N28   1.428203 S    
Zn4   O13   1.934968 S    
N9    O70   1.299551 A    
Zn5   O16   1.930457 S    
C223  H101  1.112111 S    
C226  H108  1.112276 S    
Zn1   O40   1.954420 S    
C156  C188  1.425994 A    
C213  H77   1.113213 S    
O25   C69   1.286702 A    
C174  C179  1.401425 A    
C175  C178  1.401373 A    
C217  H86   1.111810 S    
C5    C45   1.409486 A    
C12   C52   1.410264 A    
C94   N14   1.429898 S    
C129  C144  1.378305 A    
O10   C58   1.295074 A    
H21   C123  1.082997 S    
C99   C182  1.425840 A    
C80   C198  1.477966 S    
C88   C161  1.426764 A    
C224  H103  1.109846 S    
N2    O56   1.299894 A    
C236  H130  1.110029 S    
Zn10  O23   1.954422 S    
C51   C151  1.415699 A    
C54   C150  1.417504 A    
C81   C168  1.431162 A    
C82   C167  1.428743 A    
C4    C7    1.411159 A    
Zn3   O3    1.973447 S    
C24   H40   1.081469 S    
N14   O80   1.299898 A    
N32   O115  1.301467 A    
C25   H41   1.084041 S    
Zn9   O24   1.954420 S    
C114  C127  1.381941 A    
Zn4   O41   1.929160 S    
C247  H156  1.112089 S    
C96   N16   1.436026 S    
O28   C72   1.261283 A    
Zn12  O25   1.929160 S    
O29   C73   1.286634 A    
O118  C204  1.412859 S    
Zn7   O49   1.929347 S    
C231  H120  1.114460 S    
C8    C48   1.410027 A    
N8    O68   1.298455 A    
C135  C138  1.387852 A    
N28   O108  1.300481 A    
C18   C34   1.394035 A    
C205  H58   1.111808 S    
C16   O132  1.384174 S    
C214  C215  1.526357 S    
C21   H37   1.083292 S    
C230  H117  1.110352 S    
C244  C245  1.526668 S    
C245  H153  1.109608 S    
Zn9   O31   1.954234 S    
C106  N26   1.434277 S    
Zn10  O32   1.954232 S    
C10   C50   1.410047 A    
Zn7   O18   1.934979 S    
C160  C161  1.424718 A    
Zn11  O29   1.929343 S    
C219  H92   1.113081 S    
O14   C62   1.295030 A    
O127  C231  1.412102 S    
C97   C129  1.389229 A    
H23   C121  1.082869 S    
H30   C116  1.082965 S    
C246  C247  1.528614 S    
H32   C114  1.080586 S    
C56   C152  1.415744 A    
C119  C122  1.381457 A    
Zn2   O2    1.923597 S    
C241  H143  1.112281 S    
C33   C59   1.446202 S    
C243  H148  1.114459 S    
C165  C197  1.430217 A    
C234  H127  1.114472 S    
C70   C188  1.488267 S    
C35   C57   1.451940 S    
N21   O94   1.300954 A    
H24   C122  1.080601 S    
C6    C46   1.409496 A    
C176  C177  1.425987 A    
C215  H82   1.110370 S    
O31   C75   1.281351 A    
C237  C238  1.530316 S    
C10   O126  1.386933 S    
C209  H67   1.109554 S    
C157  C189  1.429919 A    
Zn16  O9    1.934979 S    
H14   C132  1.080886 S    
C227  H109  1.109608 S    
N4    O60   1.298454 A    
C156  C165  1.424682 A    
O13   C61   1.295156 A    
O117  C201  1.412849 S    
C233  H125  1.109611 S    
C18   H34   1.083304 S    
N22   O96   1.300593 A    
C72   C190  1.478366 S    
O123  C219  1.412411 S    
C217  C218  1.526377 S    
C164  C196  1.426367 A    
Zn7   O38   1.929163 S    
N18   O88   1.300591 A    
N13   O77   1.300145 A    
C151  C152  1.403366 A    
C235  H128  1.112085 S    
O41   C79   1.281453 A    
Zn8   O50   1.929349 S    
C105  C137  1.389147 A    
O42   C80   1.304464 A    
C236  H132  1.109653 S    
C103  N23   1.438082 S    
C68   C186  1.478431 S    
C84   C116  1.395784 A    
C27   C55   1.398313 A    
N19   O89   1.300758 A    
Zn15  O33   1.929347 S    
C3    O119  1.385818 S    
H17   C127  1.082992 S    
O48   C66   1.274615 A    
C237  H133  1.113578 S    
Zn8   O4    1.973427 S    
Zn12  O5    1.934968 S    
N1    O54   1.299447 A    
Zn13  O8    1.930457 S    
C245  H152  1.110397 S    
Zn14  O7    1.930457 S    
C4    C44   1.410017 A    
C109  C172  1.426427 A    
O12   C60   1.264341 A    
C48   C148  1.416234 A    
Zn9   O12   1.930460 S    
C13   C53   1.410012 A    
C102  N22   1.434193 S    
C66   C192  1.488271 S    
C1    C6    1.405941 A    
Zn15  O2    1.973423 S    
C205  C206  1.526378 S    
C107  C139  1.400150 A    
H2    C144  1.080962 S    
C244  H149  1.112082 S    
C204  H56   1.113204 S    
H28   C118  1.080558 S    
H11   C133  1.083071 S    
C208  H66   1.112102 S    
C90   N10   1.429881 S    
C75   C193  1.472445 S    
C89   N9    1.434242 S    
C207  H64   1.113077 S    
C47   C147  1.416254 A    
C88   C120  1.395792 A    
C153  C168  1.424546 A    
C228  H113  1.112188 S    
C154  C167  1.406493 A    
C8    O124  1.385858 S    
C246  H154  1.114778 S    
C111  C143  1.400148 A    
C131  C142  1.387834 A    
Zn6   O52   1.954239 S    
C92   C124  1.395672 A    
C229  H115  1.112280 S    
N11   O73   1.302146 A    
C49   C149  1.417470 A    
C24   C44   1.398893 A    
H8    C138  1.082687 S    
C97   N17   1.433934 S    
C109  C141  1.389147 A    
C242  H144  1.109576 S    
O20   C64   1.264016 A    
Zn11  O6    1.934968 S    
C208  H65   1.111636 S    
C103  C135  1.400200 A    
C238  H135  1.111595 S    
O30   C74   1.294682 A    
C101  C133  1.389203 A    
O27   C71   1.281333 A    
H31   C113  1.082871 S    
C29   H45   1.084061 S    
C172  C198  1.414542 A    
C221  H96   1.109856 S    
C85   C117  1.398308 A    
C227  H111  1.109653 S    
O36   C80   1.261277 A    
C108  C173  1.438501 A    
C220  H94   1.112095 S    
C50   C150  1.417517 A    
C201  H49   1.113163 S    
C222  C223  1.529159 S    
C242  H146  1.109669 S    
Zn16  O34   1.929349 S    
C177  C191  1.437513 A    
O130  C240  1.412955 S    
C178  C192  1.421225 A    
C87   N7    1.435463 S    
C172  C181  1.425992 A    
C232  H122  1.111854 S    
C225  H105  1.113565 S    
C159  C191  1.421596 A    
C100  C181  1.438719 A    
C89   C160  1.431037 A    
C11   C16   1.404711 A    
C90   C159  1.429124 A    
C12   C15   1.404731 A    
C2    C42   1.409501 A    
C217  H87   1.111870 S    
N26   O103  1.299955 A    
C6    O122  1.384765 S    
N27   O105  1.300722 A    
C85   C164  1.431163 A    
C169  C199  1.437582 A    
C86   C163  1.428805 A    
O37   C75   1.281463 A    
C1    O117  1.384739 S    
C87   C162  1.431565 A    
O38   C76   1.304451 A    
C116  C125  1.379667 A    
C94   C126  1.394441 A    
C112  N32   1.428241 S    
C3    C8    1.411193 A    
C210  C211  1.529171 S    
C99   N19   1.438042 S    
C132  C141  1.378217 A    
C7    O123  1.385822 S    
C218  H90   1.108171 S    
C46   C146  1.416163 A    
C95   N15   1.435694 S    
N16   O84   1.298444 A    
C22   H38   1.083305 S    
C203  H54   1.110368 S    
C69   C187  1.465014 S    
Zn1   O20   1.930460 S    
N20   O92   1.300536 A    
Zn2   O19   1.930460 S    
Zn6   O2    1.923600 S    
H7    C137  1.083090 S    
H18   C128  1.082966 S    
N25   O102  1.300966 A    
Zn14  O36   1.954239 S    
O16   C64   1.264021 A    
C104  N24   1.428063 S    
Zn8   O17   1.934979 S    
C27   H43   1.079758 S    
C225  C226  1.530321 S    
C83   N3    1.435469 S    
O120  C210  1.412428 S    
C13   O129  1.386953 S    
C157  C164  1.424554 A    
N5    O61   1.300152 A    
C16   C56   1.410250 A    
C110  N30   1.434258 S    
C158  C163  1.406589 A    
C159  C162  1.406981 A    
C108  C140  1.397001 A    
C237  H134  1.112177 S    
C202  H51   1.111815 S    
Zn1   O1    1.923593 S    
C230  H116  1.109574 S    
C87   C119  1.396987 A    
N9    O69   1.300140 A    
O43   C77   1.273331 A    
C223  C224  1.527391 S    
C184  C186  1.414502 A    
C226  H107  1.111593 S    
C83   C166  1.431557 A    
C17   H33   1.083293 S    
C220  H93   1.111637 S    
C166  C198  1.420712 A    
C133  C140  1.378288 A    
N30   O112  1.300546 A    
C228  H112  1.113528 S    
C238  C239  1.527753 S    
N17   O86   1.300947 A    
Zn5   O51   1.954238 S    
C89   C121  1.398214 A    
H19   C125  1.082868 S    
C218  H89   1.110392 S    
C171  C197  1.419314 A    
C232  H121  1.112079 S    
C21   C41   1.396920 A    
C224  H102  1.109558 S    
C23   C43   1.398917 A    
Zn16  O21   1.929162 S    
C130  C143  1.387779 A    
O18   C62   1.295025 A    
C81   C113  1.398306 A    
C110  C171  1.425924 A    
N19   O90   1.301714 A    
C213  C214  1.528536 S    
C111  C170  1.425841 A    
N31   O113  1.300712 A    
C169  C184  1.426116 A    
C12   O128  1.384174 S    
C32   C52   1.398297 A    
C170  C183  1.401425 A    
C32   H48   1.079904 S    
C158  C190  1.420564 A    
C23   C35   1.394576 A    
N32   O116  1.300447 A    
C25   C37   1.393170 A    
C42   C146  1.416162 A    
C117  C124  1.379638 A    
N31   O114  1.301722 A    
C211  H72   1.111638 S    
O52   C70   1.274648 A    
C212  H74   1.109526 S    
C67   C185  1.472180 S    
N29   O110  1.300965 A    
C233  H124  1.110398 S    
C205  H59   1.111870 S    
C240  H141  1.112187 S    
C242  H145  1.110354 S    
C214  H80   1.111856 S    
C180  C190  1.414498 A    
O47   C65   1.273292 A    
C244  H150  1.111848 S    
O7    C59   1.264341 A    
C28   C56   1.398276 A    
C93   C156  1.431049 A    
C92   C157  1.426679 A    
Zn13  O4    1.923600 S    
C208  C209  1.527337 S    
Zn14  O3    1.923600 S    
O32   C76   1.261267 A    
O17   C61   1.295105 A    
O119  C207  1.412407 S    
C246  H155  1.114474 S    
C20   C48   1.398917 A    
N12   O76   1.298433 A    
C28   H44   1.079899 S    
H4    C142  1.082689 S    
Zn16  O1    1.973427 S    
N11   O74   1.301703 A    
C77   C195  1.465322 S    
C53   C149  1.417450 A    
C78   C196  1.488394 S    
C222  H98   1.114245 S    
O129  C237  1.412971 S    
N15   O82   1.301702 A    
C5    O121  1.384750 S    
O122  C216  1.412862 S    
N21   O93   1.298891 A    
C27   C39   1.394309 A    
C235  C236  1.526671 S    
C43   C147  1.416246 A    
C239  H137  1.109614 S    
N10   O72   1.299895 A    
C17   C45   1.396934 A    
C19   C35   1.394570 A    
C22   C42   1.396932 A    
C209  H68   1.109846 S    
C30   H46   1.084093 S    
C202  C203  1.526369 S    
C17   C33   1.394030 A    
C227  H110  1.110392 S    
Zn13  O35   1.954238 S    
N30   O111  1.299951 A    
C44   C148  1.416230 A    
C223  H100  1.111626 S    
C26   C38   1.393168 A    
C226  C227  1.527756 S    
Zn10  O11   1.930460 S    
Zn7   O3    1.973423 S    
Zn11  O2    1.973447 S    
C11   O127  1.384174 S    
H15   C129  1.083064 S    
C9    C49   1.410017 A    
C247  H157  1.111824 S    
C147  C148  1.402722 A    
C98   C130  1.399862 A    
C71   C189  1.472190 S    
C11   C51   1.410268 A    
C228  C229  1.530311 S    
C235  H129  1.111824 S    
C18   C46   1.396928 A    
C224  H104  1.109866 S    
N2    O55   1.299922 A    
C209  H69   1.109849 S    
C15   C55   1.410268 A    
C112  C144  1.397050 A    
C88   N8    1.435947 S    
O35   C79   1.281352 A    
N27   O106  1.301720 A    
C175  C193  1.419322 A    
C248  H159  1.110401 S    
C98   N18   1.434193 S    
C112  C169  1.438418 A    
C86   N6    1.430228 S    
O23   C67   1.281330 A    
O33   C77   1.286668 A    
N14   O79   1.299821 A    
C248  H160  1.109656 S    
O132  C246  1.412141 S    
C84   N4    1.435958 S    
C134  C139  1.387782 A    
N1    O53   1.300153 A    
H25   C119  1.083013 S    
C97   C184  1.426195 A    
Zn2   O48   1.954232 S    
C7    C47   1.410017 A    
C98   C183  1.426001 A    
N6    O64   1.299897 A    
C36   C58   1.452084 S    
C231  H119  1.114773 S    
C10   C13   1.413087 A    
N8    O67   1.301812 A    
C82   C114  1.394738 A    
N28   O107  1.301461 A    
O45   C67   1.281288 A    
C15   O131  1.384170 S    
N10   O71   1.299812 A    
C34   C60   1.446223 S    
O46   C68   1.304507 A    
N23   O97   1.300777 A    
