data_mof_unit_11062.cif
_audit_creation_date              2012-12-11T14:34:10-0500
_audit_creation_method            fapswitch 2.2
_symmetry_space_group_name_H-M    P1
_symmetry_Int_Tables_number       1
_space_group_crystal_system       triclinic
_cell_length_a                    14.321251
_cell_length_b                    14.326433
_cell_length_c                    27.058889
_cell_angle_alpha                 90.673435
_cell_angle_beta                  89.281997
_cell_angle_gamma                 119.607228
_cell_volume                      4826.3845868

loop_
_atom_site_label
_atom_site_type_symbol
_atom_type_description
_atom_site_fract_x
_atom_site_fract_y
_atom_site_fract_z
_atom_type_partial_charge
Br1   Br    Br    0.591742 0.001074 0.825052 0.000334
Br2   Br    Br    0.547157 0.518965 0.194936 -0.179946
Br3   Br    Br    0.478307 0.007619 0.192699 -0.218529
Br4   Br    Br    0.969117 0.423346 0.203167 -0.202926
Br5   Br    Br    0.562341 0.513162 0.314160 -0.187513
Br6   Br    Br    0.487343 0.041192 0.312473 -0.202395
Br7   Br    Br    0.958155 0.429946 0.324373 -0.194183
Br8   Br    Br    0.714223 0.671299 0.400840 -0.222310
Br9   Br    Br    0.326448 0.036740 0.399510 -0.232957
Br10  Br    Br    0.956679 0.272643 0.413143 -0.223075
Br11  Br    Br    0.775475 0.042582 0.699318 0.027998
Br12  Br    Br    0.002320 0.590298 0.821736 0.003382
Br13  Br    Br    0.957740 0.754810 0.700490 0.036155
Br14  Br    Br    0.262655 0.220775 0.694538 0.023319
Br15  Br    Br    0.864703 0.875604 0.801065 -0.049044
Br16  Br    Br    0.119423 0.986361 0.814345 -0.084922
Br17  Br    Br    0.010119 0.133136 0.800769 -0.042403
Br18  Br    Br    0.408640 0.401625 0.818814 0.006447
Br19  Br    Br    0.751893 0.165885 0.211089 -0.200365
Br20  Br    Br    0.830114 0.593036 0.208067 -0.259076
Br21  Br    Br    0.391015 0.206784 0.211331 -0.252445
Br22  Br    Br    0.751943 0.154719 0.331578 -0.129399
Br23  Br    Br    0.846928 0.586206 0.327830 -0.110821
Br24  Br    Br    0.417678 0.252892 0.330381 -0.097052
C1    C     C_R   0.235930 0.786422 0.569221 0.533382
C2    C     C_1   0.677259 0.845340 0.867186 0.175493
C3    C     C_1   0.157387 0.827122 0.868209 0.177603
C4    C     C_1   0.169288 0.319132 0.866078 0.175247
C5    C     C_1   0.602264 0.802795 0.663104 0.167849
C6    C     C_1   0.193093 0.808951 0.661926 0.167478
C7    C     C_1   0.196530 0.396280 0.662556 0.170713
C8    C     C_1   0.584089 0.788649 0.619543 0.133121
C9    C     C_1   0.208021 0.801779 0.618464 0.130208
C10   C     C_1   0.201667 0.415006 0.619149 0.136174
C11   C     C_R   0.070092 0.161138 0.096916 0.540713
C12   C     C_R   0.214395 0.451711 0.569502 0.536624
C13   C     C_R   0.779348 0.885457 0.088281 0.581001
C14   C     C_R   0.114461 0.894795 0.088275 0.575261
C15   C     C_R   0.107187 0.220559 0.951852 0.591674
C16   C     C_R   0.778916 0.885984 0.952165 0.579981
C17   C     C_R   0.115171 0.891484 0.953030 0.576224
C18   C     C_R   0.649827 0.908162 0.367261 0.386991
C19   C     C_R   0.092993 0.735434 0.365209 0.386331
C20   C     C_R   0.258522 0.340343 0.370311 0.385847
C21   C     C_R   0.681314 0.926780 0.317030 -0.002554
C22   C     C_R   0.074088 0.746903 0.314914 -0.002346
C23   C     C_R   0.548081 0.763138 0.569657 0.537713
C24   C     C_R   0.238674 0.296338 0.321907 -0.000994
C25   C     C_R   0.709577 0.945218 0.213523 -0.018111
C26   C     C_R   0.054327 0.761406 0.211710 -0.017590
C27   C     C_R   0.204364 0.235438 0.221118 -0.016466
C28   C     C_R   0.232547 0.787952 0.432327 0.562925
C29   C     C_R   0.211128 0.441476 0.433805 0.561830
C30   C     C_R   0.556915 0.767566 0.432793 0.565275
C31   C     C_R   0.724761 0.034347 0.242195 0.179186
C32   C     C_R   0.965251 0.687481 0.239808 0.172536
C33   C     C_R   0.289616 0.235387 0.246521 0.166285
C34   C     C_3   0.612604 0.713645 0.796022 0.688294
C35   C     C_R   0.713458 0.026094 0.293844 0.235324
C36   C     C_R   0.974798 0.680231 0.291195 0.242462
C37   C     C_R   0.306352 0.264702 0.296897 0.242079
C38   C     C_R   0.730900 0.954569 0.162633 -0.144965
C39   C     C_R   0.045036 0.776411 0.161258 -0.150721
C40   C     C_R   0.181101 0.200364 0.171938 -0.155134
C41   C     C_R   0.721225 0.867090 0.135269 -0.003918
C42   C     C_R   0.132609 0.854606 0.134655 -0.005398
C43   C     C_R   0.098167 0.204509 0.147145 -0.011078
C44   C     C_R   0.653804 0.742262 0.363349 0.137418
C45   C     C_3   0.286018 0.898987 0.795957 0.692071
C46   C     C_R   0.257846 0.904683 0.361949 0.136311
C47   C     C_R   0.083561 0.326186 0.371764 0.140808
C48   C     C_R   0.653200 0.743712 0.311584 -0.032651
C49   C     C_R   0.256506 0.901246 0.310207 -0.034014
C50   C     C_R   0.078670 0.317191 0.320647 -0.032996
C51   C     C_R   0.670964 0.838885 0.288282 -0.103228
C52   C     C_R   0.161423 0.824407 0.286629 -0.103276
C53   C     C_R   0.152441 0.294239 0.295987 -0.103655
C54   C     C_R   0.621812 0.650169 0.283066 0.195714
C55   C     C_R   0.350055 0.962015 0.281733 0.195887
C56   C     C_3   0.101718 0.385923 0.797498 0.683148
C57   C     C_R   0.016768 0.349213 0.293257 0.196189
C58   C     C_R   0.617135 0.653590 0.231387 0.225404
C59   C     C_R   0.345987 0.952743 0.230055 0.231497
C60   C     C_R   0.015676 0.340844 0.241732 0.232114
C61   C     C_R   0.655573 0.753644 0.207831 0.005135
C62   C     C_R   0.245817 0.895430 0.206636 0.007964
C63   C     C_R   0.064747 0.286996 0.218930 0.008559
C64   C     C_3   0.540553 0.845259 0.743540 0.604881
C65   C     C_3   0.150289 0.700640 0.738875 0.593355
C66   C     C_3   0.301725 0.456000 0.741133 0.600141
C67   C     C_3   0.600123 0.706197 0.738790 0.287561
C68   C     C_R   0.678989 0.846025 0.236560 -0.065850
C69   C     C_R   0.153733 0.826889 0.235003 -0.064714
C70   C     C_R   0.140034 0.271179 0.245425 -0.063773
C71   C     C_R   0.675058 0.765245 0.156706 0.410850
C72   C     C_R   0.234192 0.907878 0.156129 0.408128
C73   C     C_R   0.041570 0.249898 0.170462 0.404979
C74   C     C_R   0.627808 0.810804 0.389155 0.005757
C75   C     C_R   0.189619 0.811861 0.387662 0.006381
C76   C     C_R   0.182674 0.362435 0.393605 0.005492
C77   C     C_3   0.737338 0.902313 0.727658 0.499359
C78   C     C_3   0.292590 0.896263 0.738501 0.293215
C79   C     C_3   0.098044 0.846677 0.731113 0.507153
C80   C     C_3   0.161924 0.259934 0.725791 0.499851
C81   C     C_3   0.754503 0.909424 0.784783 0.412689
C82   C     C_3   0.090001 0.847387 0.788938 0.411077
C83   C     C_3   0.153433 0.241690 0.782817 0.419150
C84   C     C_1   0.717350 0.863307 0.907669 0.123788
C85   C     C_1   0.139225 0.849936 0.908981 0.120680
C86   C     C_1   0.146811 0.280339 0.906846 0.123232
C87   C     C_3   0.619922 0.815071 0.716901 -0.152596
C88   C     C_3   0.182190 0.812735 0.716171 -0.150236
C89   C     C_3   0.104345 0.399021 0.740354 0.289822
C90   C     C_3   0.191955 0.377933 0.716099 -0.151377
C91   C     C_3   0.560634 0.858370 0.800960 0.526486
C92   C     C_3   0.142401 0.703176 0.796879 0.522396
C93   C     C_3   0.297029 0.434799 0.798306 0.520716
C94   C     C_3   0.650637 0.831542 0.813808 -0.136529
C95   C     C_3   0.169278 0.818176 0.814040 -0.131370
C96   C     C_3   0.181066 0.345739 0.812728 -0.136595
Cr1   Cr    Cr6+3 0.164410 0.584450 0.499910 1.196529
Cr2   Cr    Cr6+3 0.415550 0.579960 0.499910 1.195129
Cr3   Cr    Cr6+3 0.420040 0.835590 0.499910 1.195304
Cr4   Cr    Cr6+3 0.155170 0.075460 0.019960 1.158037
Cr5   Cr    Cr6+3 0.924540 0.079710 0.019960 1.155327
Cr6   Cr    Cr6+3 0.920290 0.844830 0.019960 1.145628
F1    F     F_    0.436961 0.764316 0.734871 -0.473980
F2    F     F_    0.632943 0.979392 0.393888 -0.523682
F3    F     F_    0.021745 0.649209 0.391738 -0.525011
F4    F     F_    0.352053 0.367737 0.393554 -0.527311
F5    F     F_    0.661972 0.681166 0.128124 -0.540128
F6    F     F_    0.318018 0.981183 0.128730 -0.538003
F7    F     F_    0.958396 0.250494 0.147197 -0.551940
F8    F     F_    0.549495 0.937830 0.723472 -0.542351
F9    F     F_    0.054590 0.621902 0.718917 -0.535394
F10   F     F_    0.384366 0.446949 0.718680 -0.545653
F11   F     F_    0.806074 0.873944 0.703694 -0.477701
F12   F     F_    0.227840 0.674312 0.725385 -0.498065
F13   F     F_    0.130688 0.948194 0.712578 -0.468903
F14   F     F_    0.064672 0.192535 0.703044 -0.473855
F15   F     F_    0.788481 0.012555 0.801385 -0.536033
F16   F     F_    0.987198 0.774531 0.804175 -0.538323
F17   F     F_    0.222097 0.205520 0.796978 -0.525987
F18   F     F_    0.669069 0.674968 0.717419 -0.456979
F19   F     F_    0.327630 0.997738 0.719293 -0.450474
F20   F     F_    0.003974 0.330973 0.720572 -0.455655
F21   F     F_    0.515750 0.645128 0.817955 -0.455213
F22   F     F_    0.355985 0.870671 0.815843 -0.458080
F23   F     F_    0.323226 0.559856 0.733596 -0.474372
F24   F     F_    0.131979 0.482829 0.820241 -0.460859
F25   F     F_    0.467876 0.786541 0.825833 -0.394971
F26   F     F_    0.217251 0.680608 0.817203 -0.390818
F27   F     F_    0.319604 0.527660 0.824041 -0.395260
F28   F     F_    0.681486 0.677193 0.810332 -0.445415
F29   F     F_    0.320834 0.002975 0.812240 -0.444245
F30   F     F_    0.997450 0.318584 0.813566 -0.449458
H1    H     H_    0.764536 0.031692 0.144715 0.215422
H2    H     H_    0.968073 0.734446 0.143168 0.200210
H3    H     H_    0.224430 0.166541 0.152856 0.195818
H4    H     H_    0.517956 0.642656 0.729429 0.268351
H5    H     H_    0.353449 0.873904 0.727410 0.266512
H6    H     H_    0.122204 0.481525 0.731759 0.268058
O1    O     O_R   0.137150 0.468200 0.553200 -0.463516
O2    O     O_R   0.140110 0.470540 0.446010 -0.449406
O3    O     O_R   0.529460 0.669570 0.446010 -0.451264
O4    O     O_R   0.330430 0.859890 0.446010 -0.448573
O5    O     O_R   0.176710 0.690910 0.450560 -0.433303
O6    O     O_R   0.309090 0.485800 0.450560 -0.435250
O7    O     O_R   0.514200 0.823290 0.450560 -0.432470
O8    O     O_3   0.333333 0.666667 0.499990 -0.376090
O9    O     O_R   0.176750 0.985260 0.074180 -0.446093
O10   O     O_R   0.014740 0.191490 0.074180 -0.399997
O11   O     O_R   0.808510 0.823250 0.074180 -0.433833
O12   O     O_R   0.531800 0.668950 0.553200 -0.463860
O13   O     O_R   0.146100 0.172630 0.068980 -0.488872
O14   O     O_R   0.827370 0.973470 0.068980 -0.534107
O15   O     O_R   0.026530 0.853900 0.068980 -0.527349
O16   O     O_3   1.000000 1.000000 0.020040 -0.320290
O17   O     O_R   0.148270 0.170520 0.969620 -0.479058
O18   O     O_R   0.829480 0.977750 0.969620 -0.486812
O19   O     O_R   0.022250 0.851730 0.969620 -0.483202
O20   O     O_R   0.331050 0.862850 0.553200 -0.465362
O21   O     O_R   0.179100 0.982980 0.967000 -0.465861
O22   O     O_R   0.017020 0.196120 0.967000 -0.464950
O23   O     O_R   0.803880 0.820900 0.967000 -0.464144
O24   O     O_R   0.173970 0.688730 0.549930 -0.483012
O25   O     O_R   0.311270 0.485240 0.549930 -0.487377
O26   O     O_R   0.514760 0.826030 0.549930 -0.485477

loop_
_geom_bond_atom_site_label_1
_geom_bond_atom_site_label_2
_ccdc_geom_bond_type
C89   F20   S    
C55   C59   A    
C56   C96   S    
Br24  C37   S    
C65   F9    S    
C31   C35   A    
C82   C95   S    
C61   C71   A    
C78   C88   S    
C60   C63   A    
C73   F7    S    
Br20  C32   S    
C22   C52   A    
C24   C37   A    
C14   O9    A    
Cr4   O13   S    
C45   C78   S    
C1    O20   A    
C56   F24   S    
C65   C88   S    
C45   F29   S    
C29   O2    A    
C19   C75   A    
C67   F18   S    
Cr3   O20   S    
Br17  C83   S    
C28   O5    A    
C81   F15   S    
C64   F1    S    
C20   F4    S    
Cr1   O1    S    
C63   C70   A    
C53   C70   A    
C34   C94   S    
Cr6   O15   S    
C30   O3    A    
C67   C87   S    
Cr3   O26   S    
Cr5   O10   S    
Cr4   O17   S    
C48   C54   A    
C34   F28   S    
C28   O4    A    
Cr1   O24   S    
C16   O18   A    
Cr3   O4    S    
C15   C86   S    
C14   C42   S    
Cr2   O8    S    
C50   C53   A    
C13   C41   S    
C12   O1    A    
C56   F30   S    
C27   C33   A    
Br13  C79   S    
C34   C67   S    
C7    C90   S    
Cr4   O16   S    
C15   O22   A    
C38   C41   A    
C18   F2    S    
C16   C84   S    
Br10  C47   S    
Cr1   O8    S    
C89   H6    S    
C39   C42   A    
Cr2   O3    S    
C17   C85   S    
Cr5   O22   S    
C71   F5    S    
C26   C39   A    
C64   C87   S    
C30   O7    A    
C17   O19   A    
Cr5   O18   S    
C66   F23   S    
C61   C68   A    
C82   F16   S    
C29   C76   S    
C77   C81   S    
Br23  C36   S    
Cr1   O5    S    
C38   H1    S    
Cr2   O6    S    
C23   O12   A    
C66   C93   S    
C19   F3    S    
Br9   C46   S    
Cr4   O21   S    
C4    C96   S    
C93   C96   S    
C2    C84   T    
Br22  C35   S    
C77   F11   S    
C34   F21   S    
C16   O23   A    
C4    C86   T    
Cr2   O12   S    
Cr1   O2    S    
C13   O11   A    
C45   C95   S    
C26   C32   A    
C80   F14   S    
C6    C88   S    
C79   C88   S    
C18   C21   A    
C24   C53   A    
C40   C43   A    
Br21  C33   S    
C62   C69   A    
C79   F13   S    
C52   C69   A    
C66   F10   S    
C54   C58   A    
C29   O6    A    
Br14  C80   S    
Br4   C60   S    
C11   C43   S    
C44   C48   A    
C91   C94   S    
C46   C49   A    
C49   C55   A    
C7    C10   T    
Br11  C77   S    
C62   C72   A    
Br18  C93   S    
C67   H4    S    
Cr3   O7    S    
Cr6   O11   S    
C11   O10   A    
C51   C68   A    
C80   C90   S    
Br7   C57   S    
Br8   C44   S    
C3    C95   S    
Br3   C59   S    
C8    C23   S    
C81   C94   S    
Br2   C58   S    
C25   C68   A    
C83   F17   S    
C83   C96   S    
C92   F26   S    
C57   C60   A    
C46   C75   A    
C42   C72   A    
C89   C90   S    
Br19  C31   S    
C21   C35   A    
C25   C38   A    
C6    C9    T    
C22   C36   A    
C5    C87   S    
Cr6   O23   S    
C30   C74   S    
C27   C40   A    
C2    C94   S    
C47   C50   A    
C15   O17   A    
C26   C69   A    
C33   C37   A    
Br16  C82   S    
C77   C87   S    
C58   C61   A    
C47   C76   A    
C28   C75   S    
C92   C95   S    
C72   F6    S    
C21   C51   A    
C12   O25   A    
C11   O13   A    
Br15  C81   S    
C64   C91   S    
C18   C74   A    
C23   O26   A    
C64   F8    S    
C5    C8    T    
C78   F19   S    
C25   C31   A    
C13   O14   A    
C93   F27   S    
C20   C76   A    
C48   C51   A    
Cr2   O25   S    
Cr4   O9    S    
C78   H5    S    
C40   H3    S    
C49   C52   A    
Cr6   O16   S    
C79   C82   S    
C10   C12   S    
C66   C90   S    
C19   C22   A    
C44   C74   A    
C65   C92   S    
Cr3   O8    S    
C1    O24   A    
C43   C73   A    
C27   C70   A    
Br6   C55   S    
C32   C36   A    
C41   C71   A    
C59   C62   A    
C56   C89   S    
C3    C85   T    
C65   F12   S    
C91   F25   S    
Cr5   O16   S    
C14   O15   A    
C45   F22   S    
C17   O21   A    
Cr6   O19   S    
C50   C57   A    
Br1   C91   S    
C39   H2    S    
Br12  C92   S    
Br5   C54   S    
Cr5   O14   S    
C80   C83   S    
C20   C24   A    
C1    C9    S    
C63   C73   A    
