data_mof_unit_52787.cif
_audit_creation_date              2012-12-10T17:44:29-0500
_audit_creation_method            fapswitch 2.2
_symmetry_space_group_name_H-M    P1
_symmetry_Int_Tables_number       1
_space_group_crystal_system       triclinic
_cell_length_a                    9.964836
_cell_length_b                    10.626529
_cell_length_c                    15.424087
_cell_angle_alpha                 92.708841
_cell_angle_beta                  67.826117
_cell_angle_gamma                 87.639883
_cell_volume                      1507.72029626

loop_
_atom_site_label
_atom_site_type_symbol
_atom_type_description
_atom_site_fract_x
_atom_site_fract_y
_atom_site_fract_z
_atom_type_partial_charge
C1    C     C_R   0.496215 0.739544 0.501456 0.883308
C2    C     C_R   0.743713 0.470874 0.025928 0.150970
C3    C     C_R   0.600259 0.440710 0.080397 0.090514
C4    C     C_R   0.409384 0.497447 0.675915 0.886235
C5    C     C_R   0.837557 0.508580 0.069712 -0.211487
C6    C     C_R   0.789308 0.519266 0.167259 -0.163566
C7    C     C_R   0.553849 0.454224 0.177920 -0.267456
C8    C     C_R   0.496341 0.855342 0.335626 -0.186737
C9    C     C_R   0.524831 0.909651 0.250642 -0.140241
C10   C     C_R   0.574531 0.030432 0.239226 -0.160136
C11   C     C_R   0.587472 0.100256 0.314595 -0.038907
C12   C     C_R   0.437517 0.424761 0.901310 0.095758
C13   C     C_R   0.535004 0.053660 0.405455 0.056334
C14   C     C_R   0.504557 0.926105 0.413262 0.079970
C15   C     C_R   0.491474 0.871843 0.497360 -0.070689
C16   C     C_R   0.506785 0.260052 0.493821 0.861387
C17   C     C_R   0.490607 0.942848 0.575647 -0.185112
C18   C     C_R   0.498644 0.071084 0.572358 -0.183828
C19   C     C_R   0.518883 0.126170 0.488582 -0.082395
C20   C     C_R   0.777448 0.669148 0.623818 -0.105160
C21   C     C_R   0.802983 0.752087 0.686754 -0.320840
C22   C     C_R   0.939369 0.753251 0.689084 -0.223068
C23   C     C_R   0.300953 0.377140 0.950786 0.170418
C24   C     C_R   0.052056 0.671927 0.628507 0.662040
C25   C     C_R   0.031466 0.584244 0.562113 -0.002660
C26   C     C_R   0.887578 0.583973 0.561008 0.019288
C27   C     C_R   0.966672 0.419786 0.441712 0.662262
C28   C     C_R   0.590603 0.501240 0.323997 0.834072
C29   C     C_R   0.109348 0.420176 0.441513 -0.207886
C30   C     C_R   0.358421 0.471375 0.774947 -0.059314
C31   C     C_R   0.646579 0.493108 0.221495 -0.055535
C32   C     C_R   0.197642 0.370322 0.909201 -0.230029
C33   C     C_R   0.228039 0.414393 0.820179 -0.195991
C34   C     C_R   0.546948 0.422325 0.939091 0.008561
C35   C     C_R   0.456958 0.482955 0.818815 -0.244625
C36   C     C_1   0.694761 0.192640 0.290398 0.158866
C37   C     C_1   0.760484 0.400208 0.784790 0.157807
C38   C     C_R   0.504444 0.406439 0.036031 0.047201
C39   C     C_R   0.367425 0.358000 0.084809 -0.212212
C40   C     C_R   0.269391 0.339535 0.041324 -0.223670
C41   C     C_R   0.696699 0.434545 0.884453 -0.021612
C42   C     C_R   0.792204 0.461446 0.928470 -0.281907
F1    F     F_    0.939143 0.336680 0.382247 -0.655817
F2    F     F_    0.177270 0.684436 0.639528 -0.663147
H1    H     H_    0.165979 0.301588 0.080263 0.167619
H2    H     H_    0.443448 0.438335 0.221542 0.161229
H3    H     H_    0.958521 0.818394 0.738750 0.177898
H4    H     H_    0.193622 0.354685 0.393582 0.168221
H5    H     H_    0.862612 0.548822 0.200138 0.169612
H6    H     H_    0.904853 0.475174 0.886460 0.153426
H7    H     H_    0.094993 0.329215 0.944751 0.148213
H8    H     H_    0.151963 0.401656 0.786096 0.161875
H9    H     H_    0.550479 0.537338 0.787142 0.162390
H10   H     H_    0.334975 0.329847 0.155771 0.156156
H11   H     H_    0.947406 0.531558 0.028575 0.152459
H12   H     H_    0.480841 0.898946 0.639666 0.138318
H13   H     H_    0.468407 0.758139 0.339516 0.149577
H14   H     H_    0.518364 0.854669 0.191626 0.150146
H15   H     H_    0.613117 0.065677 0.169751 0.142209
H16   H     H_    0.488872 0.127714 0.635103 0.148417
H17   H     H_    0.668832 0.675065 0.627852 0.207546
H18   H     H_    0.715932 0.815818 0.734264 0.176110
N1    N     N_R   0.856800 0.501200 0.500850 -0.148128
N2    N     N_R   0.142390 0.501280 0.500880 -0.126645
N3    N     N_1   0.786188 0.262064 0.268916 -0.108203
N4    N     N_1   0.811841 0.371381 0.705250 -0.193529
O1    O     O_R   0.385310 0.683220 0.500000 -0.545393
O2    O     O_R   0.614640 0.683250 0.500010 -0.647747
O3    O     O_R   0.319840 0.499980 0.632240 -0.536099
O4    O     O_R   0.549160 0.500000 0.632250 -0.644880
O5    O     O_R   0.385360 0.316750 0.499990 -0.613982
O6    O     O_R   0.614690 0.316780 0.500000 -0.559204
O7    O     O_R   0.450840 0.500000 0.367750 -0.635133
O8    O     O_R   0.680160 0.500020 0.367760 -0.568077
Zn1   Zn    Zn3+2 0.346880 0.499980 0.499990 0.996041
Zn2   Zn    Zn3+2 0.653120 0.500020 0.500010 1.008597

loop_
_geom_bond_atom_site_label_1
_geom_bond_atom_site_label_2
_ccdc_geom_bond_type
C27   C29   A    
C41   C42   A    
C16   O6    A    
O6    Zn2   S    
C28   O8    A    
C4    O4    A    
C33   H8    S    
C16   O5    A    
C12   C23   A    
O8    Zn2   S    
C30   C35   A    
C11   C36   S    
C18   C19   A    
C3    C7    A    
C5    C6    A    
C39   H10   S    
C35   H9    S    
N1    Zn2   S    
C23   C40   A    
C1    O2    A    
C9    H14   S    
C20   H17   S    
C3    C38   A    
C8    C9    A    
O3    Zn1   S    
C1    C15   S    
C9    C10   A    
C22   H3    S    
C29   N2    A    
C13   C14   A    
O7    Zn1   S    
C34   C41   A    
C28   O7    A    
C4    O3    A    
C40   H1    S    
C7    C31   A    
C13   C19   A    
C29   H4    S    
C7    H2    S    
C24   C25   A    
C39   C40   A    
C36   N3    T    
C25   C26   A    
C25   N2    A    
C26   N1    A    
C32   H7    S    
C8    H13   S    
C37   N4    T    
C17   C18   A    
C12   C35   A    
C17   H12   S    
C21   H18   S    
C27   N1    A    
C42   H6    S    
C18   H16   S    
O4    Zn2   S    
C24   F2    S    
C22   C24   A    
C2    C5    A    
O1    Zn1   S    
C12   C34   A    
C15   C17   A    
C8    C14   A    
C30   C33   A    
C34   C38   A    
C5    H11   S    
C28   C31   S    
O2    Zn2   S    
C23   C32   A    
C2    C3    A    
C32   C33   A    
O5    Zn1   S    
C11   C13   A    
C38   C39   A    
C20   C26   A    
C2    C42   A    
C16   C19   S    
C1    O1    A    
N2    Zn1   S    
C6    C31   A    
C6    H5    S    
C37   C41   S    
C10   C11   A    
C27   F1    S    
C20   C21   A    
C14   C15   A    
C21   C22   A    
C10   H15   S    
C4    C30   S    
