data_mof_unit_34090.cif
_audit_creation_date              2012-12-10T16:52:04-0500
_audit_creation_method            fapswitch 2.2
_symmetry_space_group_name_H-M    P1
_symmetry_Int_Tables_number       1
_space_group_crystal_system       triclinic
_cell_length_a                    7.846576
_cell_length_b                    8.599985
_cell_length_c                    14.920497
_cell_angle_alpha                 91.484716
_cell_angle_beta                  84.910162
_cell_angle_gamma                 93.564803
_cell_volume                      1000.72039622

loop_
_atom_site_label
_atom_site_type_symbol
_atom_type_description
_atom_site_fract_x
_atom_site_fract_y
_atom_site_fract_z
_atom_type_partial_charge
C1    C     C_R   0.545398 0.794363 0.497166 0.926360
C2    C     C_R   0.435376 0.640176 0.819131 0.446003
C3    C     C_R   0.490190 0.490998 0.231461 -0.156052
C4    C     C_R   0.509628 0.517513 0.768040 -0.184905
C5    C     C_R   0.433700 0.622287 0.192810 -0.320684
C6    C     C_R   0.595784 0.404524 0.807513 -0.332595
C7    C     C_R   0.434546 0.629406 0.100158 0.121505
C8    C     C_R   0.591579 0.398843 0.899858 0.131893
C9    C     C_R   0.504705 0.508227 0.046414 0.023851
C10   C     C_R   0.512600 0.516503 0.952953 0.007116
C11   C     C_R   0.558440 0.374338 0.086091 0.051376
C12   C     C_R   0.454528 0.205572 0.502379 0.948968
C13   C     C_R   0.437515 0.639661 0.912833 0.025382
C14   C     C_R   0.366697 0.754789 0.060515 -0.226660
C15   C     C_R   0.657757 0.273128 0.939825 -0.226954
C16   C     C_3   0.639010 0.161044 0.252440 0.051127
C17   C     C_3   0.629576 0.984329 0.253975 -0.837841
C18   C     C_3   0.464210 0.858529 0.730911 0.094062
C19   C     C_3   0.553148 0.975144 0.792326 -0.932107
C20   C     C_3   0.956667 0.270369 0.367939 0.133363
C21   C     C_3   0.091142 0.185605 0.308986 -0.813383
C22   C     C_3   0.049382 0.693551 0.647357 0.255572
C23   C     C_R   0.364250 0.757992 0.967452 -0.174008
C24   C     C_3   0.942217 0.802208 0.707587 -0.903794
C25   C     C_R   0.633682 0.256869 0.032247 -0.180471
C26   C     C_2   0.569028 0.957906 0.497332 -0.408026
C27   C     C_2   0.430734 0.041975 0.502259 -0.398869
C28   C     C_R   0.501841 0.504504 0.672745 0.882614
C29   C     C_R   0.496924 0.493050 0.327141 0.885737
C30   C     C_R   0.533503 0.359087 0.178873 0.364750
H1    H     H_    0.385416 0.716702 0.235239 0.169846
H2    H     H_    0.763652 0.201310 0.216231 0.126107
H3    H     H_    0.630046 0.935520 0.184339 0.260051
H4    H     H_    0.741396 0.943805 0.285543 0.215709
H5    H     H_    0.510622 0.942427 0.294204 0.256974
H6    H     H_    0.389791 0.925597 0.687117 0.173488
H7    H     H_    0.561286 0.800390 0.685555 0.137410
H8    H     H_    0.626794 0.914931 0.839726 0.254782
H9    H     H_    0.644599 0.052114 0.750367 0.223330
H10   H     H_    0.457134 0.046385 0.830638 0.269678
H11   H     H_    0.909981 0.361813 0.326668 0.148212
H12   H     H_    0.657547 0.315621 0.765952 0.173333
H13   H     H_    0.855272 0.182536 0.391198 0.153510
H14   H     H_    0.151247 0.100337 0.349131 0.265171
H15   H     H_    0.032152 0.122237 0.252714 0.198926
H16   H     H_    0.191287 0.271324 0.280499 0.288408
H17   H     H_    0.175548 0.754361 0.630262 0.181277
H18   H     H_    0.061841 0.586532 0.686114 0.166776
H19   H     H_    0.822646 0.738124 0.734796 0.252482
H20   H     H_    0.014387 0.844856 0.764994 0.248726
H21   H     H_    0.910347 0.903753 0.669069 0.258027
H22   H     H_    0.312046 0.848229 0.101543 0.170837
H23   H     H_    0.722606 0.184571 0.899565 0.160210
H24   H     H_    0.305746 0.853581 0.938637 0.196288
H25   H     H_    0.678637 0.154676 0.061402 0.173773
H26   H     H_    0.699694 0.008493 0.494415 0.192147
H27   H     H_    0.299930 0.991132 0.505899 0.192498
H28   H     H_    0.628884 0.203264 0.322766 0.175439
N1    N     N_2   0.950330 0.457950 0.475660 0.170261
N2    N     N_2   0.049670 0.542050 0.524340 0.158623
O1    O     O_R   0.389250 0.738570 0.505970 -0.649076
O2    O     O_3   0.348202 0.752581 0.779851 -0.657440
O3    O     O_3   0.031917 0.332486 0.443059 -0.517458
O4    O     O_3   0.967954 0.657845 0.568884 -0.540647
O5    O     O_R   0.610750 0.261430 0.494030 -0.652456
O6    O     O_R   0.678390 0.711620 0.490370 -0.569093
O7    O     O_R   0.321610 0.288380 0.509630 -0.565975
O8    O     O_R   0.355420 0.513510 0.639950 -0.651159
O9    O     O_R   0.644580 0.486490 0.360050 -0.676352
O10   O     O_R   0.644560 0.486560 0.624350 -0.595959
O11   O     O_R   0.355440 0.513440 0.375650 -0.587928
O12   O     O_3   0.497839 0.210707 0.212233 -0.627221
Zn1   Zn    Zn3+2 0.306940 0.517990 0.510420 1.018088
Zn2   Zn    Zn3+2 0.693060 0.482010 0.489580 1.007047

loop_
_geom_bond_atom_site_label_1
_geom_bond_atom_site_label_2
_ccdc_geom_bond_type
C14   C23   A    
O10   Zn2   S    
C3    C30   A    
C30   O12   S    
C14   H22   S    
O7    Zn1   S    
C19   H8    S    
C16   H2    S    
C21   H14   S    
C5    C7    A    
C9    C10   A    
C12   O5    A    
C22   H18   S    
C16   O12   S    
N2    O4    S    
O1    Zn1   S    
C20   O3    S    
C22   H17   S    
N1    N2    D    
C1    O6    A    
C21   H16   S    
C16   H28   S    
C24   H20   S    
C9    C11   A    
N1    Zn2   S    
C18   H6    S    
C26   C27   D    
C17   H3    S    
C24   H21   S    
C6    C8    A    
C2    C4    A    
C15   H23   S    
C4    C6    A    
C28   O8    A    
C18   H7    S    
C20   H11   S    
C8    C15   A    
C21   H15   S    
C19   H10   S    
C29   O11   A    
C27   H27   S    
C1    C26   S    
C12   O7    A    
C22   C24   S    
C15   C25   A    
C17   H4    S    
C11   C25   A    
C12   C27   S    
C22   O4    S    
O6    Zn2   S    
C26   H26   S    
C7    C9    A    
N2    Zn1   S    
O9    Zn2   S    
C20   H13   S    
C20   C21   S    
C13   C23   A    
C23   H24   S    
C8    C10   A    
C18   C19   S    
C6    H12   S    
O11   Zn1   S    
C24   H19   S    
C3    C29   S    
C2    C13   A    
C19   H9    S    
C29   O9    A    
C18   O2    S    
C17   H5    S    
C4    C28   S    
O8    Zn1   S    
C5    H1    S    
N1    O3    S    
C7    C14   A    
C28   O10   A    
O5    Zn2   S    
C25   H25   S    
C11   C30   A    
C2    O2    S    
C16   C17   S    
C3    C5    A    
C10   C13   A    
C1    O1    A    
