data_mof_unit_47069.cif
_audit_creation_date              2012-12-10T16:59:18-0500
_audit_creation_method            fapswitch 2.2
_symmetry_space_group_name_H-M    P1
_symmetry_Int_Tables_number       1
_space_group_crystal_system       triclinic
_cell_length_a                    13.006033
_cell_length_b                    13.147863
_cell_length_c                    17.930399
_cell_angle_alpha                 110.804005
_cell_angle_beta                  73.331295
_cell_angle_gamma                 91.267606
_cell_volume                      2734.86574936

loop_
_atom_site_label
_atom_site_type_symbol
_atom_type_description
_atom_site_fract_x
_atom_site_fract_y
_atom_site_fract_z
_atom_type_partial_charge
C1    C     C_R   0.216726 0.544939 0.529638 0.826880
C2    C     C_R   0.566715 0.385360 0.902198 -0.187149
C3    C     C_R   0.594027 0.308219 0.931717 0.417991
C4    C     C_R   0.782677 0.457314 0.469463 0.759260
C5    C     C_R   0.578256 0.337967 0.018192 -0.033918
C6    C     C_R   0.546610 0.448974 0.072319 -0.033192
C7    C     C_R   0.594736 0.260465 0.052106 -0.049305
C8    C     C_R   0.583339 0.292246 0.136779 -0.230939
C9    C     C_R   0.559096 0.482302 0.153573 0.321740
C10   C     C_2   0.897804 0.446475 0.461881 0.320932
C11   C     C_2   0.952582 0.536355 0.473395 -0.230133
C12   C     C_R   0.414254 0.713838 0.866879 0.359440
C13   C     C_2   0.101703 0.563932 0.537611 0.203617
C14   C     C_2   0.067744 0.533262 0.468309 0.319883
C15   C     C_2   0.536397 0.898170 0.536965 0.256013
C16   C     C_R   0.471226 0.216384 0.474580 0.743169
C17   C     C_2   0.528456 0.933104 0.476906 -0.162048
C18   C     C_2   0.465269 0.098275 0.458815 0.226405
C19   C     C_2   0.525040 0.050209 0.489641 -0.166460
C20   C     C_R   0.528478 0.782925 0.525054 0.804713
C21   C     C_R   0.551076 0.432830 0.276602 0.865157
C22   C     C_R   0.449232 0.567415 0.723735 0.917581
C23   C     C_R   0.450773 0.523501 0.847242 0.272471
C24   C     C_R   0.435707 0.602394 0.814038 -0.214888
C25   C     C_R   0.568640 0.402832 0.187104 -0.066404
C26   C     C_R   0.405403 0.743710 0.951259 -0.200324
C27   C     C_R   0.465089 0.557221 0.927670 0.040844
C28   C     C_R   0.430488 0.666636 0.981954 0.023267
C29   C     C_R   0.509911 0.486412 0.957039 0.025237
C30   C     C_R   0.503002 0.520610 0.043055 0.071469
C31   C     C_R   0.446273 0.622304 0.097670 -0.071918
C32   C     C_R   0.417561 0.696968 0.067028 -0.124375
Cl1   Cl    Cl    0.158633 0.493487 0.366161 -0.489871
Cl2   Cl    Cl    0.536440 0.989373 0.636903 -0.406622
Cl3   Cl    Cl    0.583393 0.618093 0.208090 -0.557861
Cl4   Cl    Cl    0.397487 0.819988 0.831664 -0.437972
Cl5   Cl    Cl    0.420311 0.388084 0.797666 -0.500972
H1    H     H_    0.381693 0.777612 0.110481 0.187981
H2    H     H_    0.016493 0.679666 0.766499 0.400326
H3    H     H_    0.903509 0.157454 0.435546 0.399139
H4    H     H_    0.242588 0.140409 0.445242 0.379512
H5    H     H_    0.788818 0.068777 0.835551 0.408128
H6    H     H_    0.612452 0.174420 0.014699 0.217611
H7    H     H_    0.911500 0.615193 0.487865 0.164746
H8    H     H_    0.572904 0.099427 0.527527 0.221311
H9    H     H_    0.519700 0.874384 0.419010 0.208594
H10   H     H_    0.590162 0.230529 0.162618 0.178588
H11   H     H_    0.382707 0.828337 0.992407 0.201973
H12   H     H_    0.421725 0.645398 0.164615 0.210491
H13   H     H_    0.590294 0.365444 0.835564 0.234964
O1    O     O_3   0.500000 0.500000 0.500000 -0.542740
O2    O     O_R   0.474570 0.394560 0.317400 -0.617436
O3    O     O_R   0.403380 0.624270 0.695980 -0.586247
O4    O     O_R   0.609140 0.497770 0.314440 -0.586392
O5    O     O_R   0.512900 0.483390 0.672170 -0.597860
O6    O     O_2   0.958407 0.729674 0.648083 -0.270041
O7    O     O_2   0.923066 0.547600 0.651930 -0.259372
O8    O     O_3   0.073138 0.645123 0.712432 -0.498173
O9    O     O_2   0.043935 0.277201 0.362204 -0.213198
O10   O     O_2   0.006850 0.326751 0.513207 -0.251530
O11   O     O_3   0.864120 0.226365 0.444317 -0.528870
O12   O     O_R   0.526170 0.271940 0.521690 -0.623886
O13   O     O_2   0.450686 0.952024 0.314636 -0.235717
O14   O     O_2   0.317669 0.951359 0.442242 -0.270160
O15   O     O_3   0.294820 0.106340 0.388875 -0.449834
O16   O     O_2   0.572852 0.094170 0.869516 -0.227210
O17   O     O_2   0.676492 0.174384 0.770088 -0.201801
O18   O     O_3   0.765763 0.145312 0.874166 -0.535680
O19   O     O_R   0.451880 0.756290 0.574830 -0.584193
O20   O     O_R   0.271960 0.460780 0.472050 -0.597114
O21   O     O_R   0.749980 0.510990 0.431420 -0.649602
O22   O     O_R   0.262540 0.611050 0.579000 -0.580584
O23   O     O_R   0.715520 0.417170 0.517520 -0.570989
O24   O     O_R   0.426070 0.262540 0.438550 -0.590194
O25   O     O_R   0.595870 0.709230 0.464930 -0.633807
S1    S     S_3+6 0.009449 0.622968 0.639345 0.060818
S2    S     S_3+6 0.957519 0.316988 0.444995 0.096250
S3    S     S_3+6 0.381069 0.023076 0.399878 0.078256
S4    S     S_3+6 0.651409 0.176934 0.858012 0.088831
Zn1   Zn    Zn3+2 0.562560 0.419520 0.551940 1.086504
Zn2   Zn    Zn3+2 0.419550 0.406100 0.433160 1.091783
Zn3   Zn    Zn3+2 0.611810 0.553570 0.428930 1.052385
Zn4   Zn    Zn3+2 0.406080 0.620810 0.585960 1.122718

loop_
_geom_bond_atom_site_label_1
_geom_bond_atom_site_label_2
_ccdc_geom_bond_type
O6    S1    D    
C27   C29   A    
C3    S4    S    
O9    S2    D    
C14   Cl1   S    
C9    C25   A    
C7    C8    A    
O16   S4    D    
C2    C29   A    
C16   O24   A    
O7    S1    D    
O12   Zn1   S    
C31   H12   S    
C21   O4    A    
C11   C14   S    
C18   C19   D    
O20   Zn2   S    
O1    Zn1   S    
C2    H13   S    
O11   S2    S    
C23   C24   A    
C32   H1    S    
C12   Cl4   S    
O1    Zn2   S    
C15   Cl2   S    
C26   H11   S    
O21   Zn3   S    
O18   S4    S    
C13   C14   D    
H5    O18   S    
C8    C25   A    
C16   O12   A    
C6    C9    A    
C10   S2    S    
C22   O3    A    
C15   C20   S    
O10   S2    D    
C1    O22   A    
O8    S1    S    
C28   C32   A    
O17   S4    D    
C17   H9    S    
C5    C7    A    
H4    O15   S    
C23   Cl5   S    
H2    O8    S    
H3    O11   S    
C20   O25   A    
C12   C26   A    
C29   C30   A    
O19   Zn4   S    
C31   C32   A    
C13   S1    S    
C30   C31   A    
C18   S3    S    
C11   H7    S    
O1    Zn3   S    
C4    O23   A    
C6    C30   A    
C23   C27   A    
C22   C24   S    
C20   O19   A    
C1    C13   S    
O24   Zn2   S    
C4    C10   S    
O1    Zn4   S    
O4    Zn3   S    
C7    H6    S    
C15   C17   D    
C21   C25   S    
O15   S3    S    
O14   S3    D    
C3    C5    A    
C19   H8    S    
O25   Zn3   S    
C22   O5    A    
C12   C24   A    
C26   C28   A    
C1    O20   A    
O3    Zn4   S    
C2    C3    A    
C8    H10   S    
O5    Zn1   S    
C5    C6    A    
C17   C19   S    
O23   Zn1   S    
C4    O21   A    
O2    Zn2   S    
O22   Zn4   S    
C10   C11   D    
C16   C18   S    
C27   C28   A    
C9    Cl3   S    
C21   O2    A    
O13   S3    D    
