data_mof_unit_17937.cif
_audit_creation_date              2012-12-10T20:27:58-0500
_audit_creation_method            fapswitch 2.2
_symmetry_space_group_name_H-M    P1
_symmetry_Int_Tables_number       1
_space_group_crystal_system       triclinic
_cell_length_a                    12.87283
_cell_length_b                    10.656072
_cell_length_c                    9.856478
_cell_angle_alpha                 89.799638
_cell_angle_beta                  97.155201
_cell_angle_gamma                 90.090172
_cell_volume                      1341.51225329

loop_
_atom_site_label
_atom_site_type_symbol
_atom_type_description
_atom_site_fract_x
_atom_site_fract_y
_atom_site_fract_z
_atom_type_partial_charge
C1    C     C_R   0.507807 0.260323 0.501494 0.941263
C2    C     C_R   0.567003 0.933850 0.400508 0.560690
C3    C     C_R   0.522209 0.871542 0.505037 -0.268612
C4    C     C_R   0.298139 0.500459 0.473239 0.873951
C5    C     C_R   0.504434 0.936302 0.621756 0.070369
C6    C     C_3   0.413644 0.931254 0.702437 -0.439517
C7    C     C_3   0.417722 0.073454 0.704252 -0.454284
C8    C     C_R   0.448951 0.407737 0.063408 0.239905
C9    C     C_R   0.558448 0.583873 0.081191 -0.090660
C10   C     C_R   0.558380 0.583976 0.937137 -0.139747
C11   C     C_R   0.448854 0.407769 0.920733 0.220113
C12   C     C_R   0.028711 0.521503 0.561436 0.187228
C13   C     C_3   0.334462 0.380064 0.897075 -0.502678
C14   C     C_3   0.334779 0.379954 0.050988 -0.524929
C15   C     C_R   0.503802 0.740135 0.500426 0.933630
C16   C     C_R   0.701842 0.499598 0.526788 0.913156
C17   C     C_R   0.813949 0.501188 0.542985 -0.048438
C18   C     C_R   0.185975 0.498948 0.457141 -0.046576
C19   C     C_R   0.021376 0.448535 0.325477 -0.204066
C20   C     C_R   0.129188 0.458075 0.334914 -0.203805
C21   C     C_R   0.135699 0.532851 0.568927 -0.280075
C22   C     C_2   0.623059 0.129701 0.293057 1.013197
C23   C     C_R   0.971173 0.479104 0.438671 0.169191
C24   C     C_R   0.864147 0.468659 0.430708 -0.230138
C25   C     C_R   0.870724 0.540581 0.665903 -0.202718
C26   C     C_R   0.978534 0.551049 0.675029 -0.213157
C27   C     C_R   0.508143 0.063673 0.623045 0.145571
C28   C     C_R   0.530571 0.129318 0.507881 -0.278382
C29   C     C_R   0.573501 0.064771 0.402099 -0.186026
F1    F     F_    0.602884 0.868284 0.297806 -0.646092
H1    H     H_    0.819905 0.436592 0.336235 0.188516
H2    H     H_    0.318533 0.286168 0.093400 0.208790
H3    H     H_    0.831753 0.566089 0.753099 0.163280
H4    H     H_    0.977622 0.415999 0.231027 0.147046
H5    H     H_    0.022350 0.582944 0.769715 0.141889
H6    H     H_    0.168012 0.430683 0.248480 0.154619
H7    H     H_    0.179831 0.566838 0.662510 0.149463
H8    H     H_    0.341546 0.893012 0.642827 0.193863
H9    H     H_    0.642508 0.139328 0.093288 0.327132
H10   H     H_    0.435007 0.888208 0.805014 0.223347
H11   H     H_    0.347785 0.118224 0.646121 0.192521
H12   H     H_    0.441677 0.112338 0.807968 0.215119
H13   H     H_    0.604121 0.653000 0.142717 0.208890
H14   H     H_    0.603837 0.653341 0.889851 0.159522
H15   H     H_    0.288214 0.458492 0.845702 0.216740
H16   H     H_    0.317569 0.286427 0.850270 0.201960
H17   H     H_    0.289109 0.458694 0.087320 0.212642
N1    N     N_R   0.499290 0.499140 0.142710 -0.116769
N2    N     N_R   0.499290 0.499180 0.857070 -0.113122
O1    O     O_R   0.500010 0.316790 0.614690 -0.614900
O2    O     O_R   0.604562 0.087311 0.158080 -0.758409
O3    O     O_R   0.500000 0.316760 0.385350 -0.608874
O4    O     O_R   0.346360 0.499990 0.595720 -0.627684
O5    O     O_R   0.346350 0.499960 0.366370 -0.630747
O6    O     O_R   0.500000 0.683240 0.614650 -0.629458
O7    O     O_R   0.499990 0.683210 0.385310 -0.564998
O8    O     O_R   0.653650 0.500040 0.633630 -0.636135
O9    O     O_R   0.653640 0.500010 0.404280 -0.598285
O10   O     O_2   0.681663 0.218740 0.321652 -0.655151
Zn1   Zn    Zn3+2 0.500010 0.500020 0.653130 0.946158
Zn2   Zn    Zn3+2 0.499990 0.499980 0.346870 0.994674

loop_
_geom_bond_atom_site_label_1
_geom_bond_atom_site_label_2
_ccdc_geom_bond_type
C21   H7    S    
C1    C28   S    
H9    O2    S    
C23   C24   A    
C8    N1    A    
C4    C18   S    
C6    C7    S    
C11   N2    A    
O5    Zn2   S    
C4    O4    A    
C18   C21   A    
C9    C10   A    
C5    C27   A    
C19   C23   A    
C19   C20   A    
C2    F1    S    
C16   O8    A    
O1    Zn1   S    
C15   O7    A    
O9    Zn2   S    
C6    H8    S    
C2    C3    A    
C24   H1    S    
C3    C15   S    
O7    Zn2   S    
C16   O9    A    
C13   C14   S    
C13   H15   S    
C11   C13   S    
C12   C23   A    
N1    Zn2   S    
C14   H17   S    
N2    Zn1   S    
C8    C11   A    
C28   C29   A    
C22   C29   S    
O4    Zn1   S    
C18   C20   A    
O3    Zn2   S    
C2    C29   A    
C12   C26   A    
C5    C6    S    
C1    O3    A    
C6    H10   S    
C9    H13   S    
C17   C24   A    
C16   C17   S    
C10   H14   S    
C20   H6    S    
C26   H5    S    
C27   C28   A    
C7    C27   S    
C9    N1    A    
C1    O1    A    
C7    H12   S    
C14   H2    S    
C22   O10   D    
C13   H16   S    
C22   O2    S    
O8    Zn1   S    
C8    C14   S    
C4    O5    A    
C25   C26   A    
O6    Zn1   S    
C10   N2    A    
C12   C21   A    
C7    H11   S    
C25   H3    S    
C17   C25   A    
C3    C5    A    
C19   H4    S    
C15   O6    A    
