data_mof_unit_50198.cif
_audit_creation_date              2012-12-11T15:26:00-0500
_audit_creation_method            fapswitch 2.2
_symmetry_space_group_name_H-M    P1
_symmetry_Int_Tables_number       1
_space_group_crystal_system       triclinic
_cell_length_a                    24.940899
_cell_length_b                    17.372373
_cell_length_c                    15.679461
_cell_angle_alpha                 90.000633
_cell_angle_beta                  50.496842
_cell_angle_gamma                 90.0
_cell_volume                      5241.89962264

loop_
_atom_site_label
_atom_site_type_symbol
_atom_type_description
_atom_site_fract_x
_atom_site_fract_y
_atom_site_fract_z
_atom_type_partial_charge
C1    C     C_R   0.336542 0.116115 0.794510 -0.115068
C2    C     C_2   0.301758 0.857058 0.982840 -0.237276
C3    C     C_1   0.599299 0.332467 0.592299 0.042126
C4    C     C_1   0.132656 0.215868 0.591595 0.027963
C5    C     C_1   0.865191 0.784756 0.408516 0.027393
C6    C     C_1   0.867357 0.215867 0.408376 0.027963
C7    C     C_1   0.134811 0.784755 0.591477 0.027390
C8    C     C_3   0.189077 0.904076 0.034104 -1.054334
C9    C     C_3   0.782042 0.096512 0.945341 -1.036647
C10   C     C_3   0.810995 0.904070 0.965877 -1.054512
C11   C     C_3   0.217999 0.096529 0.054651 -1.036745
C12   C     C_3   0.767012 0.318967 0.004217 -1.000279
C13   C     C_2   0.317863 0.186252 0.951570 -0.243219
C14   C     C_3   0.255300 0.699485 0.012572 -1.005542
C15   C     C_3   0.232963 0.318979 0.995774 -1.000223
C16   C     C_3   0.744438 0.699666 0.987267 -1.005878
C17   C     C_2   0.698284 0.857338 0.017021 -0.237107
C18   C     C_2   0.138969 0.757719 0.162189 -0.249720
C19   C     C_2   0.860461 0.243196 0.838564 -0.243508
C20   C     C_2   0.860968 0.757668 0.837994 -0.249612
C21   C     C_2   0.139538 0.243194 0.161435 -0.243451
C22   C     C_2   0.751188 0.176401 0.976892 0.291451
C23   C     C_2   0.234062 0.845508 0.034019 0.307495
C24   C     C_2   0.248828 0.176428 0.023086 0.291474
C25   C     C_R   0.666938 0.894012 0.199677 -0.118732
C26   C     C_2   0.765953 0.845632 0.965897 0.307492
C27   C     C_2   0.206639 0.767626 0.076162 0.287121
C28   C     C_2   0.795901 0.245225 0.935902 0.285639
C29   C     C_2   0.793264 0.767706 0.923791 0.287233
C30   C     C_2   0.204097 0.245238 0.064091 0.285626
C31   C     C_R   0.595875 0.137181 0.591460 0.332464
C32   C     C_R   0.407229 0.859986 0.408218 0.336054
C33   C     C_R   0.404131 0.137190 0.408542 0.332462
C34   C     C_R   0.592781 0.859992 0.591777 0.336048
C35   C     C_R   0.112091 0.609360 0.591565 0.323141
C36   C     C_R   0.663463 0.116099 0.205475 -0.115086
C37   C     C_R   0.887886 0.391022 0.408400 0.322114
C38   C     C_R   0.887908 0.609359 0.408437 0.323099
C39   C     C_R   0.112116 0.391026 0.591599 0.322118
C40   C     C_R   0.665457 0.139981 0.406429 -0.207115
C41   C     C_R   0.336341 0.858508 0.593357 -0.209317
C42   C     C_R   0.334544 0.139983 0.593573 -0.207115
C43   C     C_R   0.663657 0.858505 0.406638 -0.209314
C44   C     C_R   0.185342 0.610832 0.407433 -0.222854
C45   C     C_R   0.814691 0.389258 0.592592 -0.221592
C46   C     C_R   0.814659 0.610838 0.592569 -0.222831
C47   C     C_R   0.333075 0.893959 0.800288 -0.118790
C48   C     C_R   0.185311 0.389262 0.407408 -0.221598
C49   C     C_R   0.574551 0.115300 0.204172 -0.138026
C50   C     C_R   0.419111 0.899276 0.807256 -0.135564
C51   C     C_R   0.425457 0.115322 0.795809 -0.138035
C52   C     C_R   0.580904 0.899349 0.192712 -0.135580
C53   C     C_R   0.057192 0.643641 0.248090 -0.153576
C54   C     C_R   0.944028 0.355527 0.749224 -0.146858
C55   C     C_R   0.942764 0.643605 0.752019 -0.153585
C56   C     C_R   0.055970 0.355525 0.250780 -0.146858
C57   C     C_R   0.358861 0.141228 0.850781 0.138553
C58   C     C_R   0.852817 0.642479 0.752261 -0.101978
C59   C     C_R   0.650601 0.882277 0.132099 0.130922
C60   C     C_R   0.641151 0.141196 0.149190 0.138536
C61   C     C_R   0.349423 0.882160 0.867842 0.130987
C62   C     C_R   0.885427 0.684186 0.782194 0.146550
C63   C     C_R   0.111801 0.313708 0.224104 0.138986
C64   C     C_R   0.114496 0.684246 0.217998 0.146556
C65   C     C_R   0.888194 0.313714 0.775909 0.139038
C66   C     C_R   0.646261 0.179127 0.498036 0.026153
C67   C     C_R   0.356517 0.818089 0.501794 0.026370
C68   C     C_R   0.353743 0.179135 0.501969 0.026156
C69   C     C_R   0.145899 0.356380 0.250511 -0.100184
C70   C     C_R   0.643486 0.818089 0.498199 0.026362
C71   C     C_R   0.176193 0.632890 0.499449 0.031867
C72   C     C_R   0.823894 0.367562 0.500494 0.031224
C73   C     C_R   0.823807 0.632895 0.500554 0.031877
C74   C     C_R   0.176110 0.367569 0.499504 0.031226
C75   C     C_R   0.242805 0.203918 0.553511 -0.256792
C76   C     C_R   0.754736 0.794699 0.447068 -0.252761
C77   C     C_R   0.757201 0.203912 0.446481 -0.256797
C78   C     C_R   0.245270 0.794703 0.552912 -0.252730
C79   C     C_R   0.711884 0.648949 0.545588 -0.259055
C80   C     C_R   0.147144 0.642512 0.247833 -0.101732
C81   C     C_R   0.287509 0.349497 0.454388 -0.257439
C82   C     C_R   0.288116 0.648943 0.454419 -0.259063
C83   C     C_R   0.712493 0.349488 0.545623 -0.257437
C84   C     C_R   0.666788 0.693093 0.543022 0.064906
C85   C     C_R   0.332021 0.304347 0.456890 0.067775
C86   C     C_R   0.333213 0.693089 0.456978 0.064863
C87   C     C_R   0.667979 0.304336 0.543126 0.067779
C88   C     C_R   0.199052 0.247940 0.549556 0.064585
C89   C     C_R   0.799106 0.751604 0.450749 0.064586
C90   C     C_R   0.800956 0.247936 0.450430 0.064589
C91   C     C_R   0.854097 0.356384 0.749497 -0.100207
C92   C     C_R   0.200897 0.751604 0.549242 0.064589
C93   C     C_R   0.689177 0.765777 0.493018 0.070757
C94   C     C_R   0.308624 0.231876 0.507231 0.074886
C95   C     C_R   0.310827 0.765778 0.506968 0.070730
C96   C     C_R   0.691379 0.231867 0.492776 0.074905
C97   C     C_R   0.221786 0.321001 0.500769 0.080659
C98   C     C_R   0.777339 0.678455 0.499393 0.079762
C99   C     C_R   0.778219 0.320995 0.499227 0.080661
C100  C     C_R   0.222662 0.678451 0.500609 0.079764
C101  C     C_3   0.583917 0.138654 0.697986 -1.056156
C102  C     C_2   0.682151 0.186206 0.048387 -0.243207
C103  C     C_3   0.425260 0.853191 0.297355 -1.051154
C104  C     C_3   0.416101 0.138680 0.302006 -1.056100
C105  C     C_3   0.574786 0.853220 0.702616 -1.051159
C106  C     C_3   0.090961 0.599979 0.704392 -1.053798
C107  C     C_3   0.909007 0.400556 0.295588 -1.053889
C108  C     C_3   0.909040 0.599979 0.295608 -1.053803
C109  C     C_3   0.090993 0.400557 0.704413 -1.053895
C110  C     C_1   0.598539 0.663730 0.591833 0.049377
C111  C     C_1   0.400697 0.332482 0.407733 0.042141
C112  C     C_1   0.401459 0.663722 0.408178 0.049429
H1    H     H_    0.284163 0.118618 0.822918 0.107909
H2    H     H_    0.293361 0.845470 0.678619 0.126094
H3    H     H_    0.291159 0.152496 0.678773 0.123899
H4    H     H_    0.706630 0.845463 0.321373 0.126106
H5    H     H_    0.232998 0.612386 0.322725 0.119186
H6    H     H_    0.767135 0.387320 0.677373 0.119815
H7    H     H_    0.767004 0.612395 0.677278 0.119186
H8    H     H_    0.232867 0.387325 0.322626 0.119815
H9    H     H_    0.548611 0.114480 0.169842 0.122201
H10   H     H_    0.443931 0.907293 0.843075 0.113219
H11   H     H_    0.451402 0.114521 0.830131 0.122219
H12   H     H_    0.717458 0.892402 0.177900 0.116063
H13   H     H_    0.556081 0.907413 0.156904 0.113188
H14   H     H_    0.021002 0.663026 0.237309 0.137489
H15   H     H_    0.979650 0.336793 0.761532 0.138865
H16   H     H_    0.978947 0.662985 0.762819 0.137438
H17   H     H_    0.020352 0.336794 0.238464 0.138873
H18   H     H_    0.226892 0.146411 0.588559 0.142046
H19   H     H_    0.770069 0.852300 0.412257 0.141778
H20   H     H_    0.773116 0.146407 0.411425 0.142044
H21   H     H_    0.229939 0.852306 0.587715 0.141773
H22   H     H_    0.696568 0.592119 0.582825 0.134373
H23   H     H_    0.715842 0.118600 0.177071 0.107919
H24   H     H_    0.303474 0.406276 0.417015 0.133947
H25   H     H_    0.303429 0.592109 0.417191 0.134375
H26   H     H_    0.696526 0.406265 0.583004 0.133948
H27   H     H_    0.326547 0.822031 0.006524 0.123074
H28   H     H_    0.659047 0.240814 0.053572 0.130458
H29   H     H_    0.673485 0.822469 0.993218 0.123020
H30   H     H_    0.340961 0.240868 0.946368 0.130451
H31   H     H_    0.884725 0.190260 0.792867 0.135249
H32   H     H_    0.102392 0.805226 0.198942 0.137177
H33   H     H_    0.115288 0.190253 0.207129 0.135240
H34   H     H_    0.282555 0.892320 0.822066 0.116086
H35   H     H_    0.897627 0.805089 0.801425 0.137196
H36   H     H_    0.561595 0.083118 0.742315 0.245823
H37   H     H_    0.634074 0.146000 0.681254 0.261731
H38   H     H_    0.549642 0.187677 0.749588 0.252245
H39   H     H_    0.440845 0.910166 0.256022 0.245183
H40   H     H_    0.467335 0.810234 0.246282 0.254927
H41   H     H_    0.379365 0.834193 0.306447 0.258880
H42   H     H_    0.438399 0.083135 0.257688 0.245815
H43   H     H_    0.365951 0.146069 0.318720 0.261720
H44   H     H_    0.450403 0.187689 0.250403 0.252237
H45   H     H_    0.807291 0.658929 0.762686 0.111089
H46   H     H_    0.559146 0.910188 0.743980 0.245178
H47   H     H_    0.532763 0.810207 0.753684 0.254911
H48   H     H_    0.620718 0.834308 0.693474 0.258882
H49   H     H_    0.042494 0.565958 0.758608 0.254387
H50   H     H_    0.132679 0.569810 0.697775 0.263461
H51   H     H_    0.082758 0.657210 0.742383 0.251800
H52   H     H_    0.957641 0.434300 0.241288 0.253918
H53   H     H_    0.916928 0.343371 0.257657 0.252207
H54   H     H_    0.867400 0.431063 0.302250 0.263580
H55   H     H_    0.957514 0.565970 0.241387 0.254387
H56   H     H_    0.192596 0.340490 0.236983 0.103894
H57   H     H_    0.867328 0.569800 0.302219 0.263470
H58   H     H_    0.917233 0.657209 0.257626 0.251806
H59   H     H_    0.042355 0.434297 0.758715 0.253912
H60   H     H_    0.083075 0.343371 0.742337 0.252209
H61   H     H_    0.132595 0.431067 0.697756 0.263583
H62   H     H_    0.147892 0.925019 0.119517 0.258862
H63   H     H_    0.218813 0.954676 0.982685 0.263116
H64   H     H_    0.164448 0.877449 0.002156 0.250142
H65   H     H_    0.814611 0.087946 0.854830 0.251541
H66   H     H_    0.814069 0.087941 0.971041 0.250712
H67   H     H_    0.192674 0.658965 0.237394 0.110850
H68   H     H_    0.740588 0.052225 0.983918 0.270678
H69   H     H_    0.852220 0.925004 0.880474 0.258900
H70   H     H_    0.781317 0.954690 0.017305 0.263123
H71   H     H_    0.835568 0.877334 0.997854 0.250133
H72   H     H_    0.185425 0.087974 0.145162 0.251537
H73   H     H_    0.185987 0.087911 0.028935 0.250749
H74   H     H_    0.259467 0.052263 0.016098 0.270649
H75   H     H_    0.735710 0.305079 0.093388 0.248709
H76   H     H_    0.808973 0.358446 0.983035 0.263706
H77   H     H_    0.733788 0.349464 0.990845 0.240821
H78   H     H_    0.807399 0.340495 0.763027 0.103890
H79   H     H_    0.293114 0.712894 0.922873 0.253428
H80   H     H_    0.284527 0.686579 0.042315 0.236366
H81   H     H_    0.226964 0.647253 0.019873 0.263296
H82   H     H_    0.264209 0.305084 0.906617 0.248707
H83   H     H_    0.190994 0.358480 0.017025 0.263694
H84   H     H_    0.266237 0.349462 0.009057 0.240804
H85   H     H_    0.706722 0.713014 0.076987 0.253524
H86   H     H_    0.715121 0.687100 0.957593 0.236344
H87   H     H_    0.772617 0.647234 0.979836 0.263288
H88   H     H_    0.708841 0.152494 0.321229 0.123903
N1    N     N_R   0.388930 0.078160 0.705470 -0.043732
N2    N     N_R   0.419500 0.922160 0.443350 -0.059793
N3    N     N_R   0.419500 0.077840 0.443350 -0.059330
N4    N     N_R   0.580500 0.922160 0.556650 -0.059788
N5    N     N_R   0.080500 0.577840 0.556650 -0.055775
N6    N     N_R   0.919500 0.422160 0.443350 -0.056100
N7    N     N_R   0.919500 0.577840 0.443350 -0.055776
N8    N     N_R   0.080500 0.422160 0.556650 -0.056103
N9    N     N_R   0.626210 0.077590 0.443410 -0.054245
N10   N     N_R   0.373790 0.922410 0.556590 -0.055391
N11   N     N_R   0.373790 0.077590 0.556590 -0.054246
N12   N     N_R   0.611070 0.921840 0.294530 -0.043929
N13   N     N_R   0.626210 0.922410 0.443410 -0.055392
N14   N     N_R   0.126210 0.577590 0.443410 -0.050743
N15   N     N_R   0.873790 0.422410 0.556590 -0.050853
N16   N     N_R   0.873790 0.577590 0.556590 -0.050734
N17   N     N_R   0.126210 0.422410 0.443410 -0.050855
N18   N     N_R   0.554800 0.077270 0.294580 -0.043302
N19   N     N_R   0.445200 0.922730 0.705420 -0.040411
N20   N     N_R   0.445200 0.077270 0.705420 -0.043310
N21   N     N_R   0.554800 0.922730 0.294580 -0.040396
N22   N     N_R   0.054800 0.577270 0.294580 -0.046417
N23   N     N_R   0.611070 0.078160 0.294530 -0.043730
N24   N     N_R   0.945200 0.422730 0.705420 -0.047419
N25   N     N_R   0.945200 0.577270 0.705420 -0.046390
N26   N     N_R   0.054800 0.422730 0.294580 -0.047421
N27   N     N_1   0.543825 0.640288 0.630983 -0.079786
N28   N     N_1   0.455743 0.354918 0.368311 -0.080959
N29   N     N_1   0.456172 0.640276 0.369038 -0.079773
N30   N     N_1   0.544250 0.354899 0.631733 -0.080963
N31   N     N_1   0.079582 0.190322 0.625192 -0.089931
N32   N     N_1   0.918026 0.811157 0.374747 -0.091905
N33   N     N_1   0.920434 0.190324 0.374766 -0.089929
N34   N     N_R   0.388930 0.921840 0.705470 -0.043921
N35   N     N_1   0.081975 0.811155 0.625248 -0.091914
N36   N     N_R   0.888930 0.578160 0.705470 -0.046797
N37   N     N_R   0.111070 0.421840 0.294530 -0.045888
N38   N     N_R   0.111070 0.578160 0.294530 -0.046801
N39   N     N_R   0.888930 0.421840 0.705470 -0.045888
N40   N     N_R   0.580500 0.077840 0.556650 -0.059323
Ni1   Ni    Ni4+2 0.382710 0.000000 0.629850 0.201512
Ni2   Ni    Ni4+2 0.617290 1.000000 0.370150 0.201506
Ni3   Ni    Ni4+2 0.882710 0.500000 0.629850 0.206351
Ni4   Ni    Ni4+2 0.117290 0.500000 0.370150 0.206349
Ni5   Ni    Ni4+2 0.513020 0.000000 0.629850 0.208199
Ni6   Ni    Ni4+2 0.486980 1.000000 0.370150 0.208192
Ni7   Ni    Ni4+2 0.013020 0.500000 0.629850 0.210872
Ni8   Ni    Ni4+2 0.986980 0.500000 0.370150 0.210859

loop_
_geom_bond_atom_site_label_1
_geom_bond_atom_site_label_2
_ccdc_geom_bond_type
N6    N15   A    
N25   Ni7   S    
C31   C66   A    
C83   C87   A    
N20   Ni5   S    
C107  H53   S    
C101  H36   S    
C58   C62   A    
C108  H58   S    
C33   C104  S    
C51   H11   S    
C37   N6    A    
C50   N19   A    
C79   C98   A    
N6    Ni8   S    
C50   H10   S    
N9    N40   A    
C41   H2    S    
C31   N40   A    
C1    N1    A    
N7    Ni8   S    
C15   H84   S    
C8    H63   S    
C16   H86   S    
N18   N23   A    
C41   C67   A    
C54   C65   A    
C12   H77   S    
N22   N38   A    
C49   C60   A    
C20   C29   D    
C12   C28   S    
C44   N14   A    
C17   C26   D    
N18   Ni6   S    
N36   Ni3   S    
N14   Ni4   S    
N13   Ni2   S    
C37   C107  S    
C82   H25   S    
C58   N36   A    
C110  N27   T    
C13   H30   S    
C79   C84   A    
C43   H4    S    
C76   H19   S    
C8    H62   S    
C9    C22   S    
C106  H49   S    
C105  H48   S    
C13   C57   S    
N21   Ni6   S    
N23   Ni2   S    
N4    N13   A    
C11   H74   S    
C55   C62   A    
N38   Ni4   S    
C101  H38   S    
C8    C23   S    
N1    Ni1   S    
C44   C71   A    
C17   H29   S    
C6    N33   T    
C39   C74   A    
C80   N38   A    
N11   Ni1   S    
N12   Ni2   S    
C45   N15   A    
C15   H82   S    
N22   Ni8   S    
C103  H41   S    
C63   C69   A    
C34   N4    A    
C88   C97   A    
N19   Ni5   S    
C26   C29   S    
C51   C57   A    
C23   C27   S    
C14   C27   S    
C34   C70   A    
N4    Ni5   S    
C2    C61   S    
C103  H39   S    
C76   C89   A    
N12   N21   A    
C47   N34   A    
C14   H80   S    
C10   C26   S    
N16   Ni3   S    
C106  H50   S    
C47   H34   S    
C35   C71   A    
C52   N21   A    
C58   H45   S    
N26   N37   A    
C83   C99   A    
C108  H57   S    
C87   C96   A    
C45   C72   A    
C67   C95   S    
C10   H71   S    
C64   C80   A    
N19   N34   A    
N3    N11   A    
C1    H1    S    
N2    N10   A    
C60   C102  S    
C3    N30   T    
N24   N39   A    
C35   N5    A    
C74   C97   S    
C24   C30   S    
C48   N17   A    
C45   H6    S    
C5    C89   S    
C73   C98   S    
N2    Ni6   S    
C91   H78   S    
C7    N35   T    
C77   C90   A    
C56   C63   A    
C38   N7    A    
C18   C27   D    
C3    C87   S    
C4    N31   T    
C48   C74   A    
C70   C93   S    
C5    N32   T    
C48   H8    S    
C15   C30   S    
C38   C108  S    
C83   H26   S    
C40   H88   S    
C78   C92   A    
C53   N22   A    
C82   C86   A    
C12   H75   S    
C40   C66   A    
C40   N9    A    
C33   N3    A    
C84   C110  S    
C112  N29   T    
C13   C24   D    
C54   H15   S    
C77   H20   S    
C21   H33   S    
C25   N12   A    
C86   C112  S    
C80   H67   S    
C20   C62   S    
C52   C59   A    
C1    C57   A    
C76   C93   A    
C85   C94   A    
C42   H3    S    
N24   Ni7   S    
C54   N24   A    
C105  H46   S    
C42   N11   A    
C78   C95   A    
C49   H9    S    
C39   N8    A    
C20   H35   S    
C102  H28   S    
C106  H51   S    
C104  H44   S    
C32   C103  S    
C19   C28   D    
C9    H68   S    
C36   N23   A    
C25   H12   S    
C16   H87   S    
C103  H40   S    
C17   C59   S    
C32   C67   A    
C41   N10   A    
C11   C24   S    
C108  H55   S    
N5    N14   A    
C43   C70   A    
C46   N16   A    
N40   Ni5   S    
C10   H70   S    
C2    H27   S    
C43   N13   A    
C36   H23   S    
C31   C101  S    
C90   C99   A    
C9    H65   S    
C92   C100  A    
C81   H24   S    
C66   C96   S    
C21   C30   D    
N8    N17   A    
C65   C91   A    
C79   H22   S    
C19   H31   S    
N37   Ni4   S    
C11   H73   S    
N25   N36   A    
C82   C100  A    
C50   C61   A    
C14   H81   S    
C111  N28   T    
C11   H72   S    
C56   H17   S    
N10   Ni1   S    
C85   C111  S    
C75   H18   S    
N9    Ni2   S    
C47   C61   A    
N39   Ni3   S    
C52   H13   S    
C8    H64   S    
N26   Ni8   S    
C4    C88   S    
C51   N20   A    
C71   C100  S    
C49   N18   A    
C77   C96   A    
N15   Ni3   S    
C22   C102  D    
N5    Ni7   S    
C56   N26   A    
C89   C98   A    
C104  H42   S    
C55   N25   A    
C18   H32   S    
C16   C29   S    
N17   Ni4   S    
C15   H83   S    
C35   C106  S    
C6    C90   S    
C107  H52   S    
C18   C64   S    
C105  H47   S    
N3    Ni6   S    
C81   C97   A    
C44   H5    S    
C107  H54   S    
C7    C92   S    
C34   C105  S    
C101  H37   S    
N7    N16   A    
C53   C64   A    
N8    Ni7   S    
C46   H7    S    
C19   C65   S    
C109  H61   S    
C84   C93   A    
C42   C68   A    
C104  H43   S    
C32   N2    A    
C78   H21   S    
C68   C94   S    
C21   C63   S    
C69   H56   S    
C53   H14   S    
C16   H85   S    
N34   Ni1   S    
C75   C88   A    
C39   C109  S    
C55   H16   S    
C33   C68   A    
C109  H60   S    
C37   C72   A    
C91   N39   A    
C2    C23   D    
C10   H69   S    
C36   C60   A    
C14   H79   S    
C22   C28   S    
C25   C59   A    
C86   C95   A    
C69   N37   A    
C72   C99   S    
C46   C73   A    
C81   C85   A    
C9    H66   S    
C109  H59   S    
C75   C94   A    
N1    N20   A    
C38   C73   A    
C12   H76   S    
