data_mof_unit_63539.cif
_audit_creation_date              2012-12-10T20:01:11-0500
_audit_creation_method            fapswitch 2.2
_symmetry_space_group_name_H-M    P1
_symmetry_Int_Tables_number       1
_space_group_crystal_system       triclinic
_cell_length_a                    32.127599
_cell_length_b                    32.126983
_cell_length_c                    23.562843
_cell_angle_alpha                 90.040659
_cell_angle_beta                  90.045871
_cell_angle_gamma                 90.0703
_cell_volume                      24320.6583991

loop_
_atom_site_label
_atom_site_type_symbol
_atom_type_description
_atom_site_fract_x
_atom_site_fract_y
_atom_site_fract_z
_atom_type_partial_charge
C1    C     C_R   0.999965 0.419348 0.499931 0.908290
C2    C     C_1   0.161812 0.999623 0.500800 -0.015383
C3    C     C_R   0.728103 0.962185 0.491277 0.115683
C4    C     C_R   0.012186 0.271975 0.549672 0.116944
C5    C     C_R   0.728325 0.037948 0.507850 0.115648
C6    C     C_R   0.982698 0.728138 0.546535 0.116199
C7    C     C_R   0.271818 0.961390 0.503374 0.115718
C8    C     C_R   0.461980 0.771685 0.992884 0.115667
C9    C     C_R   0.771564 0.516155 0.951945 0.114527
C10   C     C_R   0.539062 0.228427 0.999443 0.115575
C11   C     C_R   0.228004 0.488445 0.950033 0.116968
C12   C     C_R   0.537917 0.771867 0.007913 0.115640
C13   C     C_1   0.999252 0.838148 0.499484 -0.018426
C14   C     C_R   0.228231 0.515947 0.047681 0.116315
C15   C     C_R   0.462321 0.228088 0.996781 0.113928
C16   C     C_R   0.772058 0.486642 0.048493 0.114967
C17   C     C_R   0.998524 0.293340 0.500742 0.089591
C18   C     C_R   0.293276 0.999772 0.501444 0.089066
C19   C     C_R   0.999184 0.706668 0.499335 0.089692
C20   C     C_R   0.706729 0.000090 0.499658 0.088691
C21   C     C_R   0.499932 0.793262 0.000328 0.088682
C22   C     C_R   0.793381 0.501037 0.999832 0.098204
C23   C     C_R   0.500733 0.206677 0.998450 0.097332
C24   C     C_1   0.838195 0.999897 0.499756 -0.017964
C25   C     C_R   0.206657 0.501547 0.999257 0.089666
C26   C     C_3   0.025981 0.296702 0.601345 -0.894834
C27   C     C_3   0.296415 0.921130 0.506518 -0.891692
C28   C     C_3   0.965075 0.703586 0.596062 -0.895310
C29   C     C_3   0.703923 0.077732 0.517751 -0.889429
C30   C     C_3   0.967788 0.296237 0.401867 -0.896146
C31   C     C_3   0.703446 0.922510 0.481177 -0.889246
C32   C     C_3   0.030463 0.703525 0.400870 -0.895594
C33   C     C_3   0.296285 0.078526 0.500378 -0.890950
C34   C     C_3   0.577711 0.796498 0.017202 -0.889572
C35   C     C_1   0.500058 0.661799 0.000192 -0.017631
C36   C     C_3   0.796814 0.472336 0.099840 -0.894900
C37   C     C_3   0.421972 0.203479 0.994073 -0.890096
C38   C     C_3   0.203791 0.531175 0.098754 -0.896135
C39   C     C_3   0.422098 0.796106 0.983830 -0.889324
C40   C     C_3   0.203254 0.475322 0.898055 -0.895220
C41   C     C_3   0.580522 0.205766 0.999499 -0.884129
C42   C     C_3   0.794078 0.532613 0.899928 -0.884458
C43   C     C_R   0.027117 0.204301 0.599612 0.154684
C44   C     C_R   0.998778 0.182831 0.634253 -0.141634
C45   C     C_R   0.013036 0.160087 0.680929 -0.133552
C46   C     C_1   0.661837 0.500704 0.000451 -0.018436
C47   C     C_R   0.055567 0.158753 0.693340 -0.103628
C48   C     C_R   0.083922 0.180061 0.658992 -0.155323
C49   C     C_R   0.069835 0.202594 0.612013 -0.166709
C50   C     C_R   0.203948 0.921846 0.503128 0.147913
C51   C     C_R   0.181776 0.909479 0.551622 -0.150342
C52   C     C_R   0.158035 0.872971 0.550779 -0.141743
C53   C     C_R   0.156389 0.848591 0.501670 -0.102510
C54   C     C_R   0.178478 0.860692 0.453314 -0.139135
C55   C     C_R   0.202073 0.897298 0.453868 -0.157188
C56   C     C_R   0.966169 0.795937 0.595214 0.151562
C57   C     C_1   0.500386 0.338203 0.999341 -0.015023
C58   C     C_R   0.927143 0.815362 0.591792 -0.147890
C59   C     C_R   0.912301 0.838892 0.637407 -0.135534
C60   C     C_R   0.936316 0.843112 0.686584 -0.106023
C61   C     C_R   0.975236 0.823859 0.690182 -0.141578
C62   C     C_R   0.990228 0.800382 0.644593 -0.155975
C63   C     C_R   0.796281 0.076985 0.513905 0.148545
C64   C     C_R   0.800149 0.104724 0.468200 -0.156299
C65   C     C_R   0.823919 0.140978 0.474042 -0.151005
C66   C     C_R   0.844056 0.149601 0.525353 -0.112763
C67   C     C_R   0.840393 0.122025 0.570944 -0.139344
C68   C     C_1   0.338139 0.501313 0.999214 -0.018580
C69   C     C_R   0.816566 0.085799 0.565331 -0.146620
C70   C     C_R   0.968118 0.203887 0.403407 0.151680
C71   C     C_R   0.928725 0.184982 0.404674 -0.147737
C72   C     C_R   0.914962 0.161360 0.358461 -0.135565
C73   C     C_R   0.940435 0.156519 0.310840 -0.105956
C74   C     C_R   0.979732 0.175248 0.309401 -0.140725
C75   C     C_R   0.993641 0.198825 0.355597 -0.154651
C76   C     C_R   0.795814 0.922955 0.484759 0.149067
C77   C     C_R   0.816273 0.914522 0.433400 -0.146393
C78   C     C_R   0.839607 0.878087 0.427262 -0.138902
C79   C     C_1   0.999316 0.338001 0.500244 -0.012554
C80   C     C_R   0.842584 0.849907 0.472247 -0.112996
C81   C     C_R   0.822299 0.858157 0.523503 -0.152557
C82   C     C_R   0.799049 0.894636 0.529891 -0.157286
C83   C     C_R   0.031651 0.795945 0.403031 0.151685
C84   C     C_R   0.004751 0.817402 0.366325 -0.142447
C85   C     C_R   0.020896 0.840686 0.321314 -0.134897
C86   C     C_R   0.063896 0.842627 0.312685 -0.103907
C87   C     C_R   0.090825 0.821326 0.349096 -0.137579
C88   C     C_R   0.074824 0.798139 0.394309 -0.162269
C89   C     C_R   0.203869 0.077283 0.499014 0.148232
C90   C     C_1   0.337959 0.999851 0.500764 -0.013561
C91   C     C_R   0.183809 0.091947 0.547990 -0.150579
C92   C     C_R   0.159679 0.128086 0.545684 -0.142107
C93   C     C_R   0.155438 0.149754 0.494595 -0.108314
C94   C     C_R   0.175395 0.135314 0.445691 -0.141879
C95   C     C_R   0.199502 0.099118 0.447777 -0.156353
C96   C     C_R   0.577186 0.704109 0.013485 0.148527
C97   C     C_R   0.586141 0.683425 0.064517 -0.146808
C98   C     C_R   0.622531 0.659892 0.069689 -0.139536
C99   C     C_R   0.650150 0.656940 0.024061 -0.111262
C100  C     C_R   0.641399 0.677480 0.973147 -0.149722
C101  C     C_1   0.999723 0.662002 0.499683 -0.012405
C102  C     C_R   0.604962 0.700928 0.967724 -0.156699
C103  C     C_R   0.704436 0.470454 0.098034 0.151882
C104  C     C_R   0.682777 0.498061 0.133524 -0.142239
C105  C     C_R   0.659758 0.482845 0.179380 -0.134729
C106  C     C_R   0.658296 0.440076 0.190085 -0.103796
C107  C     C_R   0.679805 0.412448 0.154902 -0.139415
C108  C     C_R   0.702711 0.427512 0.108835 -0.162772
C109  C     C_R   0.422827 0.295867 0.996278 0.147996
C110  C     C_R   0.409928 0.316176 0.946570 -0.150680
C111  C     C_R   0.373691 0.340215 0.946644 -0.141211
C112  C     C_R   0.419338 0.999976 0.499977 0.908223
C113  C     C_1   0.662044 0.000123 0.499809 -0.013707
C114  C     C_R   0.350150 0.344101 0.996222 -0.107735
C115  C     C_R   0.362819 0.323884 0.045839 -0.142408
C116  C     C_R   0.399114 0.299877 0.045991 -0.156682
C117  C     C_R   0.296133 0.530933 0.097124 0.151624
C118  C     C_R   0.314903 0.570400 0.096671 -0.147625
C119  C     C_R   0.338531 0.583702 0.143130 -0.135454
C120  C     C_R   0.343513 0.557690 0.190183 -0.105985
C121  C     C_R   0.324916 0.518317 0.190808 -0.140708
C122  C     C_R   0.301333 0.504871 0.144365 -0.154452
C123  C     C_R   0.422877 0.703742 0.987383 0.148424
C124  C     C_1   0.499905 0.837950 0.000197 -0.013707
C125  C     C_R   0.395661 0.699629 0.033625 -0.156148
C126  C     C_R   0.359365 0.675854 0.028325 -0.150472
C127  C     C_R   0.350177 0.655968 0.977013 -0.112675
C128  C     C_R   0.377233 0.659876 0.930889 -0.139609
C129  C     C_R   0.413502 0.683701 0.935966 -0.146672
C130  C     C_R   0.295655 0.473861 0.899844 0.154363
C131  C     C_R   0.317530 0.502412 0.866000 -0.141556
C132  C     C_R   0.340210 0.488523 0.819064 -0.133119
C133  C     C_R   0.341060 0.446154 0.805577 -0.104563
C134  C     C_R   0.319335 0.417591 0.839111 -0.155613
C135  C     C_1   0.838008 0.500422 0.999677 -0.015546
C136  C     C_R   0.296887 0.431299 0.886364 -0.165705
C137  C     C_R   0.578289 0.296192 0.000763 0.160467
C138  C     C_R   0.592562 0.316313 0.951595 -0.156385
C139  C     C_R   0.629005 0.340135 0.953256 -0.141591
C140  C     C_R   0.651376 0.343952 0.003904 -0.102367
C141  C     C_R   0.637321 0.323961 0.052972 -0.135444
C142  C     C_R   0.600788 0.300271 0.051555 -0.153396
C143  C     C_R   0.703885 0.532269 0.903513 0.165015
C144  C     C_R   0.687327 0.572658 0.904634 -0.153441
C145  C     C_R   0.663787 0.587254 0.858872 -0.134065
C146  C     C_1   0.500446 0.162031 0.999141 -0.017167
C147  C     C_R   0.656674 0.561614 0.811885 -0.104729
C148  C     C_R   0.673044 0.521318 0.810628 -0.138616
C149  C     C_R   0.696534 0.506587 0.856366 -0.153274
C150  C     C_1   0.161996 0.500721 0.999771 -0.012543
C151  C     C_1   0.999785 0.375226 0.500023 -0.191534
C152  C     C_1   0.375196 0.999915 0.500317 -0.191728
C153  C     C_1   0.999989 0.624776 0.499887 -0.191376
C154  C     C_1   0.624806 0.000091 0.499916 -0.191591
C155  C     C_1   0.499923 0.875190 0.000093 -0.191610
C156  C     C_R   0.000017 0.580652 0.500025 0.908383
C157  C     C_1   0.875235 0.500051 0.999810 -0.196563
C158  C     C_1   0.500155 0.124793 0.999626 -0.197135
C159  C     C_1   0.124773 0.500226 0.999992 -0.191528
C160  C     C_1   0.999441 0.124672 0.500263 -0.166939
C161  C     C_1   0.124633 0.999756 0.500191 -0.168793
C162  C     C_1   0.999721 0.875337 0.499840 -0.167135
C163  C     C_1   0.875373 0.999915 0.499889 -0.172334
C164  C     C_1   0.500046 0.624622 0.000086 -0.171881
C165  C     C_1   0.624653 0.500269 0.000164 -0.167299
C166  C     C_1   0.500229 0.375378 0.999847 -0.168889
C167  C     C_R   0.580662 0.000026 0.500004 0.908265
C168  C     C_1   0.375326 0.500566 0.999725 -0.166932
C169  C     C_R   0.999985 0.500002 0.390459 0.906944
C170  C     C_R   0.500002 0.999987 0.390459 0.907005
C171  C     C_R   0.000015 0.499997 0.609541 0.907114
C172  C     C_R   0.499998 0.000013 0.609541 0.907264
C173  C     C_R   0.499985 0.000002 0.890459 0.907441
C174  C     C_R   0.000003 0.499987 0.890459 0.906736
C175  C     C_R   0.500015 0.999998 0.109541 0.907245
C176  C     C_R   0.999998 0.500013 0.109541 0.906954
C177  C     C_R   0.080588 0.999946 0.500027 0.914819
C178  C     C_R   0.499976 0.919336 0.000002 0.908143
C179  C     C_R   0.000044 0.919401 0.499973 0.913366
C180  C     C_R   0.919415 0.999968 0.499974 0.913106
C181  C     C_R   0.000022 0.080603 0.500042 0.913701
C182  C     C_R   0.580596 0.499964 0.000031 0.913663
C183  C     C_R   0.500039 0.419416 0.999978 0.914794
C184  C     C_R   0.419396 0.499976 0.999955 0.913525
C185  C     C_R   0.500017 0.580584 0.000021 0.913302
C186  C     C_1   0.999957 0.500019 0.330317 -0.191121
C187  C     C_1   0.500022 0.999961 0.330317 -0.191354
C188  C     C_1   0.000043 0.499981 0.669683 -0.191015
C189  C     C_R   0.919352 0.499987 0.999966 0.909401
C190  C     C_1   0.499979 0.000038 0.669683 -0.190968
C191  C     C_1   0.499956 0.000019 0.830317 -0.190750
C192  C     C_1   0.000022 0.499962 0.830317 -0.190907
C193  C     C_1   0.500043 0.999981 0.169683 -0.191117
C194  C     C_1   0.999979 0.500038 0.169683 -0.191021
C195  C     C_1   0.999952 0.500033 0.279600 0.004200
C196  C     C_1   0.500038 0.999957 0.279599 0.003894
C197  C     C_1   0.000049 0.499966 0.720400 0.004399
C198  C     C_1   0.499962 0.000043 0.720400 0.004374
C199  C     C_1   0.499951 0.000033 0.779600 0.004438
C200  C     C_R   0.500030 0.080658 0.000012 0.910582
C201  C     C_1   0.000038 0.499957 0.779599 0.004447
C202  C     C_1   0.500049 0.999966 0.220400 0.003968
C203  C     C_1   0.999963 0.500043 0.220401 0.004215
C204  C     C_R   0.012022 0.228072 0.549690 -0.023420
C205  C     C_R   0.227914 0.961418 0.503236 -0.019106
C206  C     C_R   0.982476 0.772014 0.546187 -0.022024
C207  C     C_R   0.772207 0.037816 0.507199 -0.020454
C208  C     C_R   0.983199 0.227906 0.453128 -0.021607
C209  C     C_R   0.771990 0.962178 0.491860 -0.020603
C210  C     C_R   0.014581 0.772027 0.451626 -0.022278
C211  C     C_R   0.080651 0.500037 0.000075 0.908219
C212  C     C_R   0.227899 0.037875 0.500840 -0.019499
C213  C     C_R   0.537899 0.727977 0.007310 -0.020356
C214  C     C_R   0.728144 0.486506 0.048611 -0.022370
C215  C     C_R   0.462341 0.271979 0.996920 -0.019384
C216  C     C_R   0.272103 0.516359 0.047135 -0.021545
C217  C     C_R   0.462103 0.727803 0.993481 -0.020539
C218  C     C_R   0.271910 0.488550 0.950019 -0.023423
C219  C     C_R   0.538698 0.272258 0.999529 -0.029284
C220  C     C_R   0.727771 0.516351 0.952830 -0.032444
C221  C     C_R   0.997646 0.206501 0.501408 -0.044456
C222  C     C_1   0.998710 0.161858 0.500767 -0.018545
C223  C     C_R   0.206446 0.999623 0.502054 -0.039018
C224  C     C_R   0.998470 0.793502 0.498894 -0.043866
C225  C     C_R   0.793563 0.999958 0.499593 -0.038687
C226  C     C_R   0.500024 0.706429 0.000346 -0.038637
C227  C     C_R   0.706469 0.501430 0.000820 -0.041519
C228  C     C_R   0.500482 0.293581 0.998264 -0.037030
C229  C     C_R   0.293496 0.502409 0.998577 -0.044314
C230  C     C_R   0.983592 0.271780 0.452603 0.116303
C231  C     C_R   0.271776 0.038090 0.500621 0.115738
C232  C     C_R   0.014714 0.728129 0.451529 0.116703
H1    H     H_    0.000669 0.318124 0.614554 0.242855
H2    H     H_    0.684505 0.084584 0.479897 0.242876
H3    H     H_    0.363985 0.355948 0.908330 0.134668
H4    H     H_    0.322166 0.362833 0.996213 0.124347
H5    H     H_    0.344626 0.326983 0.084245 0.130577
H6    H     H_    0.408910 0.284657 0.084757 0.134529
H7    H     H_    0.311309 0.590663 0.060323 0.121703
H8    H     H_    0.353038 0.614121 0.142628 0.127323
H9    H     H_    0.361827 0.568013 0.226115 0.122742
H10   H     H_    0.328877 0.498180 0.227212 0.129358
H11   H     H_    0.287243 0.474232 0.145048 0.131841
H12   H     H_    0.402679 0.714677 0.073656 0.132200
H13   H     H_    0.683312 0.073814 0.555185 0.244083
H14   H     H_    0.338412 0.672767 0.064018 0.125083
H15   H     H_    0.322117 0.637524 0.972969 0.120574
H16   H     H_    0.370136 0.644375 0.891241 0.128196
H17   H     H_    0.434391 0.686370 0.900093 0.129804
H18   H     H_    0.317012 0.535313 0.876060 0.123001
H19   H     H_    0.357073 0.510606 0.793099 0.126185
H20   H     H_    0.358535 0.435459 0.769137 0.122318
H21   H     H_    0.319934 0.384818 0.828501 0.125539
H22   H     H_    0.280351 0.408900 0.912278 0.129967
H23   H     H_    0.575316 0.313724 0.912231 0.128942
H24   H     H_    0.723700 0.105311 0.526130 0.247328
H25   H     H_    0.639857 0.355704 0.915321 0.131212
H26   H     H_    0.679565 0.362408 0.005109 0.122036
H27   H     H_    0.654668 0.326887 0.092134 0.121959
H28   H     H_    0.589906 0.285299 0.089957 0.126566
H29   H     H_    0.692581 0.592646 0.940943 0.120101
H30   H     H_    0.650989 0.618387 0.859848 0.126675
H31   H     H_    0.638425 0.572939 0.776503 0.122302
H32   H     H_    0.667418 0.501462 0.774295 0.127960
H33   H     H_    0.708840 0.475228 0.855231 0.124577
H34   H     H_    0.942302 0.317307 0.415492 0.244600
H35   H     H_    0.993540 0.315183 0.383949 0.241191
H36   H     H_    0.955188 0.276540 0.367303 0.247759
H37   H     H_    0.682680 0.926665 0.443916 0.244110
H38   H     H_    0.723026 0.894921 0.472375 0.247548
H39   H     H_    0.684172 0.915525 0.519095 0.242821
H40   H     H_    0.005629 0.682199 0.385605 0.243185
H41   H     H_    0.033473 0.277245 0.638724 0.249107
H42   H     H_    0.039570 0.723091 0.364265 0.248292
H43   H     H_    0.057970 0.684845 0.413640 0.242289
H44   H     H_    0.317248 0.079535 0.537851 0.244839
H45   H     H_    0.315345 0.080346 0.461168 0.242577
H46   H     H_    0.276607 0.106759 0.502259 0.246543
H47   H     H_    0.573982 0.817264 0.054546 0.244231
H48   H     H_    0.605378 0.776894 0.025442 0.247363
H49   H     H_    0.584288 0.815771 0.979146 0.242809
H50   H     H_    0.818099 0.497622 0.113773 0.243349
H51   H     H_    0.777363 0.464192 0.136974 0.248336
H52   H     H_    0.054049 0.315289 0.590626 0.242189
H53   H     H_    0.815540 0.444545 0.088408 0.242512
H54   H     H_    0.422420 0.182622 0.956476 0.244909
H55   H     H_    0.418718 0.184309 0.033014 0.242980
H56   H     H_    0.393793 0.223087 0.990297 0.246394
H57   H     H_    0.182725 0.556819 0.085676 0.244558
H58   H     H_    0.184843 0.505224 0.116130 0.241207
H59   H     H_    0.223499 0.543368 0.133576 0.247770
H60   H     H_    0.415703 0.815541 0.021813 0.242831
H61   H     H_    0.425586 0.816700 0.946299 0.244100
H62   H     H_    0.394412 0.776339 0.976084 0.247314
H63   H     H_    0.317643 0.922086 0.543715 0.245146
H64   H     H_    0.181766 0.500768 0.885536 0.242893
H65   H     H_    0.222687 0.468423 0.860446 0.249146
H66   H     H_    0.184736 0.447068 0.908076 0.242144
H67   H     H_    0.577686 0.171512 0.995945 0.247452
H68   H     H_    0.599594 0.216404 0.962984 0.243345
H69   H     H_    0.597501 0.212548 0.039481 0.237859
H70   H     H_    0.828422 0.532486 0.903865 0.243585
H71   H     H_    0.785944 0.513313 0.862430 0.239644
H72   H     H_    0.784497 0.565276 0.891845 0.242698
H73   H     H_    0.965758 0.183709 0.625007 0.123043
H74   H     H_    0.276820 0.892996 0.511426 0.246852
H75   H     H_    0.991115 0.143539 0.707515 0.126221
H76   H     H_    0.066551 0.141216 0.729568 0.122340
H77   H     H_    0.116827 0.179060 0.668750 0.125578
H78   H     H_    0.092069 0.218791 0.585445 0.130239
H79   H     H_    0.182710 0.928252 0.589800 0.130187
H80   H     H_    0.140867 0.863607 0.588163 0.131930
H81   H     H_    0.138018 0.820337 0.501120 0.122162
H82   H     H_    0.177284 0.841745 0.415384 0.122341
H83   H     H_    0.218792 0.906593 0.416037 0.134308
H84   H     H_    0.908434 0.812365 0.553790 0.122764
H85   H     H_    0.315199 0.917406 0.467311 0.242320
H86   H     H_    0.882244 0.853926 0.634619 0.128525
H87   H     H_    0.924799 0.861350 0.721858 0.122932
H88   H     H_    0.993833 0.827231 0.728229 0.129314
H89   H     H_    0.020521 0.785789 0.647597 0.131901
H90   H     H_    0.784909 0.098147 0.428165 0.132279
H91   H     H_    0.826808 0.162337 0.438765 0.125253
H92   H     H_    0.862505 0.177625 0.529807 0.120640
H93   H     H_    0.856085 0.128686 0.610593 0.128271
H94   H     H_    0.814084 0.064510 0.600790 0.129771
H95   H     H_    0.908881 0.188465 0.441468 0.121934
H96   H     H_    0.940077 0.682508 0.580656 0.244659
H97   H     H_    0.884604 0.146747 0.359591 0.127635
H98   H     H_    0.929755 0.138209 0.275099 0.122814
H99   H     H_    0.999454 0.171395 0.272559 0.129321
H100  H     H_    0.024221 0.213015 0.354281 0.131763
H101  H     H_    0.814253 0.936235 0.398367 0.129738
H102  H     H_    0.855405 0.871708 0.387654 0.128674
H103  H     H_    0.860601 0.821691 0.467358 0.120789
H104  H     H_    0.824638 0.836311 0.558294 0.126155
H105  H     H_    0.783644 0.900887 0.569861 0.132712
H106  H     H_    0.971392 0.816168 0.372756 0.124265
H107  H     H_    0.990134 0.684643 0.615668 0.241287
H108  H     H_    0.000081 0.857238 0.293142 0.127233
H109  H     H_    0.076349 0.860625 0.277783 0.122858
H110  H     H_    0.124083 0.822790 0.342228 0.122113
H111  H     H_    0.095935 0.781867 0.422420 0.126367
H112  H     H_    0.186629 0.075203 0.587685 0.129355
H113  H     H_    0.144155 0.139179 0.583447 0.134603
H114  H     H_    0.136635 0.177664 0.492893 0.124729
H115  H     H_    0.172022 0.152057 0.406117 0.130462
H116  H     H_    0.214528 0.087941 0.409571 0.134342
H117  H     H_    0.564844 0.685387 0.100025 0.129856
H118  H     H_    0.951261 0.723217 0.629759 0.247863
H119  H     H_    0.629297 0.643900 0.109036 0.128584
H120  H     H_    0.678318 0.638747 0.028191 0.120245
H121  H     H_    0.662819 0.675176 0.937867 0.124122
H122  H     H_    0.598301 0.716497 0.927994 0.132695
H123  H     H_    0.683661 0.531246 0.125508 0.124080
H124  H     H_    0.643051 0.504201 0.206610 0.127083
H125  H     H_    0.640513 0.428347 0.225650 0.122629
H126  H     H_    0.678732 0.379376 0.163388 0.121694
H127  H     H_    0.719151 0.405858 0.081693 0.126728
H128  H     H_    0.428126 0.313634 0.908050 0.129501
O1    O     O_R   0.965560 0.438990 0.499980 -0.616557
O2    O     O_R   0.938990 0.534440 0.999980 -0.616288
O3    O     O_R   0.534440 0.061010 0.999980 -0.618014
O4    O     O_R   0.061010 0.465560 0.999980 -0.616786
O5    O     O_R   0.534440 0.938990 0.000020 -0.616491
O6    O     O_R   0.061010 0.534440 0.000020 -0.616575
O7    O     O_R   0.465560 0.061010 0.000020 -0.615971
O8    O     O_R   0.938990 0.465560 0.000020 -0.615989
O9    O     O_R   0.060930 0.999970 0.453240 -0.615501
O10   O     O_R   0.999970 0.939070 0.453240 -0.616983
O11   O     O_R   0.939070 0.000030 0.453240 -0.619679
O12   O     O_R   0.438990 0.034440 0.499980 -0.616550
O13   O     O_R   0.000030 0.060930 0.453240 -0.613156
O14   O     O_R   0.939070 0.999970 0.546760 -0.619376
O15   O     O_R   0.000030 0.939070 0.546760 -0.614782
O16   O     O_R   0.060930 0.000030 0.546760 -0.621023
O17   O     O_R   0.999970 0.060930 0.546760 -0.617742
O18   O     O_R   0.560930 0.499970 0.953240 -0.614743
O19   O     O_R   0.499970 0.439070 0.953240 -0.620798
O20   O     O_R   0.439070 0.500030 0.953240 -0.617816
O21   O     O_R   0.500030 0.560930 0.953240 -0.619182
O22   O     O_R   0.439070 0.499970 0.046760 -0.613151
O23   O     O_R   0.034440 0.561010 0.499980 -0.616686
O24   O     O_R   0.500030 0.439070 0.046760 -0.615786
O25   O     O_R   0.560930 0.500030 0.046760 -0.616995
O26   O     O_R   0.499970 0.560930 0.046760 -0.619823
O27   O     O_R   0.965560 0.499980 0.417220 -0.615416
O28   O     O_R   0.499980 0.034440 0.417220 -0.615788
O29   O     O_R   0.034440 0.500020 0.417220 -0.615920
O30   O     O_R   0.500020 0.965560 0.417220 -0.615703
O31   O     O_R   0.034440 0.499980 0.582780 -0.615607
O32   O     O_R   0.500020 0.034440 0.582780 -0.615509
O33   O     O_R   0.965560 0.500020 0.582780 -0.615552
O34   O     O_R   0.561010 0.965560 0.499980 -0.616500
O35   O     O_R   0.499980 0.965560 0.582780 -0.615682
O36   O     O_R   0.465560 0.999980 0.917220 -0.615610
O37   O     O_R   0.999980 0.534440 0.917220 -0.615817
O38   O     O_R   0.534440 0.000020 0.917220 -0.615564
O39   O     O_R   0.000020 0.465560 0.917220 -0.615424
O40   O     O_R   0.534440 0.999980 0.082780 -0.615514
O41   O     O_R   0.000020 0.534440 0.082780 -0.615357
O42   O     O_R   0.465560 0.000020 0.082780 -0.615927
O43   O     O_R   0.999980 0.465560 0.082780 -0.615988
O44   O     O_R   0.034440 0.438990 0.500020 -0.616744
O45   O     O_R   0.561010 0.034440 0.500020 -0.616544
O46   O     O_R   0.965560 0.561010 0.500020 -0.616449
O47   O     O_R   0.438990 0.965560 0.500020 -0.616593
O48   O     O_R   0.465560 0.938990 0.999980 -0.616602
Zn1   Zn    Zn3+2 0.954010 0.500000 0.500000 0.964553
Zn2   Zn    Zn3+2 0.000000 0.000000 0.562390 0.959778
Zn3   Zn    Zn3+2 0.500000 0.500000 0.937610 0.959910
Zn4   Zn    Zn3+2 0.500000 0.500000 0.062390 0.964095
Zn5   Zn    Zn3+2 0.500000 0.045990 0.500000 0.963932
Zn6   Zn    Zn3+2 0.045990 0.500000 0.500000 0.963546
Zn7   Zn    Zn3+2 0.500000 0.954010 0.500000 0.963867
Zn8   Zn    Zn3+2 0.454010 0.000000 0.000000 0.964036
Zn9   Zn    Zn3+2 0.000000 0.545990 0.000000 0.964788
Zn10  Zn    Zn3+2 0.545990 0.000000 0.000000 0.963798
Zn11  Zn    Zn3+2 1.000000 0.454010 0.000000 0.963962
Zn12  Zn    Zn3+2 0.000000 0.000000 0.437610 0.964197

loop_
_geom_bond_atom_site_label_1
_geom_bond_atom_site_label_2
_ccdc_geom_bond_type
C118  H7    S    
C61   H88   S    
C160  C222  T    
O48   Zn8   S    
C126  C127  A    
C96   C102  A    
C126  H14   S    
C149  H33   S    
C34   H47   S    
C114  C115  A    
C167  O34   A    
C140  H26   S    
O5    Zn10  S    
C119  H8    S    
C195  C203  S    
C106  C107  A    
C143  C144  A    
C185  O26   A    
C112  O12   A    
C159  C211  S    
C37   H56   S    
C215  C228  A    
C73   C74   A    
O11   Zn12  S    
C110  C111  A    
C213  C226  A    
C143  C220  S    
C57   C228  S    
C173  O36   A    
C170  C187  S    
C177  O9    A    
C91   H112  S    
O23   Zn6   S    
C131  H18   S    
C217  C226  A    
C42   H71   S    
C176  O41   A    
O30   Zn7   S    
C59   C60   A    
O31   Zn6   S    
C10   C41   S    
C144  H29   S    
C104  C105  A    
C28   H96   S    
C89   C212  S    
C45   C47   A    
O13   Zn12  S    
C129  H17   S    
C177  O16   A    
C210  C224  A    
C150  C159  T    
C51   C52   A    
C85   H108  S    
C140  C141  A    
C90   C152  T    
C182  O25   A    
C72   C73   A    
C57   C166  T    
C172  C190  S    
C173  C191  S    
C220  C227  A    
C96   C213  S    
C44   H73   S    
C43   C44   A    
C218  C229  A    
C174  O39   A    
C184  O22   A    
C14   C38   S    
C73   H98   S    
C167  O45   A    
C156  O23   A    
C17   C230  A    
C39   H62   S    
C86   H109  S    
C148  C149  A    
C153  C156  S    
C3    C31   S    
C133  H20   S    
C60   H87   S    
O32   Zn5   S    
C9    C220  A    
O15   Zn2   S    
C56   C62   A    
C154  C167  S    
C45   H75   S    
C13   C224  S    
C147  H31   S    
C138  H23   S    
C178  O48   A    
C107  H126  S    
C170  O28   A    
C27   H85   S    
O40   Zn10  S    
C34   H49   S    
C43   C49   A    
O28   Zn5   S    
C27   H63   S    
C144  C145  A    
C65   H91   S    
C114  H4    S    
C139  C140  A    
C156  O46   A    
C122  H11   S    
C33   H44   S    
C22   C135  S    
C130  C131  A    
O12   Zn5   S    
O9    Zn12  S    
C38   H59   S    
C120  H9    S    
C176  O43   A    
C143  C149  A    
C98   C99   A    
C30   H35   S    
O45   Zn5   S    
C175  C193  S    
C67   H93   S    
C137  C142  A    
C32   C232  S    
O37   Zn9   S    
C135  C157  T    
C46   C165  T    
C204  C221  A    
C179  O15   A    
C147  C148  A    
C128  C129  A    
C37   H55   S    
C97   C98   A    
C5    C20   A    
C85   C86   A    
C6    C19   A    
C87   H110  S    
C174  O37   A    
C20   C113  S    
C41   H68   S    
C78   C80   A    
C11   C25   A    
C115  C116  A    
C130  C218  S    
C15   C37   S    
C59   H86   S    
C8    C217  A    
C189  O8    A    
O34   Zn7   S    
C6    C28   S    
C63   C69   A    
C206  C224  A    
C46   C227  S    
C88   H111  S    
C77   H101  S    
C219  C228  A    
C89   C91   A    
C26   H52   S    
C62   H89   S    
C155  C178  S    
C98   H119  S    
C66   C67   A    
C171  O31   A    
O39   Zn11  S    
O6    Zn9   S    
C10   C219  A    
C33   H46   S    
C185  O21   A    
C23   C146  S    
O17   Zn2   S    
C14   C216  A    
O27   Zn1   S    
C76   C82   A    
C91   C92   A    
C115  H5    S    
C99   H120  S    
C1    O44   A    
C38   H57   S    
C52   H80   S    
C66   H92   S    
C117  C122  A    
C221  C222  S    
C158  C200  S    
C83   C84   A    
O3    Zn10  S    
C137  C219  S    
C31   H38   S    
C216  C229  A    
C200  O7    A    
O33   Zn1   S    
O44   Zn6   S    
C148  H32   S    
C16   C214  A    
C214  C227  A    
C103  C214  S    
C68   C168  T    
C94   H115  S    
C171  O33   A    
C40   H64   S    
C179  O10   A    
C58   H84   S    
C24   C225  S    
C160  C181  S    
C120  C121  A    
C28   H118  S    
C54   C55   A    
C134  H21   S    
C93   H114  S    
C108  H127  S    
O25   Zn4   S    
C146  C158  T    
C27   H74   S    
C211  O6    A    
C71   C72   A    
C117  C118  A    
C16   C36   S    
C28   H107  S    
C189  O2    A    
O41   Zn9   S    
C81   H104  S    
C56   C58   A    
C83   C88   A    
C61   C62   A    
C6    C206  A    
C74   H99   S    
C63   C64   A    
C56   C206  S    
C104  H123  S    
C124  C155  T    
C70   C75   A    
C210  C232  A    
C33   C231  S    
C49   H78   S    
C132  H19   S    
C174  C192  S    
O22   Zn4   S    
C3    C209  A    
O1    Zn1   S    
C87   C88   A    
C71   H95   S    
C187  C196  T    
O18   Zn3   S    
C106  H125  S    
C113  C154  T    
C7    C205  A    
C82   H105  S    
C13   C162  T    
C181  O17   A    
C77   C78   A    
C52   C53   A    
C171  C188  S    
C165  C182  S    
C12   C213  A    
C40   H65   S    
C169  C186  S    
C18   C231  A    
C100  H121  S    
C123  C125  A    
O42   Zn8   S    
C7    C27   S    
C125  H12   S    
O29   Zn6   S    
C54   H82   S    
O2    Zn9   S    
C109  C116  A    
C180  O14   A    
C39   H61   S    
C111  H3    S    
C192  C201  T    
C112  C152  S    
C70   C71   A    
C19   C232  A    
C123  C217  S    
O35   Zn7   S    
C63   C207  S    
C69   H94   S    
C209  C225  A    
C36   H53   S    
C184  O20   A    
C145  C147  A    
C172  O35   A    
C51   H79   S    
C173  O38   A    
C181  O13   A    
C112  O47   A    
C18   C90   S    
C84   C85   A    
C36   H51   S    
C164  C185  S    
C212  C231  A    
C86   C87   A    
C33   H45   S    
C58   C59   A    
C53   C54   A    
C193  C202  T    
C1    O1    A    
C60   C61   A    
O47   Zn7   S    
C89   C95   A    
O7    Zn8   S    
O38   Zn10  S    
C55   H83   S    
C26   H41   S    
O10   Zn12  S    
C170  O30   A    
C75   H100  S    
C50   C51   A    
C182  O18   A    
C3    C20   A    
C211  O4    A    
C121  C122  A    
C4    C17   A    
C15   C215  A    
C48   C49   A    
C31   H39   S    
C125  C126  A    
C42   H72   S    
C32   H40   S    
C24   C163  T    
C30   H36   S    
C12   C34   S    
C131  C132  A    
C44   C45   A    
C190  C198  T    
C16   C22   A    
C39   H60   S    
C29   H13   S    
C178  O5    A    
C166  C183  S    
C191  C199  T    
C145  H30   S    
C37   H54   S    
C4    C26   S    
C119  C120  A    
C105  C106  A    
C35   C164  T    
C200  O3    A    
C64   C65   A    
C21   C124  S    
O16   Zn2   S    
C36   H50   S    
C32   H43   S    
C109  C110  A    
C41   H67   S    
C188  C197  T    
C139  H25   S    
C169  O29   A    
C92   C93   A    
C205  C223  A    
C1    C151  S    
C111  C114  A    
C14   C25   A    
C94   C95   A    
C29   H2    S    
C83   C210  S    
C138  C139  A    
O24   Zn4   S    
C102  H122  S    
O20   Zn3   S    
C103  C104  A    
O26   Zn4   S    
C176  C194  S    
C64   H90   S    
C76   C209  S    
C93   C94   A    
C35   C226  S    
C38   H58   S    
C81   C82   A    
C175  O42   A    
O19   Zn3   S    
C9    C42   S    
C110  H128  S    
C136  H22   S    
C97   H117  S    
C92   H113  S    
C9    C22   A    
C4    C204  A    
C5    C207  A    
C70   C208  S    
C116  H6    S    
C17   C79   S    
C80   H103  S    
C183  O24   A    
C29   H24   S    
C169  O27   A    
C118  C119  A    
C207  C225  A    
C72   H97   S    
C168  C184  S    
O46   Zn1   S    
C31   H37   S    
C78   H102  S    
C197  C201  S    
C47   H76   S    
C30   H34   S    
C8    C39   S    
C15   C23   A    
C95   H116  S    
C123  C129  A    
C11   C40   S    
C175  O40   A    
C2    C161  T    
C5    C29   S    
C141  H27   S    
C121  H10   S    
O4    Zn11  S    
C74   C75   A    
C128  H16   S    
C47   C48   A    
C186  C195  T    
C76   C77   A    
C105  H124  S    
C41   H69   S    
C132  C133  A    
C134  C136  A    
C208  C221  A    
C12   C21   A    
C84   H106  S    
C25   C150  S    
C67   C69   A    
C117  C216  S    
C99   C100  A    
C11   C218  A    
C101  C153  T    
C107  C108  A    
C7    C18   A    
C96   C97   A    
C100  C102  A    
C8    C21   A    
C142  H28   S    
C162  C179  S    
C198  C199  S    
C26   H1    S    
C183  O19   A    
C196  C202  S    
C43   C204  S    
C68   C229  S    
C79   C151  T    
C42   H70   S    
O8    Zn11  S    
C34   H48   S    
C130  C136  A    
C80   C81   A    
C109  C215  S    
C172  O32   A    
C10   C23   A    
C137  C138  A    
C50   C55   A    
C30   C230  S    
C40   H66   S    
O43   Zn11  S    
C141  C142  A    
O36   Zn8   S    
C19   C101  S    
C133  C134  A    
C194  C203  T    
C2    C223  S    
O14   Zn2   S    
C48   H77   S    
C157  C189  S    
C32   H42   S    
C50   C205  S    
O21   Zn3   S    
C127  H15   S    
C65   C66   A    
C180  O11   A    
C163  C180  S    
C53   H81   S    
C103  C108  A    
C161  C177  S    
C127  C128  A    
C208  C230  A    
C212  C223  A    
