data_mof_unit_41084.cif
_audit_creation_date              2012-12-10T17:05:22-0500
_audit_creation_method            fapswitch 2.2
_symmetry_space_group_name_H-M    P1
_symmetry_Int_Tables_number       1
_space_group_crystal_system       triclinic
_cell_length_a                    10.032578
_cell_length_b                    10.750169
_cell_length_c                    15.472878
_cell_angle_alpha                 90.077048
_cell_angle_beta                  67.643736
_cell_angle_gamma                 89.992345
_cell_volume                      1543.34660587

loop_
_atom_site_label
_atom_site_type_symbol
_atom_type_description
_atom_site_fract_x
_atom_site_fract_y
_atom_site_fract_z
_atom_type_partial_charge
C1    C     C_R   0.498775 0.737294 0.502313 0.926860
C2    C     C_R   0.739420 0.520695 0.027566 0.169859
C3    C     C_R   0.594726 0.551561 0.083555 0.093740
C4    C     C_R   0.409682 0.499509 0.676094 0.930040
C5    C     C_R   0.838105 0.494141 0.069511 -0.201720
C6    C     C_R   0.792118 0.490734 0.166678 -0.197924
C7    C     C_R   0.551121 0.546562 0.180419 -0.256928
C8    C     C_2   0.609028 0.067010 0.505403 -0.133450
C9    C     C_2   0.506080 0.131104 0.490194 -0.333132
C10   C     C_2   0.612641 0.933121 0.499910 -0.156602
C11   C     C_2   0.493230 0.868761 0.511737 -0.323965
C12   C     C_R   0.424968 0.545251 0.908579 0.011759
C13   C     C_2   0.109165 0.435366 0.441567 -0.119549
C14   C     C_2   0.957396 0.430768 0.444572 -0.125670
C15   C     C_R   0.501146 0.262691 0.498211 0.952363
C16   C     C_R   0.590327 0.502215 0.323839 0.862285
C17   C     C_R   0.353906 0.516033 0.777156 -0.120524
C18   C     C_R   0.647116 0.513466 0.222136 -0.057472
C19   C     C_R   0.193420 0.624380 0.914233 -0.218444
C20   C     C_R   0.227272 0.584074 0.822758 -0.263234
C21   C     C_R   0.443057 0.484205 0.824547 0.297294
C22   C     C_R   0.292383 0.606836 0.957187 0.132583
C23   C     C_R   0.533154 0.545831 0.946327 0.090155
C24   C     C_R   0.494701 0.576572 0.041426 0.062572
C25   C     C_R   0.358575 0.631882 0.090566 -0.224611
C26   C     C_R   0.261076 0.650466 0.047636 -0.205848
C27   C     C_R   0.680068 0.525189 0.890630 -0.141614
C28   C     C_R   0.782210 0.514138 0.930782 -0.244839
Cl1   Cl    Cl    0.554574 0.350396 0.786959 -0.625218
H1    H     H_    0.159825 0.697062 0.085960 0.149037
H2    H     H_    0.873471 0.562854 0.541330 0.166343
H3    H     H_    0.439619 0.561077 0.224695 0.159949
H4    H     H_    0.868312 0.466500 0.198159 0.157636
H5    H     H_    0.893529 0.495611 0.886385 0.157810
H6    H     H_    0.093583 0.674455 0.949608 0.154912
H7    H     H_    0.156676 0.608526 0.787082 0.171928
H8    H     H_    0.328125 0.668073 0.160567 0.147017
H9    H     H_    0.718039 0.521121 0.815285 0.188942
H10   H     H_    0.949207 0.471614 0.027321 0.155373
H11   H     H_    0.693942 0.112916 0.520859 0.186135
H12   H     H_    0.425255 0.088256 0.469233 0.148688
H13   H     H_    0.715264 0.887536 0.486622 0.173144
H14   H     H_    0.387937 0.911372 0.530912 0.154306
H15   H     H_    0.189934 0.380381 0.388256 0.161497
H16   H     H_    0.071464 0.546257 0.552346 0.160964
H17   H     H_    0.935767 0.367435 0.396838 0.152468
N1    N     N_2   0.148330 0.498670 0.499030 -0.188387
N2    N     N_2   0.852680 0.498640 0.499000 -0.180416
O1    O     O_R   0.386950 0.680940 0.500010 -0.617302
O2    O     O_R   0.613110 0.680900 0.499990 -0.617761
O3    O     O_R   0.322330 0.500030 0.632270 -0.621244
O4    O     O_R   0.548480 0.499990 0.632240 -0.569402
O5    O     O_R   0.386890 0.319100 0.500010 -0.609962
O6    O     O_R   0.613050 0.319060 0.499990 -0.598081
O7    O     O_R   0.451520 0.500010 0.367760 -0.616834
O8    O     O_R   0.677670 0.499970 0.367730 -0.617391
Zn1   Zn    Zn3+2 0.349000 0.500030 0.500020 0.944698
Zn2   Zn    Zn3+2 0.651000 0.499970 0.499980 0.967168

loop_
_geom_bond_atom_site_label_1
_geom_bond_atom_site_label_2
_ccdc_geom_bond_type
C14   N2    D    
C23   C24   A    
C16   O8    A    
C11   H14   S    
O3    Zn1   S    
C23   C27   A    
N1    Zn1   S    
C8    H11   S    
C1    O2    A    
C9    H12   S    
C19   C20   A    
C1    C11   S    
C6    H4    S    
C7    C18   A    
C17   C20   A    
O7    Zn1   S    
C2    C3    A    
C9    C15   S    
C16   O7    A    
C28   H5    S    
C14   H17   S    
C19   H6    S    
C13   C14   S    
N2    Zn2   S    
C12   C23   A    
C3    C24   A    
O4    Zn2   S    
C4    O4    A    
C4    C17   S    
C15   O5    A    
C8    C10   S    
O8    Zn2   S    
C26   H1    S    
C3    C7    A    
H2    N2    S    
C5    H10   S    
C22   C26   A    
C5    C6    A    
C6    C18   A    
C2    C5    A    
C10   H13   S    
C10   C11   D    
C4    O3    A    
O2    Zn2   S    
C15   O6    A    
C12   C22   A    
C19   C22   A    
O1    Zn1   S    
C24   C25   A    
C16   C18   S    
O6    Zn2   S    
H16   N1    S    
C27   C28   A    
C13   N1    D    
O5    Zn1   S    
C20   H7    S    
C2    C28   A    
C7    H3    S    
C27   H9    S    
C25   H8    S    
C25   C26   A    
C21   Cl1   S    
C12   C21   A    
C13   H15   S    
C17   C21   A    
C8    C9    D    
C1    O1    A    
