data_mof_unit_39270.cif
_audit_creation_date              2012-10-26T17:12:34-0400
_audit_creation_method            fapswitch 2.2
_symmetry_space_group_name_H-M    P1
_symmetry_Int_Tables_number       1
_space_group_crystal_system       triclinic
_cell_length_a                    16.81218
_cell_length_b                    16.898496
_cell_length_c                    16.814446
_cell_angle_alpha                 68.064635
_cell_angle_beta                  68.507998
_cell_angle_gamma                 67.968021
_cell_volume                      3962.85207705

loop_
_atom_site_label
_atom_site_type_symbol
_atom_type_description
_atom_site_fract_x
_atom_site_fract_y
_atom_site_fract_z
_atom_type_partial_charge
C1    C     C_R   0.015192 0.830983 0.568472 0.833679
C2    C     C_R   0.970440 0.171772 0.435675 0.830661
C3    C     C_R   0.829052 0.565966 0.024244 0.802216
C4    C     C_R   0.171709 0.435729 0.970659 0.837868
C5    C     C_R   0.569144 0.013977 0.831807 0.824865
C6    C     C_R   0.434428 0.974529 0.171020 0.842234
C7    C     C_R   0.435094 0.171574 0.972281 0.843540
C8    C     C_R   0.570119 0.832744 0.011432 0.822544
C9    C     C_R   0.970476 0.435679 0.171752 0.830590
C10   C     C_R   0.013396 0.569200 0.831539 0.817755
C11   C     C_R   0.168835 0.985383 0.430962 0.850273
C12   C     C_R   0.832477 0.012077 0.569779 0.835613
C13   C     C_R   0.487004 0.955211 0.739754 -0.170161
C14   C     C_R   0.543856 0.909533 0.301418 -0.152655
C15   C     C_R   0.952148 0.741132 0.484806 -0.169041
C16   C     C_R   0.917052 0.294788 0.550337 -0.159692
C17   C     C_R   0.702649 0.463492 0.052442 -0.162106
C18   C     C_R   0.295482 0.547627 0.922094 -0.162432
C19   C     C_R   0.278302 0.016369 0.517936 -0.159727
C20   C     C_R   0.746488 0.936488 0.496300 -0.159666
C21   C     C_R   0.545395 0.289717 0.945735 -0.149801
C22   C     C_R   0.499212 0.741386 0.940837 -0.152081
C23   C     C_R   0.910928 0.548878 0.296040 -0.157286
C24   C     C_R   0.934186 0.497960 0.746502 -0.160385
C25   C     C_R   0.565428 0.953823 0.563836 0.042844
C26   C     C_R   0.463539 0.953859 0.462480 0.038621
C27   C     C_R   0.942422 0.567304 0.566195 0.040151
C28   C     C_R   0.926145 0.469599 0.470310 0.036739
C29   C     C_R   0.554801 0.556726 0.982522 0.039990
C30   C     C_R   0.461946 0.462837 0.956864 0.039936
C31   C     C_R   0.608629 0.935575 0.480374 0.040917
C32   C     C_R   0.422088 0.971121 0.546162 0.041223
C33   C     C_R   0.928566 0.482228 0.610584 0.040687
C34   C     C_R   0.922692 0.560404 0.431127 0.040031
C35   C     C_R   0.477028 0.603425 0.951774 0.041162
C36   C     C_R   0.546173 0.419298 0.974362 0.041224
C37   C     C_R   0.557646 0.930302 0.431459 0.036383
C38   C     C_R   0.474183 0.960680 0.600033 0.046159
C39   C     C_R   0.427058 0.555490 0.944885 0.042160
C40   C     C_R   0.587687 0.463972 0.996650 0.041022
C41   C     C_R   0.923120 0.431888 0.561780 0.041122
C42   C     C_R   0.933119 0.608598 0.478543 0.048466
C43   C     C_R   0.438162 0.953503 0.690492 -0.226911
C44   C     C_R   0.596305 0.904111 0.352184 -0.203271
C45   C     C_R   0.934891 0.697150 0.441068 -0.215233
C46   C     C_R   0.914832 0.344887 0.600875 -0.210222
C47   C     C_R   0.659097 0.418065 0.035952 -0.217212
C48   C     C_R   0.344245 0.596848 0.924620 -0.207265
C49   C     C_R   0.329539 0.005854 0.571012 -0.219850
C50   C     C_R   0.701044 0.922740 0.450118 -0.207985
C51   C     C_R   0.589086 0.334211 0.962782 -0.221991
C52   C     C_R   0.453079 0.696566 0.927624 -0.203565
C53   C     C_R   0.908343 0.599707 0.345694 -0.202680
C54   C     C_R   0.918598 0.451992 0.702790 -0.212110
C55   C     C_R   0.570262 0.974571 0.699102 0.000346
C56   C     C_R   0.450670 0.944763 0.325418 -0.008776
C57   C     C_R   0.974818 0.698447 0.566927 0.005454
C58   C     C_R   0.934087 0.326013 0.456951 -0.000459
C59   C     C_R   0.679847 0.556869 0.026063 -0.000294
C60   C     C_R   0.325132 0.454341 0.942458 0.000502
C61   C     C_R   0.316304 0.986737 0.440821 -0.004242
C62   C     C_R   0.702071 0.966966 0.573489 -0.006535
C63   C     C_R   0.453219 0.322706 0.951740 -0.001058
C64   C     C_R   0.569624 0.696108 0.981533 -0.004093
C65   C     C_R   0.932257 0.455824 0.326951 -0.003684
C66   C     C_R   0.968030 0.572491 0.699704 -0.005830
C67   C     C_R   0.612722 0.000029 0.742067 -0.214798
C68   C     C_R   0.396549 0.966148 0.267751 -0.222550
C69   C     C_R   0.005554 0.738636 0.608132 -0.227384
C70   C     C_R   0.949273 0.271267 0.402298 -0.231137
C71   C     C_R   0.733346 0.605798 0.025638 -0.219029
C72   C     C_R   0.271279 0.401731 0.951562 -0.237515
C73   C     C_R   0.263785 0.986451 0.391406 -0.242708
C74   C     C_R   0.743301 0.996759 0.614157 -0.218274
C75   C     C_R   0.401283 0.270511 0.954998 -0.232720
C76   C     C_R   0.612313 0.741032 0.002851 -0.228640
C77   C     C_R   0.948869 0.401780 0.271592 -0.232417
C78   C     C_R   0.002376 0.610561 0.739265 -0.227639
C79   C     C_R   0.698593 0.012445 0.698939 0.330919
C80   C     C_R   0.302918 0.988558 0.301441 0.365703
C81   C     C_R   0.026058 0.690192 0.690052 0.333135
C82   C     C_R   0.949541 0.311668 0.311799 0.343016
C83   C     C_R   0.698558 0.698153 0.013278 0.351027
C84   C     C_R   0.312352 0.312315 0.949699 0.340345
C85   C     C_R   0.612698 0.965842 0.611949 0.077670
C86   C     C_R   0.410202 0.961126 0.409689 0.077251
C87   C     C_R   0.963445 0.612184 0.610460 0.072750
C88   C     C_R   0.931218 0.416830 0.417890 0.077670
C89   C     C_R   0.601256 0.603215 0.997124 0.073728
C90   C     C_R   0.413089 0.413058 0.950692 0.075115
Cu1   Cu    Cu3+1 0.995180 0.995180 0.424630 0.939007
Cu2   Cu    Cu3+1 0.004820 0.004820 0.575370 0.911851
Cu3   Cu    Cu3+1 0.995180 0.424630 0.995180 0.923855
Cu4   Cu    Cu3+1 0.004820 0.575370 0.004820 0.931793
Cu5   Cu    Cu3+1 0.424630 0.995180 0.995180 0.942210
Cu6   Cu    Cu3+1 0.575370 0.004820 0.004820 0.930308
H1    H     H_    0.456044 0.939349 0.809397 0.169380
H2    H     H_    0.577912 0.884526 0.243728 0.172770
H3    H     H_    0.945266 0.809352 0.449598 0.173705
H4    H     H_    0.901623 0.232641 0.587684 0.177186
H5    H     H_    0.752784 0.423819 0.088079 0.165472
H6    H     H_    0.236113 0.585205 0.899874 0.170446
H7    H     H_    0.209698 0.053473 0.536300 0.174880
H8    H     H_    0.817279 0.919504 0.470506 0.165491
H9    H     H_    0.587602 0.231478 0.924391 0.182265
H10   H     H_    0.480782 0.812149 0.914411 0.155441
H11   H     H_    0.892415 0.585059 0.234532 0.175105
H12   H     H_    0.915943 0.474184 0.817786 0.182317
H13   H     H_    0.373051 0.942794 0.725017 0.134965
H14   H     H_    0.667159 0.878320 0.327980 0.133715
H15   H     H_    0.923822 0.735413 0.376682 0.128568
H16   H     H_    0.906817 0.312846 0.670916 0.132767
H17   H     H_    0.680310 0.346334 0.057271 0.138307
H18   H     H_    0.313948 0.667412 0.912027 0.133537
H19   H     H_    0.295999 0.030728 0.628999 0.139853
H20   H     H_    0.740236 0.903577 0.389828 0.128721
H21   H     H_    0.658713 0.303361 0.960913 0.135553
H22   H     H_    0.400587 0.737177 0.895395 0.130621
H23   H     H_    0.893325 0.670202 0.315179 0.131706
H24   H     H_    0.896306 0.393907 0.743929 0.132879
O1    O     O_R   0.124540 0.978640 0.385460 -0.525039
O2    O     O_R   0.875460 0.021360 0.614540 -0.571604
O3    O     O_R   0.978640 0.385460 0.124540 -0.538479
O4    O     O_R   0.021360 0.614540 0.875460 -0.546299
O5    O     O_R   0.385460 0.124540 0.978640 -0.538297
O6    O     O_R   0.614540 0.875460 0.021360 -0.548662
O7    O     O_R   0.614540 0.021360 0.875460 -0.580230
O8    O     O_R   0.385460 0.978640 0.124540 -0.524507
O9    O     O_R   0.875460 0.614540 0.021360 -0.550115
O10   O     O_R   0.124540 0.385460 0.978640 -0.532567
O11   O     O_R   0.021360 0.875460 0.614540 -0.539109
O12   O     O_R   0.978640 0.124540 0.385460 -0.538196
O13   O     O_R   0.013780 0.867370 0.487190 -0.621676
O14   O     O_R   0.986220 0.132630 0.512810 -0.618205
O15   O     O_R   0.867370 0.487190 0.013780 -0.620885
O16   O     O_R   0.132630 0.512810 0.986220 -0.598652
O17   O     O_R   0.487190 0.013780 0.867370 -0.624398
O18   O     O_R   0.512810 0.986220 0.132630 -0.601388
O19   O     O_R   0.512810 0.132630 0.986220 -0.606181
O20   O     O_R   0.487190 0.867370 0.013780 -0.609466
O21   O     O_R   0.986220 0.512810 0.132630 -0.599140
O22   O     O_R   0.013780 0.487190 0.867370 -0.615486
O23   O     O_R   0.132630 0.986220 0.512810 -0.609291
O24   O     O_R   0.867370 0.013780 0.487190 -0.619844
O25   O     O_3   0.730396 0.056672 0.731552 -0.550956
C91   C     C_3   0.791664 0.997289 0.782836 0.169682
H25   H     H_    0.834976 0.938835 0.757532 0.123679
H26   H     H_    0.758828 0.969597 0.852124 0.160772
C92   C     C_3   0.847274 0.048064 0.788015 -0.768404
H27   H     H_    0.803681 0.097811 0.825405 0.219972
H28   H     H_    0.898634 0.001346 0.823196 0.175301
H29   H     H_    0.880862 0.083562 0.721148 0.261533
O26   O     O_3   0.248785 0.014785 0.245490 -0.542003
C93   C     C_3   0.221295 0.108686 0.217606 0.086113
H30   H     H_    0.279689 0.136137 0.181289 0.126129
H31   H     H_    0.181816 0.136798 0.275244 0.124191
C94   C     C_3   0.162819 0.138649 0.155092 -0.617722
H32   H     H_    0.103065 0.113604 0.189832 0.243443
H33   H     H_    0.141082 0.212304 0.132789 0.229337
H34   H     H_    0.200537 0.112932 0.095959 0.247469
O27   O     O_3   0.064910 0.724247 0.724981 -0.547383
C95   C     C_3   0.158291 0.692156 0.695814 0.114683
H35   H     H_    0.181606 0.705822 0.622021 0.124056
H36   H     H_    0.180453 0.619418 0.726659 0.119115
C96   C     C_3   0.201502 0.738614 0.723631 -0.774255
H37   H     H_    0.177894 0.728596 0.796684 0.235997
H38   H     H_    0.274930 0.711130 0.704775 0.194655
H39   H     H_    0.184122 0.810893 0.690007 0.256507
O28   O     O_3   0.953261 0.261450 0.261028 -0.549293
C97   C     C_3   0.865283 0.268886 0.265106 0.142299
H40   H     H_    0.828227 0.339400 0.240460 0.114748
H41   H     H_    0.828540 0.241044 0.334400 0.132590
C98   C     C_3   0.868207 0.216981 0.206698 -0.782397
H42   H     H_    0.903454 0.145919 0.230442 0.242342
H43   H     H_    0.799457 0.222388 0.209264 0.185545
H44   H     H_    0.903545 0.244068 0.136812 0.242016
O29   O     O_3   0.749528 0.747311 0.011338 -0.539766
C99   C     C_3   0.797059 0.778463 0.922278 0.144737
H45   H     H_    0.751348 0.833048 0.884759 0.087296
H46   H     H_    0.828862 0.725915 0.886458 0.121831
C100  C     C_3   0.870793 0.810307 0.922576 -0.743892
H47   H     H_    0.914332 0.757108 0.963364 0.269153
H48   H     H_    0.913126 0.829149 0.854085 0.203816
H49   H     H_    0.841692 0.867713 0.951160 0.208625
O30   O     O_3   0.263573 0.263830 0.946582 -0.550980
C101  C     C_3   0.272873 0.274133 0.856540 0.132892
H50   H     H_    0.343896 0.249609 0.821278 0.127573
H51   H     H_    0.246406 0.345005 0.821723 0.122141
C102  C     C_3   0.220434 0.220286 0.852086 -0.764072
H52   H     H_    0.148975 0.243998 0.885715 0.242564
H53   H     H_    0.227165 0.227785 0.781619 0.189071
H54   H     H_    0.246125 0.148973 0.885293 0.240093

loop_
_geom_bond_atom_site_label_1
_geom_bond_atom_site_label_2
_ccdc_geom_bond_type
C25   C31   A    
C40   C47   A    
C14   C56   A    
C68   C80   A    
C96   H37   S    
C12   C74   S    
O28   C97   S    
C3    C71   S    
Cu5   Cu6   S    
C34   C42   A    
C4    C72   S    
C5    C67   S    
C13   C55   A    
Cu6   O19   S    
C29   C89   A    
O27   C95   S    
C10   C78   S    
C80   O26   S    
C79   O25   S    
C100  H47   S    
C27   C33   A    
C26   C32   A    
C55   C85   A    
Cu5   O20   S    
C2    O14   A    
C63   C75   A    
C14   C44   A    
C54   H24   S    
C91   H25   S    
C10   O4    A    
C92   H28   S    
C18   H6    S    
C75   C84   A    
C98   H44   S    
C97   H40   S    
C60   C72   A    
C24   C54   A    
C95   C96   S    
C28   C41   A    
C8    C76   S    
C55   C67   A    
C63   C90   A    
C10   O22   A    
C102  H53   S    
Cu2   O23   S    
C17   H5    S    
C20   C50   A    
C51   H21   S    
C48   H18   S    
C19   H7    S    
Cu5   O8    S    
C94   H32   S    
C59   C89   A    
C28   C88   A    
C2    O12   A    
C41   C46   A    
C57   C87   A    
C14   H2    S    
C24   H12   S    
C32   C38   A    
C46   H16   S    
C93   H31   S    
Cu1   Cu2   S    
C30   C90   A    
C4    O16   A    
C13   C43   A    
C100  H48   S    
C82   O28   S    
C28   C34   A    
C96   H38   S    
C18   C60   A    
C20   C62   A    
C15   C57   A    
C84   O30   S    
C11   O1    A    
C64   C89   A    
C1    O13   A    
C76   C83   A    
C99   H45   S    
C91   H26   S    
C98   H43   S    
C66   C78   A    
C62   C85   A    
Cu2   O14   S    
Cu5   O17   S    
Cu4   O9    S    
C65   C77   A    
C83   O29   S    
C17   C47   A    
C36   C40   A    
Cu2   O11   S    
C67   C79   A    
C93   C94   S    
C11   C73   S    
C92   H29   S    
C16   C46   A    
C66   C87   A    
C9    O21   A    
C16   H4    S    
C7    C75   S    
Cu1   O12   S    
C61   C73   A    
C98   H42   S    
C1    C69   S    
C12   O24   A    
Cu6   O7    S    
C18   C48   A    
C42   C45   A    
C6    O18   A    
C102  H54   S    
C35   C39   A    
C27   C42   A    
Cu2   O2    S    
C25   C38   A    
C91   C92   S    
C19   C49   A    
C56   C86   A    
Cu1   O13   S    
C3    O15   A    
C26   C86   A    
C23   H11   S    
C5    O7    A    
C25   C85   A    
C64   C76   A    
Cu6   O6    S    
Cu3   Cu4   S    
C16   C58   A    
C7    O5    A    
C27   C87   A    
C44   H14   S    
C93   H30   S    
C72   C84   A    
C36   C51   A    
Cu1   O24   S    
C17   C59   A    
C69   C81   A    
C23   C53   A    
Cu5   O5    S    
C49   H19   S    
C96   H39   S    
C74   C79   A    
C7    O19   A    
C15   C45   A    
C31   C50   A    
C101  H51   S    
Cu3   O10   S    
C52   H22   S    
O25   C91   S    
C21   C51   A    
C4    O10   A    
C65   C88   A    
C22   C52   A    
C95   H35   S    
C100  H49   S    
C8    O6    A    
C33   C54   A    
C47   H17   S    
C53   H23   S    
C3    O9    A    
Cu4   O21   S    
C81   O27   S    
C58   C70   A    
Cu3   O3    S    
C15   H3    S    
Cu3   O15   S    
C58   C88   A    
C99   H46   S    
C45   H15   S    
C26   C37   A    
C5    O17   A    
C20   H8    S    
C60   C90   A    
C94   H34   S    
C29   C35   A    
C30   C36   A    
C8    O20   A    
C33   C41   A    
C23   C65   A    
C101  C102  S    
C9    C77   S    
C6    O8    A    
C38   C43   A    
C95   H36   S    
C56   C68   A    
C92   H27   S    
Cu6   O18   S    
C78   C81   A    
O30   C101  S    
C97   H41   S    
C77   C82   A    
C19   C61   A    
C1    O11   A    
C29   C40   A    
C6    C68   S    
C9    O3    A    
C73   C80   A    
C30   C39   A    
C50   H20   S    
C13   H1    S    
C102  H52   S    
C70   C82   A    
C32   C49   A    
C21   C63   A    
C99   C100  S    
C22   H10   S    
C61   C86   A    
C22   C64   A    
C37   C44   A    
C31   C37   A    
C12   O2    A    
C24   C66   A    
C34   C53   A    
C94   H33   S    
O29   C99   S    
Cu1   O1    S    
C35   C52   A    
C62   C74   A    
Cu4   O16   S    
C71   C83   A    
C43   H13   S    
C57   C69   A    
C101  H50   S    
C2    C70   S    
C11   O23   A    
C21   H9    S    
Cu3   O22   S    
C59   C71   A    
C39   C48   A    
O26   C93   S    
C97   C98   S    
Cu4   O4    S    
