data_mof_unit_32314.cif
_audit_creation_date              2013-03-05T16:12:46-0500
_audit_creation_method            fapswitch 2.2
_symmetry_space_group_name_H-M    P1
_symmetry_Int_Tables_number       1
_space_group_crystal_system       triclinic
_cell_length_a                    10.719411
_cell_length_b                    9.82087
_cell_length_c                    27.714034
_cell_angle_alpha                 90.70163
_cell_angle_beta                  90.134017
_cell_angle_gamma                 90.044455
_cell_volume                      2917.33792638

loop_
_atom_site_label
_atom_site_type_symbol
_atom_site_description
_atom_site_fract_x
_atom_site_fract_y
_atom_site_fract_z
_atom_type_partial_charge
O1    O     O_R   0.316770 0.614620 0.500000 -0.627473
O2    O     O_R   0.683230 0.385380 0.500000 -0.627668
O3    O     O_R   0.683230 0.614620 0.500000 -0.626518
O4    O     O_R   0.316770 0.385380 0.500000 -0.626482
C1    C     C_R   0.259808 0.499965 0.499962 0.876034
C2    C     C_R   0.740192 0.500035 0.500038 0.876035
O5    O     O_R   0.500030 0.614650 0.428760 -0.621986
O6    O     O_R   0.499970 0.385350 0.571240 -0.621696
O7    O     O_R   0.499970 0.614650 0.571240 -0.621590
O8    O     O_R   0.500030 0.385350 0.428760 -0.621900
C3    C     C_R   0.500384 0.499075 0.405956 0.877451
C4    C     C_R   0.499627 0.500906 0.594043 0.878638
Zn1   Zn    Zn3+2 0.500000 0.653120 0.500000 0.954406
Zn2   Zn    Zn3+2 0.500000 0.346880 0.500000 0.954367
C5    C     C_R   0.417772 0.414623 0.177040 0.502677
C6    C     C_R   0.580976 0.582963 0.823184 0.518620
O9    O     O_2   0.325791 0.352674 0.201724 -0.557442
O10   O     O_2   0.672593 0.646208 0.798713 -0.549636
N1    N     N_R   0.510203 0.482978 0.201263 -0.358027
N2    N     N_R   0.488676 0.515097 0.798735 -0.356160
C7    C     C_R   0.606409 0.543904 0.177495 0.519238
C8    C     C_R   0.392830 0.452917 0.822302 0.520283
C9    C     C_R   0.524400 0.367740 0.278640 -0.094207
C10   C     C_R   0.474824 0.631290 0.721486 -0.093129
C11   C     C_R   0.521346 0.371600 0.328689 -0.214603
C12   C     C_R   0.478225 0.627908 0.671424 -0.211928
C13   C     C_R   0.487050 0.616132 0.327090 -0.215116
C14   C     C_R   0.513027 0.383441 0.672787 -0.213827
C15   C     C_R   0.489454 0.611811 0.276929 -0.098877
C16   C     C_R   0.510287 0.387285 0.722934 -0.092260
C17   C     C_R   0.508060 0.487612 0.252709 0.310405
C18   C     C_R   0.491178 0.511174 0.747286 0.306894
C19   C     C_R   0.511513 0.479185 0.101299 -0.055837
C20   C     C_R   0.488007 0.514897 0.898707 -0.049876
C21   C     C_R   0.417495 0.410220 0.126615 -0.014860
C22   C     C_R   0.581605 0.585345 0.873617 -0.023487
C23   C     C_R   0.328443 0.334581 0.101107 -0.130198
C24   C     C_R   0.670928 0.659944 0.899363 -0.113801
C25   C     C_R   0.609495 0.541861 0.127009 -0.021238
C26   C     C_R   0.390126 0.452908 0.872800 -0.068928
C27   C     C_R   0.502704 0.495853 0.353262 -0.043772
C28   C     C_R   0.497233 0.503902 0.646735 -0.044892
H1    H     H_    0.472299 0.713014 0.345289 0.160287
H2    H     H_    0.528097 0.286742 0.654505 0.161064
H3    H     H_    0.476494 0.704612 0.256811 0.144703
H4    H     H_    0.523339 0.294316 0.742948 0.148189
H5    H     H_    0.261108 0.271744 0.119622 0.192996
H6    H     H_    0.738269 0.723321 0.881084 0.194439
C29   C     C_R   0.393028 0.443139 0.974666 -0.051446
C30   C     C_R   0.607274 0.547365 0.025203 0.030428
C31   C     C_R   0.593897 0.567614 0.974886 0.069415
C32   C     C_R   0.406124 0.423804 0.025144 0.042969
C33   C     C_R   0.492011 0.507423 0.949615 0.071022
C34   C     C_R   0.507888 0.484546 0.050342 0.069232
C35   C     C_R   0.283381 0.406147 0.947971 -0.069622
C36   C     C_R   0.717148 0.583651 0.051833 -0.031538
C37   C     C_R   0.288000 0.400651 0.897569 -0.097440
C38   C     C_R   0.712232 0.592188 0.102064 -0.226020
O11   O     O_2   0.300095 0.392468 0.796874 -0.547756
O12   O     O_2   0.699225 0.604890 0.202714 -0.554131
C39   C     C_R   0.326287 0.336908 0.051103 -0.240965
C40   C     C_R   0.673704 0.655356 0.949314 -0.127897
H7    H     H_    0.465171 0.722107 0.652125 0.164944
H8    H     H_    0.534315 0.277518 0.348067 0.164483
H9    H     H_    0.459384 0.727070 0.740319 0.148228
H10   H     H_    0.539520 0.271739 0.259909 0.146694
H11   H     H_    0.206984 0.365665 0.877467 0.227392
H12   H     H_    0.793756 0.627342 0.121867 0.186968
H13   H     H_    0.262773 0.267228 0.033358 0.159857
H14   H     H_    0.738395 0.723031 0.967439 0.149020
C41   C     C_R   0.063856 0.378420 0.508544 -0.184690
C42   C     C_R   0.936144 0.621579 0.491456 -0.185038
C43   C     C_R   0.936069 0.378482 0.508612 -0.185250
C44   C     C_R   0.063931 0.621517 0.491388 -0.185545
H15   H     H_    0.112475 0.283934 0.515483 0.159323
H16   H     H_    0.887524 0.716066 0.484517 0.159066
H17   H     H_    0.887393 0.284029 0.515606 0.155110
H18   H     H_    0.112607 0.715971 0.484394 0.154962
C45   C     C_R   0.872602 0.500056 0.500054 -0.015463
C46   C     C_R   0.127398 0.499944 0.499946 -0.015522
C47   C     C_R   0.578332 0.073109 0.529764 -0.070823
C48   C     C_R   0.421668 0.926891 0.470236 -0.071178
C49   C     C_R   0.421681 0.070934 0.470233 -0.075106
C50   C     C_R   0.578319 0.929066 0.529767 -0.074641
H19   H     H_    0.640895 0.128711 0.553531 0.125949
H20   H     H_    0.359105 0.871290 0.446469 0.125369
H21   H     H_    0.359149 0.124803 0.446459 0.130600
H22   H     H_    0.640852 0.875197 0.553540 0.131207
N3    N     N_R   0.500000 0.857200 0.500000 -0.081415
N4    N     N_R   0.500000 0.142800 0.500000 -0.081406
C51   C     C_2   0.157764 0.396292 0.970273 0.430497
H23   H     H_    0.138495 0.448259 0.004216 0.092635
O13   O     O_2   0.073835 0.332012 0.950644 -0.510846
C52   C     C_2   0.844066 0.590124 0.030725 0.367885
H24   H     H_    0.915205 0.653538 0.047612 0.059137
O14   O     O_2   0.872579 0.518367 0.996201 -0.517969

loop_
_geom_bond_atom_site_label_1
_geom_bond_atom_site_label_2
_geom_bond_distance
_ccdc_geom_bond_type
C49   H21   1.081805 S    
C13   C15   1.390594 A    
C42   H16   1.083661 S    
O3    C2    1.280731 A    
N1    C17   1.426193 S    
C36   C52   1.483815 S    
C30   C34   1.419146 A    
C48   N3    1.365786 A    
O1    C1    1.280486 A    
C9    H10   1.083181 S    
C21   C23   1.394869 A    
C10   C12   1.387962 A    
C42   C45   1.396972 A    
C32   C39   1.412466 A    
C40   H14   1.079075 S    
O7    Zn1   2.014708 S    
Zn2   N4    2.004243 S    
C4    C28   1.460524 S    
C35   C51   1.486510 S    
C23   H5    1.083463 S    
C24   H6    1.083443 S    
O3    Zn1   2.000468 S    
O6    C4    1.292186 A    
Zn1   N3    2.004243 S    
C44   C46   1.397172 A    
O2    C2    1.280485 A    
C31   C40   1.411842 A    
C37   H11   1.084065 S    
C5    C21   1.397621 A    
C41   C46   1.396973 A    
C32   C34   1.420810 A    
O5    C3    1.292368 A    
C16   C18   1.399540 A    
C7    O12   1.350065 S    
C42   C44   1.369802 A    
O8    Zn2   2.014714 S    
C11   C27   1.404802 A    
C8    O11   1.350105 S    
C41   C43   1.369802 A    
C48   H20   1.081838 S    
C25   C38   1.395040 A    
C14   H2    1.083302 S    
C30   C36   1.430983 A    
C15   H3    1.083069 S    
C31   C33   1.420584 A    
C11   H8    1.083260 S    
C9    C17   1.397673 A    
C5    N1    1.366671 A    
C12   H7    1.083260 S    
C10   C18   1.397831 A    
C51   O13   1.221585 D    
C13   C27   1.403693 A    
C7    C25   1.399532 A    
C6    N2    1.366397 A    
C29   C32   1.420728 A    
C8    C26   1.399867 A    
C30   C31   1.417942 A    
C43   C45   1.397172 A    
C19   C25   1.405161 A    
C1    C46   1.419361 S    
C52   O14   1.220935 D    
C10   H9    1.083161 S    
C47   N4    1.365784 A    
C38   H12   1.084783 S    
N2    C8    1.366384 A    
C35   C37   1.398227 A    
C20   C26   1.404192 A    
O1    Zn1   1.999892 S    
C50   N3    1.365688 A    
C51   H23   1.085051 S    
C47   C50   1.414632 A    
C12   C28   1.404804 A    
N2    C18   1.426224 S    
C39   H13   1.078480 S    
C19   C34   1.414299 A    
C5    O9    1.350071 S    
C49   N4    1.365690 A    
O6    Zn2   2.005620 S    
C26   C37   1.394378 A    
N1    C7    1.366491 A    
C16   H4    1.083088 S    
C50   H22   1.081803 S    
O4    C1    1.280731 A    
C23   C39   1.386425 A    
C22   C24   1.394834 A    
C14   C16   1.390203 A    
C15   C17   1.399664 A    
C29   C35   1.431592 A    
C6    C22   1.397631 A    
C41   H15   1.083660 S    
C2    C45   1.419361 S    
C29   C33   1.421098 A    
C14   C28   1.403641 A    
C19   C21   1.407326 A    
C36   C38   1.394714 A    
C3    C27   1.460581 S    
C20   C22   1.408105 A    
C9    C11   1.387574 A    
O4    Zn2   2.000468 S    
C52   H24   1.085757 S    
O2    Zn2   1.999892 S    
O7    C4    1.290167 A    
O8    C3    1.290011 A    
C13   H1    1.083297 S    
O5    Zn1   2.005626 S    
C20   C33   1.414236 A    
C6    O10   1.350074 S    
C48   C49   1.414631 A    
C44   H18   1.083706 S    
C43   H17   1.083706 S    
C47   H19   1.081839 S    
C24   C40   1.385873 A    
