data_mof_unit_36885.cif
_audit_creation_date              2012-10-26T18:34:22-0400
_audit_creation_method            fapswitch 2.2
_symmetry_space_group_name_H-M    P1
_symmetry_Int_Tables_number       1
_space_group_crystal_system       monoclinic
_cell_length_a                    10.828747
_cell_length_b                    9.663321
_cell_length_c                    9.060688
_cell_angle_alpha                 90.0
_cell_angle_beta                  93.568281
_cell_angle_gamma                 90.0
_cell_volume                      946.287321308

loop_
_atom_site_label
_atom_site_type_symbol
_atom_type_description
_atom_site_fract_x
_atom_site_fract_y
_atom_site_fract_z
_atom_type_partial_charge
C1    C     C_R   0.262494 0.500000 0.500350 0.557949
C2    C     C_R   0.063900 0.625676 0.500661 -0.109346
C3    C     C_R   0.871564 0.500000 0.499247 0.026361
C4    C     C_R   0.128435 0.500000 0.500753 0.026361
C5    C     C_R   0.421140 0.074038 0.403855 0.193640
C6    C     C_R   0.578860 0.925962 0.596145 0.193640
C7    C     C_R   0.578860 0.074038 0.596145 0.193640
C8    C     C_R   0.421140 0.925962 0.403855 0.193640
C9    C     C_R   0.737506 0.500000 0.499650 0.557949
C10   C     C_R   0.499986 0.500000 0.221063 0.569779
C11   C     C_R   0.500014 0.500000 0.778936 0.569778
C12   C     C_1   0.500005 0.500000 0.065663 0.004499
C13   C     C_1   0.499995 0.500000 0.934337 0.004499
C14   C     C_R   0.063900 0.374324 0.500661 -0.109346
C15   C     C_R   0.936100 0.625676 0.499339 -0.109346
C16   C     C_R   0.936100 0.374324 0.499339 -0.109345
Cu1   Cu    Cu3+1 0.500000 0.640660 0.500000 1.046443
Cu2   Cu    Cu3+1 0.500000 0.359340 0.500000 1.046443
H1    H     H_    0.111753 0.275926 0.501605 0.163880
H2    H     H_    0.888247 0.724074 0.498395 0.163880
H3    H     H_    0.888247 0.275926 0.498395 0.163880
H4    H     H_    0.111753 0.724074 0.501605 0.163880
I1    I     I_    0.294380 0.178045 0.248962 -0.258248
I2    I     I_    0.705620 0.821955 0.751038 -0.258248
I3    I     I_    0.705620 0.178045 0.751038 -0.258248
I4    I     I_    0.294380 0.821955 0.248962 -0.258248
N1    N     N_R   0.500000 0.852070 0.500000 -0.253082
N2    N     N_R   0.500000 0.147930 0.500000 -0.253082
O1    O     O_R   0.319640 0.618740 0.499990 -0.492607
O2    O     O_R   0.680360 0.381260 0.500010 -0.492607
O3    O     O_R   0.680360 0.618740 0.500010 -0.492608
O4    O     O_R   0.319640 0.381260 0.499990 -0.492607
O5    O     O_R   0.500000 0.618760 0.288390 -0.473294
O6    O     O_R   0.500000 0.381240 0.711610 -0.473294
O7    O     O_R   0.500000 0.618760 0.711610 -0.473294
O8    O     O_R   0.500000 0.381240 0.288390 -0.473294

loop_
_geom_bond_atom_site_label_1
_geom_bond_atom_site_label_2
_ccdc_geom_bond_type
C2    H4    S    
C5    C8    A    
C2    C4    A    
C6    C7    A    
Cu2   O2    S    
C5    N2    A    
C11   C13   S    
C6    N1    A    
C7    I3    S    
C1    C4    S    
C6    I2    S    
C1    O1    A    
Cu1   Cu2   S    
Cu2   N2    S    
Cu1   O1    S    
C2    C15   A    
Cu2   O6    S    
C16   H3    S    
Cu1   O5    S    
C9    O2    A    
C3    C9    S    
C10   C12   S    
C11   O7    A    
C10   O5    A    
C1    O4    A    
C4    C14   A    
C8    I4    S    
Cu1   O3    S    
C14   C16   A    
Cu2   O4    S    
C9    O3    A    
Cu1   N1    S    
C3    C15   A    
C12   C13   T    
C8    N1    A    
C10   O8    A    
Cu1   O7    S    
Cu2   O8    S    
C14   H1    S    
C3    C16   A    
C11   O6    A    
C7    N2    A    
C15   H2    S    
C5    I1    S    
