data_mof_unit_41993.cif
_audit_creation_date              2012-12-11T16:06:23-0500
_audit_creation_method            fapswitch 2.2
_symmetry_space_group_name_H-M    P1
_symmetry_Int_Tables_number       1
_space_group_crystal_system       triclinic
_cell_length_a                    7.201223
_cell_length_b                    14.468285
_cell_length_c                    15.780972
_cell_angle_alpha                 90.000276
_cell_angle_beta                  89.999982
_cell_angle_gamma                 90.00012
_cell_volume                      1644.20916315

loop_
_atom_site_label
_atom_site_type_symbol
_atom_type_description
_atom_site_fract_x
_atom_site_fract_y
_atom_site_fract_z
_atom_type_partial_charge
O1    O     O_R   0.388780 0.834790 0.412340 -0.538141
O2    O     O_R   0.111220 0.165210 0.912340 -0.537019
O3    O     O_R   0.888780 0.665210 0.587660 -0.538142
O4    O     O_R   0.611220 0.334790 0.087660 -0.537018
O5    O     O_R   0.059040 0.845930 0.587040 -0.540355
O6    O     O_R   0.440960 0.154070 0.087040 -0.541624
O7    O     O_R   0.559040 0.654070 0.412960 -0.540355
O8    O     O_R   0.940960 0.345930 0.912960 -0.541623
C1    C     C_R   0.228064 0.867985 0.615394 0.643168
C2    C     C_R   0.272339 0.132003 0.115330 0.643336
C3    C     C_R   0.728065 0.632013 0.384608 0.643165
C4    C     C_R   0.772339 0.367995 0.884669 0.643342
O9    O     O_R   0.059070 0.845930 0.412970 -0.540357
O10   O     O_R   0.440930 0.154070 0.912970 -0.541626
O11   O     O_R   0.559070 0.654070 0.587030 -0.540358
O12   O     O_R   0.940930 0.345930 0.087030 -0.541626
O13   O     O_R   0.888760 0.665210 0.412340 -0.538147
O14   O     O_R   0.611240 0.334790 0.912340 -0.537024
O15   O     O_R   0.388760 0.834790 0.587660 -0.538146
O16   O     O_R   0.111240 0.165210 0.087660 -0.537024
C5    C     C_R   0.228086 0.867985 0.384609 0.643173
C6    C     C_R   0.272317 0.132004 0.884674 0.643353
C7    C     C_R   0.728086 0.632014 0.615389 0.643172
C8    C     C_R   0.772318 0.367994 0.115328 0.643358
O17   O     O_3   0.222280 0.690700 0.500000 -0.372285
O18   O     O_3   0.277720 0.309300 0.000000 -0.372195
O19   O     O_3   0.722280 0.809300 0.500000 -0.372284
O20   O     O_3   0.777720 0.190700 0.000000 -0.372198
V1    V     V_3+5 0.947430 0.761000 0.500000 1.357686
V2    V     V_3+5 0.552570 0.239000 0.000000 1.358179
V3    V     V_3+5 0.447430 0.739000 0.500000 1.357686
V4    V     V_3+5 0.052570 0.261000 0.000000 1.358180
C9    C     C_3   0.945647 0.543492 0.713488 -0.305158
C10   C     C_3   0.667162 0.395854 0.266443 -0.320458
C11   C     C_3   0.445643 0.956456 0.286467 -0.305169
C12   C     C_3   0.167283 0.104161 0.733540 -0.320463
H1    H     H_    0.026075 0.517365 0.658201 0.137955
H2    H     H_    0.524981 0.371541 0.250094 0.136048
H3    H     H_    0.526155 0.982558 0.341740 0.137979
H4    H     H_    0.025109 0.128510 0.749859 0.136028
H5    H     H_    0.011741 0.609282 0.734241 0.132015
H6    H     H_    0.747209 0.334461 0.288136 0.114960
H7    H     H_    0.511648 0.890651 0.265698 0.131993
H8    H     H_    0.247411 0.165534 0.711862 0.114963
C13   C     C_3   0.958170 0.472379 0.786241 -0.318310
C14   C     C_3   0.654354 0.467507 0.339719 -0.326233
C15   C     C_3   0.458166 0.027573 0.213719 -0.318318
C16   C     C_3   0.154479 0.032509 0.660263 -0.326238
H9    H     H_    0.029944 0.504565 0.841316 0.134973
H10   H     H_    0.728255 0.440409 0.396448 0.115163
H11   H     H_    0.529867 0.995378 0.158629 0.134955
H12   H     H_    0.228470 0.059587 0.603551 0.115170
H13   H     H_    0.044134 0.412652 0.765248 0.133807
H14   H     H_    0.506229 0.477156 0.357768 0.138318
H15   H     H_    0.544202 0.087278 0.234700 0.133829
H16   H     H_    0.006363 0.022898 0.642180 0.138296
H17   H     H_    0.728522 0.440410 0.603544 0.115169
H18   H     H_    0.504843 0.503413 0.140853 0.141927
H19   H     H_    0.228721 0.059588 0.396456 0.115177
H20   H     H_    0.004730 0.996646 0.859101 0.141944
H21   H     H_    0.747460 0.334463 0.711856 0.114964
H22   H     H_    0.486078 0.608636 0.248823 0.136777
H23   H     H_    0.247629 0.165535 0.288144 0.114964
H24   H     H_    0.985959 0.891430 0.751129 0.136798
C17   C     C_3   0.654516 0.467485 0.660254 -0.326239
C18   C     C_3   0.647481 0.524653 0.159757 -0.321211
C19   C     C_3   0.154629 0.032530 0.339762 -0.326245
C20   C     C_3   0.147365 0.975371 0.840226 -0.321201
C21   C     C_3   0.634541 0.596183 0.766868 -0.325377
C22   C     C_3   0.958162 0.472316 0.213807 -0.318315
C23   C     C_3   0.134429 0.903841 0.233148 -0.325368
C24   C     C_3   0.458155 0.027628 0.786239 -0.318317
C25   C     C_3   0.740084 0.561484 0.687137 0.124525
C26   C     C_3   0.761853 0.438532 0.186985 0.125781
C27   C     C_3   0.240084 0.938512 0.312860 0.124534
C28   C     C_3   0.261852 0.061463 0.813019 0.125783
H25   H     H_    0.485955 0.608556 0.751116 0.136796
H26   H     H_    0.030039 0.504485 0.158751 0.134997
H27   H     H_    0.985843 0.891508 0.248927 0.136815
H28   H     H_    0.529944 0.995446 0.841312 0.134975
C29   C     C_3   0.761869 0.438535 0.813013 0.125784
C30   C     C_3   0.740068 0.561482 0.312862 0.124523
C31   C     C_3   0.261868 0.061460 0.186983 0.125791
C32   C     C_3   0.240068 0.938513 0.687142 0.124529
C33   C     C_3   0.667318 0.395833 0.733531 -0.320464
C34   C     C_3   0.634665 0.596216 0.233106 -0.325379
C35   C     C_3   0.167421 0.104180 0.266483 -0.320462
C36   C     C_3   0.134544 0.903810 0.766877 -0.325377
C37   C     C_3   0.647362 0.524622 0.840218 -0.321192
C38   C     C_3   0.945640 0.543428 0.286561 -0.305142
C39   C     C_3   0.147261 0.975399 0.159796 -0.321188
C40   C     C_3   0.445632 0.956515 0.713487 -0.305153
H29   H     H_    0.712903 0.557491 0.896522 0.114044
H30   H     H_    0.025965 0.517272 0.341869 0.137928
H31   H     H_    0.212728 0.942515 0.103482 0.114044
H32   H     H_    0.526046 0.982646 0.658196 0.137954
H33   H     H_    0.504728 0.503340 0.859088 0.141947
H34   H     H_    0.011842 0.609198 0.265828 0.132041
H35   H     H_    0.004630 0.996709 0.140948 0.141959
H36   H     H_    0.511740 0.890728 0.734237 0.132017
H37   H     H_    0.506401 0.477090 0.642166 0.138288
H38   H     H_    0.713124 0.557504 0.103469 0.114045
H39   H     H_    0.006525 0.022961 0.357885 0.138265
H40   H     H_    0.212920 0.942505 0.896528 0.114043
H41   H     H_    0.525147 0.371479 0.749846 0.136022
H42   H     H_    0.694142 0.663329 0.211889 0.115392
H43   H     H_    0.025253 0.128562 0.250196 0.136004
H44   H     H_    0.193924 0.836681 0.788108 0.115387
H45   H     H_    0.693904 0.663315 0.788101 0.115388
H46   H     H_    0.044029 0.412562 0.234815 0.133775
H47   H     H_    0.193697 0.836693 0.211903 0.115379
H48   H     H_    0.544105 0.087359 0.765245 0.133799

loop_
_geom_bond_atom_site_label_1
_geom_bond_atom_site_label_2
_ccdc_geom_bond_type
O17   V3    S    
C31   C35   S    
C24   H48   S    
O1    C5    A    
O19   V1    S    
C9    C13   S    
C18   H38   S    
C21   H25   S    
C10   H6    S    
C17   H37   S    
C24   C28   S    
C11   C15   S    
C23   C39   S    
C23   H27   S    
C19   H39   S    
C22   C38   S    
O7    C3    A    
H22   C34   S    
C11   C27   S    
O9    V1    S    
O10   V2    S    
O4    C8    A    
C33   H41   S    
C22   H26   S    
C18   C26   S    
C2    C31   S    
O1    V3    S    
O13   V1    S    
O2    V4    S    
O3    V1    S    
C22   C26   S    
C22   H46   S    
H19   C19   S    
C14   C30   S    
O3    C7    A    
C1    O15   A    
C2    O16   A    
C23   H47   S    
O2    C6    A    
C21   C25   S    
C10   C14   S    
C6    C28   S    
C11   H7    S    
C29   C37   S    
O11   C7    A    
O15   V3    S    
O12   C8    A    
C12   C28   S    
C34   H42   S    
C21   H45   S    
C7    C25   S    
C21   C37   S    
H18   C18   S    
C38   H30   S    
C12   C16   S    
O5    V1    S    
C3    C30   S    
O7    V3    S    
O8    V4    S    
C32   C36   S    
C12   H4    S    
C17   C25   S    
O18   V4    S    
C15   H11   S    
C30   C34   S    
C39   H31   S    
C9    H1    S    
C16   C32   S    
C37   H33   S    
C11   H3    S    
O5    C1    A    
C13   H9    S    
O8    C4    A    
C14   H14   S    
O9    C5    A    
C20   C28   S    
C17   C33   S    
H21   C33   S    
C10   C26   S    
O14   V2    S    
C9    C25   S    
O6    V2    S    
C15   C31   S    
C20   C36   S    
C12   H8    S    
C19   C27   S    
C40   H36   S    
C15   H15   S    
O16   V4    S    
C16   H16   S    
C5    C27   S    
C3    O13   A    
H23   C35   S    
C10   H2    S    
C13   C29   S    
C20   H40   S    
H17   C17   S    
C18   C34   S    
O11   V3    S    
O12   V4    S    
C31   C39   S    
C14   H10   S    
C19   C35   S    
C30   C38   S    
C9    H5    S    
O10   C6    A    
O20   V2    S    
C24   H28   S    
C23   C27   S    
C8    C26   S    
C24   C40   S    
H24   C36   S    
C4    C29   S    
C40   H32   S    
C37   H29   S    
O4    V2    S    
O6    C2    A    
C1    C32   S    
C13   H13   S    
C36   H44   S    
C16   H12   S    
C35   H43   S    
H20   C20   S    
C4    O14   A    
C32   C40   S    
C39   H35   S    
C38   H34   S    
C29   C33   S    
