data_mof_unit_31426.cif
_audit_creation_date              2012-10-26T20:59:11-0400
_audit_creation_method            fapswitch 2.2
_symmetry_space_group_name_H-M    P1
_symmetry_Int_Tables_number       1
_space_group_crystal_system       triclinic
_cell_length_a                    15.870483
_cell_length_b                    9.093896
_cell_length_c                    7.824262
_cell_angle_alpha                 89.998403
_cell_angle_beta                  91.783907
_cell_angle_gamma                 89.995727
_cell_volume                      1128.6855784

loop_
_atom_site_label
_atom_site_type_symbol
_atom_type_description
_atom_site_fract_x
_atom_site_fract_y
_atom_site_fract_z
_atom_type_partial_charge
C1    C     C_1   0.499998 0.065405 0.500002 -0.052263
C2    C     C_3   0.975195 0.632031 0.559560 -0.112404
C3    C     C_1   0.249731 0.499922 0.489823 -0.042304
C4    C     C_1   0.750269 0.500092 0.510174 -0.042283
C5    C     C_3   0.035496 0.523095 0.653002 0.034354
C6    C     C_3   0.964505 0.476966 0.346983 0.034422
C7    C     C_3   0.082453 0.499266 0.487345 0.045278
C8    C     C_3   0.917548 0.500790 0.512638 0.045224
C9    C     C_1   0.174170 0.499635 0.484820 -0.082962
C10   C     C_1   0.825830 0.500396 0.515170 -0.082981
C11   C     C_3   0.919332 0.446460 0.175533 -0.257152
C12   C     C_1   0.500002 0.934595 0.499998 -0.052264
C13   C     C_3   0.872375 0.583010 0.107428 -0.300155
C14   C     C_3   0.817065 0.544688 0.951434 -0.433715
C15   C     C_3   0.080664 0.553651 0.824449 -0.257159
C16   C     C_3   0.127595 0.417104 0.892656 -0.300112
C17   C     C_3   0.183039 0.455525 0.048439 -0.433543
C18   C     C_R   0.499995 0.220171 0.500001 0.549115
C19   C     C_R   0.500005 0.779829 0.499999 0.549114
C20   C     C_R   0.339433 0.500042 0.497235 0.543874
C21   C     C_R   0.660567 0.499958 0.502765 0.543877
C22   C     C_3   0.976749 0.392265 0.608151 -0.105235
C23   C     C_3   0.023253 0.607794 0.391834 -0.105167
C24   C     C_3   0.024805 0.368027 0.440421 -0.112346
Cu1   Cu    Cu3+1 0.500010 0.500000 0.669080 1.011538
Cu2   Cu    Cu3+1 0.499990 0.500000 0.330920 1.011549
H1    H     H_    0.046178 0.261103 0.388784 0.095609
H2    H     H_    0.966043 0.410116 0.082372 0.130948
H3    H     H_    0.874143 0.354721 0.193119 0.148064
H4    H     H_    0.235576 0.528328 0.011095 0.172557
H5    H     H_    0.145010 0.512994 0.143970 0.160238
H6    H     H_    0.209875 0.353666 0.106406 0.153395
H7    H     H_    0.081511 0.331350 0.928092 0.143703
H8    H     H_    0.168204 0.369748 0.793764 0.179450
H9    H     H_    0.125871 0.645359 0.806815 0.148094
H10   H     H_    0.033952 0.590070 0.917581 0.130918
H11   H     H_    0.953822 0.738956 0.611193 0.095625
H12   H     H_    0.956817 0.305503 0.698142 0.091691
H13   H     H_    0.043188 0.694555 0.301849 0.091641
H14   H     H_    0.855264 0.487786 0.855771 0.160287
H15   H     H_    0.764676 0.471422 0.988383 0.172542
H16   H     H_    0.790042 0.646521 0.893825 0.153437
H17   H     H_    0.831667 0.630168 0.206272 0.179506
H18   H     H_    0.918440 0.668883 0.072255 0.143753
N1    N     N_1   0.499990 0.500000 0.076820 -0.083672
N2    N     N_1   0.500010 0.500000 0.923180 -0.083676
O1    O     O_R   0.500000 0.288400 0.642760 -0.494981
O2    O     O_R   0.500000 0.711600 0.357240 -0.494983
O3    O     O_R   0.500000 0.288400 0.357240 -0.495219
O4    O     O_R   0.500000 0.711600 0.642760 -0.495221
O5    O     O_R   0.379080 0.500000 0.642760 -0.497959
O6    O     O_R   0.620920 0.500000 0.357240 -0.497932
O7    O     O_R   0.379070 0.500000 0.357190 -0.502063
O8    O     O_R   0.620930 0.500000 0.642810 -0.502055

loop_
_geom_bond_atom_site_label_1
_geom_bond_atom_site_label_2
_ccdc_geom_bond_type
C8    C22   S    
Cu1   O5    S    
C3    C9    T    
Cu2   O6    S    
C16   H7    S    
Cu1   O1    S    
C2    H11   S    
C24   H1    S    
Cu2   O2    S    
C14   H16   S    
C6    C24   S    
C18   O1    A    
C2    C23   S    
C3    C20   S    
N1    N2    T    
C4    C21   S    
C17   H4    S    
C11   C13   S    
C19   O4    A    
C1    C18   S    
C1    C12   T    
C11   H2    S    
C14   H15   S    
C7    C23   S    
C6    C23   S    
C12   C19   S    
C15   H9    S    
C20   O5    A    
C5    C7    S    
C13   H18   S    
C21   O8    A    
C17   H5    S    
C13   C14   S    
C22   C24   S    
C5    C15   S    
C2    C5    S    
C4    C10   T    
C15   C16   S    
C22   H12   S    
Cu2   O7    S    
C15   H10   S    
C13   H17   S    
Cu1   O8    S    
C11   H3    S    
C8    C10   S    
Cu2   O3    S    
C6    C11   S    
C7    C9    S    
C17   H6    S    
Cu1   O4    S    
C16   C17   S    
C6    C8    S    
Cu2   N1    S    
C16   H8    S    
Cu1   Cu2   S    
C19   O2    A    
C14   H14   S    
Cu1   N2    S    
C23   H13   S    
C21   O6    A    
C2    C8    S    
C5    C22   S    
C7    C24   S    
C18   O3    A    
C20   O7    A    
