data_mof_unit_28524.cif
_audit_creation_date              2012-12-10T16:46:47-0500
_audit_creation_method            fapswitch 2.2
_symmetry_space_group_name_H-M    P1
_symmetry_Int_Tables_number       1
_space_group_crystal_system       triclinic
_cell_length_a                    15.891729
_cell_length_b                    8.948229
_cell_length_c                    7.623245
_cell_angle_alpha                 104.156742
_cell_angle_beta                  94.164743
_cell_angle_gamma                 95.903249
_cell_volume                      1040.16388149

loop_
_atom_site_label
_atom_site_type_symbol
_atom_type_description
_atom_site_fract_x
_atom_site_fract_y
_atom_site_fract_z
_atom_type_partial_charge
C1    C     C_R   0.491030 0.199067 0.452072 0.832361
C2    C     C_3   0.938559 0.385881 0.604764 0.275405
C3    C     C_3   0.917114 0.512702 0.501043 0.166555
C4    C     C_3   0.971647 0.680869 0.592557 0.135219
C5    C     C_3   0.072115 0.663125 0.568851 0.171182
C6    C     C_1   0.824675 0.519436 0.496778 0.006748
C7    C     C_1   0.173777 0.468217 0.498140 0.028754
C8    C     C_1   0.249918 0.475805 0.500226 -0.217477
C9    C     C_2   0.475378 0.028426 0.426560 -0.084107
C10   C     C_2   0.502521 0.968064 0.566196 -0.409997
C11   C     C_R   0.340348 0.491899 0.500215 0.786506
C12   C     C_R   0.501095 0.799770 0.546746 0.851448
C13   C     C_R   0.659289 0.504973 0.498894 0.833833
C14   C     C_3   0.038217 0.390340 0.623695 -0.085729
C15   C     C_3   0.034452 0.413773 0.292790 0.257975
C16   C     C_3   0.939737 0.456877 0.298137 -0.050053
C17   C     C_1   0.748944 0.514453 0.495915 -0.212565
C18   C     C_3   0.081425 0.481543 0.493828 0.126736
Cu1   Cu    Cu3+1 0.509300 0.517380 0.684380 0.928859
Cu2   Cu    Cu3+1 0.490700 0.482620 0.315620 0.926075
H1    H     H_    0.060234 0.456279 0.762236 0.154654
H2    H     H_    0.530954 0.043883 0.695367 0.163283
H3    H     H_    0.565716 0.627744 0.050254 0.209040
H4    H     H_    0.936589 0.556472 0.235372 0.159756
N1    N     N_2   0.476670 0.456430 0.038530 -0.114482
N2    N     N_2   0.523330 0.543570 0.961470 -0.215619
O1    O     O_R   0.506050 0.286130 0.619770 -0.620215
O2    O     O_R   0.490330 0.256780 0.308370 -0.588348
O3    O     O_R   0.387300 0.514690 0.655770 -0.596244
O4    O     O_R   0.371580 0.485340 0.344370 -0.605786
O5    O     O_R   0.509670 0.743220 0.691630 -0.585376
O6    O     O_R   0.493950 0.713870 0.380230 -0.596614
O7    O     O_R   0.628420 0.514660 0.655630 -0.575169
O8    O     O_R   0.612700 0.485310 0.344230 -0.572901
N3    N     N_3   0.892949 0.230785 0.509081 -0.558761
H5    H     H_    0.895960 0.153676 0.592050 0.192218
H6    H     H_    0.917996 0.178725 0.390707 0.274772
N4    N     N_3   0.909748 0.424248 0.787153 -0.643478
H7    H     H_    0.929643 0.342452 0.851340 0.189474
H8    H     H_    0.843347 0.405594 0.778093 0.239655
N5    N     N_3   0.944130 0.792751 0.492404 -0.645208
H9    H     H_    0.970696 0.905856 0.559298 0.216919
H10   H     H_    0.878315 0.792783 0.482068 0.218927
C19   C     C_3   0.426609 0.920706 0.251922 -0.342488
C20   C     C_3   0.373678 0.991489 0.127805 -0.420376
C21   C     C_3   0.320468 0.865147 0.976838 -0.832827
H11   H     H_    0.362450 0.801510 0.882653 0.283538
H12   H     H_    0.281953 0.780381 0.032772 0.251669
H13   H     H_    0.276742 0.919207 0.898885 0.249232
H14   H     H_    0.332401 0.068398 0.208174 0.218122
H15   H     H_    0.417593 0.056447 0.061663 0.252156
H16   H     H_    0.472806 0.858482 0.167900 0.232027
H17   H     H_    0.380364 0.836850 0.293475 0.227673
C22   C     C_3   0.415283 0.330928 0.927304 -0.040523
C23   C     C_3   0.325827 0.330721 0.990338 -0.376242
C24   C     C_3   0.258537 0.234671 0.842197 -0.954992
H18   H     H_    0.244300 0.300131 0.740383 0.293256
H19   H     H_    0.282365 0.126035 0.773131 0.256388
H20   H     H_    0.199099 0.206721 0.902178 0.256694
H21   H     H_    0.323114 0.276795 0.105327 0.237762
H22   H     H_    0.309101 0.451301 0.029588 0.245453
H23   H     H_    0.405446 0.335599 0.790020 0.232838
H24   H     H_    0.440649 0.220276 0.919335 0.115920
N6    N     N_3   0.067935 0.239758 0.616700 -0.610273
H25   H     H_    0.048834 0.202434 0.729174 0.188145
H26   H     H_    0.041121 0.154815 0.502362 0.263202
N7    N     N_3   0.076818 0.482975 0.160957 -0.681687
H27   H     H_    0.135571 0.442114 0.139658 0.223831
H28   H     H_    0.040172 0.448542 0.036819 0.217619
N8    N     N_3   0.036986 0.244956 0.233343 -0.615628
H29   H     H_    0.020481 0.204090 0.093236 0.192250
H30   H     H_    0.100362 0.225557 0.247984 0.223562
N9    N     N_3   0.874414 0.331939 0.191155 -0.571361
H31   H     H_    0.823345 0.381745 0.144291 0.227165
H32   H     H_    0.895714 0.265271 0.075914 0.214404
N10   N     N_3   0.128429 0.726594 0.742544 -0.610123
H33   H     H_    0.118739 0.673038 0.846857 0.202877
H34   H     H_    0.124812 0.843814 0.799266 0.204263
C25   C     C_3   0.109679 0.752204 0.429422 -0.290200
C26   C     C_3   0.154698 0.916526 0.508002 -0.378811
C27   C     C_3   0.175730 0.991815 0.355673 -0.901248
H35   H     H_    0.219884 0.924541 0.273211 0.265106
H36   H     H_    0.117284 0.988802 0.265652 0.261155
H37   H     H_    0.206070 0.113170 0.412606 0.262694
H38   H     H_    0.115249 0.985721 0.600405 0.236182
H39   H     H_    0.215441 0.910109 0.585659 0.231498
H40   H     H_    0.161554 0.693521 0.363939 0.212413
H41   H     H_    0.061042 0.752084 0.317378 0.228033
C28   C     C_3   0.958233 0.750859 0.800047 -0.364526
C29   C     C_3   0.867578 0.779712 0.848256 -0.347807
C30   C     C_3   0.868816 0.867856 0.047398 -0.867577
H42   H     H_    0.896275 0.800944 0.137463 0.266658
H43   H     H_    0.907104 0.983326 0.073861 0.259539
H44   H     H_    0.802969 0.885109 0.080068 0.252848
H45   H     H_    0.838722 0.849084 0.763088 0.212608
H46   H     H_    0.826188 0.669126 0.830494 0.244241
H47   H     H_    0.984121 0.681936 0.888654 0.213940
H48   H     H_    0.995936 0.867389 0.845483 0.181499

loop_
_geom_bond_atom_site_label_1
_geom_bond_atom_site_label_2
_ccdc_geom_bond_type
C2    N3    S    
C15   C18   S    
C23   C24   S    
N9    H32   S    
N5    H9    S    
C14   C18   S    
Cu1   Cu2   S    
C3    C6    S    
Cu1   O5    S    
C25   H40   S    
C27   H35   S    
C7    C8    T    
Cu2   O4    S    
C20   C21   S    
C10   H2    S    
C21   H13   S    
C14   H1    S    
N3    H6    S    
N10   H34   S    
N4    H7    S    
C4    N5    S    
C20   H15   S    
C15   C16   S    
C24   H18   S    
N9    H31   S    
H3    N2    S    
C6    C17   T    
Cu1   N2    S    
C22   H24   S    
C26   H39   S    
C21   H11   S    
C19   H17   S    
N3    H5    S    
C11   O4    A    
C1    O2    A    
N8    H29   S    
C5    C25   S    
Cu1   O1    S    
C9    C10   D    
Cu2   O8    S    
C19   H16   S    
C15   N7    S    
C16   H4    S    
C23   H21   S    
C12   O6    A    
N5    H10   S    
C25   H41   S    
C27   H36   S    
C21   H12   S    
N7    H27   S    
C29   H45   S    
C1    C9    S    
N1    C22   S    
Cu1   O7    S    
C30   H42   S    
C26   C27   S    
C5    C18   S    
Cu2   O2    S    
N1    N2    D    
C16   N9    S    
C28   H47   S    
N7    H28   S    
N6    H26   S    
C13   O7    A    
C26   H38   S    
C30   H43   S    
C2    N4    S    
C7    C18   S    
C14   N6    S    
N10   H33   S    
C10   C12   S    
C12   O5    A    
C3    C4    S    
Cu1   O3    S    
C27   H37   S    
C19   C20   S    
C4    C28   S    
Cu2   O6    S    
C15   N8    S    
C22   C23   S    
C9    C19   S    
C4    C5    S    
C29   H46   S    
C22   H23   S    
C24   H20   S    
C13   C17   S    
C28   H48   S    
N6    H25   S    
C5    N10   S    
C2    C3    S    
C13   O8    A    
C30   H44   S    
N4    H8    S    
C29   C30   S    
C20   H14   S    
C8    C11   S    
C23   H22   S    
C24   H19   S    
C2    C14   S    
C25   C26   S    
C11   O3    A    
Cu2   N1    S    
C1    O1    A    
N8    H30   S    
C28   C29   S    
C3    C16   S    
