data_mof_unit_16090.cif
_audit_creation_date              2012-12-11T14:44:22-0500
_audit_creation_method            fapswitch 2.2
_symmetry_space_group_name_H-M    P1
_symmetry_Int_Tables_number       1
_space_group_crystal_system       triclinic
_cell_length_a                    25.084073
_cell_length_b                    16.754819
_cell_length_c                    15.571589
_cell_angle_alpha                 90.000208
_cell_angle_beta                  49.878539
_cell_angle_gamma                 90.000067
_cell_volume                      5004.38261147

loop_
_atom_site_label
_atom_site_type_symbol
_atom_type_description
_atom_site_fract_x
_atom_site_fract_y
_atom_site_fract_z
_atom_type_partial_charge
C1    C     C_R   0.352732 0.147449 0.756073 -0.128302
C2    C     C_3   0.750151 0.789682 0.607605 -0.076355
C3    C     C_3   0.750043 0.210467 0.607671 -0.076317
C4    C     C_3   0.249817 0.789727 0.392414 -0.076363
C5    C     C_3   0.796835 0.792813 0.396190 -0.074214
C6    C     C_3   0.203062 0.206961 0.603854 -0.074190
C7    C     C_3   0.203195 0.792753 0.603793 -0.074220
C8    C     C_3   0.796941 0.206958 0.396145 -0.074199
C9    C     C_2   0.639844 0.265050 0.148826 0.454460
C10   C     C_2   0.360140 0.734967 0.851210 0.454479
C11   C     C_2   0.360156 0.265051 0.851172 0.454467
C12   C     C_R   0.647275 0.852558 0.243908 -0.128296
C13   C     C_2   0.639860 0.734967 0.148789 0.454482
C14   C     C_2   0.196972 0.648567 0.011666 0.455269
C15   C     C_2   0.803026 0.351440 0.988338 0.455248
C16   C     C_2   0.803029 0.648573 0.988330 0.455274
C17   C     C_2   0.196974 0.351437 0.011663 0.455257
C18   C     C_2   0.684702 0.310746 0.146811 -0.187016
C19   C     C_2   0.315296 0.689261 0.853202 -0.187034
C20   C     C_2   0.315298 0.310746 0.853187 -0.187015
C21   C     C_2   0.684703 0.689261 0.146799 -0.187039
C22   C     C_2   0.265980 0.637665 0.949709 -0.201654
C23   C     C_R   0.647268 0.147449 0.243927 -0.128305
C24   C     C_2   0.734018 0.362337 0.050295 -0.201664
C25   C     C_2   0.734021 0.637667 0.050290 -0.201654
C26   C     C_2   0.265982 0.362338 0.949703 -0.201669
C27   C     C_R   0.614694 0.108668 0.591985 0.429596
C28   C     C_R   0.385324 0.891281 0.408010 0.429499
C29   C     C_R   0.385304 0.108663 0.408015 0.429607
C30   C     C_R   0.614679 0.891289 0.591988 0.429514
C31   C     C_R   0.090995 0.646992 0.592149 0.451016
C32   C     C_R   0.908980 0.353022 0.407863 0.451014
C33   C     C_R   0.909000 0.646988 0.407854 0.451012
C34   C     C_R   0.352725 0.852559 0.756092 -0.128298
C35   C     C_R   0.091020 0.353022 0.592136 0.451016
C36   C     C_R   0.688608 0.108984 0.405650 -0.219759
C37   C     C_R   0.311411 0.890948 0.594350 -0.219793
C38   C     C_R   0.311391 0.108981 0.594350 -0.219764
C39   C     C_R   0.688591 0.890959 0.405650 -0.219785
C40   C     C_R   0.164772 0.646108 0.405015 -0.184156
C41   C     C_R   0.835199 0.353919 0.594999 -0.184131
C42   C     C_R   0.835222 0.646101 0.594988 -0.184151
C43   C     C_R   0.164803 0.353920 0.405000 -0.184131
C44   C     C_R   0.558879 0.144344 0.242474 0.006573
C45   C     C_R   0.833593 0.610884 0.803021 -0.156004
C46   C     C_R   0.441114 0.855664 0.757544 0.006543
C47   C     C_R   0.441121 0.144344 0.757525 0.006575
C48   C     C_R   0.558886 0.855663 0.242456 0.006537
C49   C     C_R   0.080188 0.603778 0.192747 0.022227
C50   C     C_R   0.919810 0.396228 0.807256 0.022367
C51   C     C_R   0.919813 0.603781 0.807251 0.022196
C52   C     C_R   0.080190 0.396229 0.192743 0.022375
C53   C     C_R   0.384824 0.189693 0.788215 -0.050233
C54   C     C_R   0.615187 0.810318 0.211756 -0.050211
C55   C     C_R   0.615176 0.189693 0.211783 -0.050228
C56   C     C_R   0.166408 0.389119 0.196977 -0.155990
C57   C     C_R   0.384813 0.810319 0.788243 -0.050214
C58   C     C_R   0.850914 0.625533 0.869378 -0.031408
C59   C     C_R   0.149089 0.374476 0.130616 -0.031457
C60   C     C_R   0.149087 0.625529 0.130619 -0.031415
C61   C     C_R   0.850911 0.374476 0.869384 -0.031451
C62   C     C_R   0.680847 0.127754 0.498486 -0.058238
C63   C     C_R   0.319188 0.872134 0.501510 -0.058243
C64   C     C_R   0.319150 0.127745 0.501514 -0.058235
C65   C     C_R   0.680818 0.872154 0.498488 -0.058243
C66   C     C_R   0.141870 0.690238 0.497562 -0.076131
C67   C     C_R   0.166408 0.610882 0.196978 -0.156012
C68   C     C_R   0.858079 0.309804 0.502459 -0.076103
C69   C     C_R   0.858119 0.690227 0.502443 -0.076122
C70   C     C_R   0.141922 0.309805 0.497540 -0.076106
C71   C     C_3   0.290261 0.241168 0.429414 -0.141680
C72   C     C_3   0.709713 0.758862 0.570798 -0.141386
C73   C     C_3   0.709740 0.241173 0.570578 -0.141687
C74   C     C_3   0.290293 0.758877 0.429137 -0.141308
C75   C     C_3   0.837741 0.823605 0.432595 -0.131639
C76   C     C_3   0.162284 0.176282 0.567167 -0.131961
C77   C     C_3   0.162251 0.823574 0.567473 -0.131552
C78   C     C_R   0.833592 0.389119 0.803023 -0.155997
C79   C     C_3   0.837714 0.176281 0.432840 -0.131974
C80   C     C_3   0.771319 0.866002 0.535818 -0.124500
C81   C     C_3   0.228784 0.134022 0.463899 -0.124339
C82   C     C_3   0.228648 0.866013 0.464263 -0.124551
C83   C     C_3   0.771210 0.134026 0.536109 -0.124331
C84   C     C_3   0.225018 0.282404 0.531962 -0.116191
C85   C     C_3   0.774882 0.717489 0.468294 -0.116470
C86   C     C_3   0.774988 0.282403 0.468028 -0.116186
C87   C     C_3   0.225148 0.717464 0.531628 -0.116552
C88   C     C_3   0.731763 0.833853 0.498862 0.141390
C89   C     C_3   0.249952 0.210460 0.392328 -0.076308
C90   C     C_3   0.268212 0.166058 0.501137 0.141381
C91   C     C_3   0.268242 0.833835 0.501135 0.141392
C92   C     C_3   0.731787 0.166060 0.498862 0.141390
C93   C     C_3   0.184772 0.251433 0.495423 0.145796
C94   C     C_3   0.815254 0.748572 0.504554 0.145770
C95   C     C_3   0.815228 0.251435 0.504575 0.145797
C96   C     C_3   0.184738 0.748576 0.495451 0.145764
Cl1   Cl    Cl    0.586544 0.098179 0.728055 -0.561803
Cl2   Cl    Cl    0.619742 0.284916 0.060855 -0.607929
Cl3   Cl    Cl    0.619790 0.715124 0.060771 -0.607940
Cl4   Cl    Cl    0.380256 0.284915 0.939147 -0.607925
Cl5   Cl    Cl    0.837846 0.297320 0.039806 -0.590442
Cl6   Cl    Cl    0.162155 0.702695 0.960199 -0.590513
Cl7   Cl    Cl    0.162153 0.297308 0.960201 -0.590436
Cl8   Cl    Cl    0.837847 0.702709 0.039793 -0.590514
Cl9   Cl    Cl    0.413444 0.901806 0.271961 -0.561848
Cl10  Cl    Cl    0.413455 0.098171 0.271944 -0.561787
Cl11  Cl    Cl    0.586551 0.901808 0.728043 -0.561849
Cl12  Cl    Cl    0.063456 0.662562 0.727072 -0.628380
Cl13  Cl    Cl    0.936583 0.337394 0.272909 -0.628353
Cl14  Cl    Cl    0.936551 0.662570 0.272925 -0.628383
Cl15  Cl    Cl    0.063420 0.337396 0.727089 -0.628354
Cl16  Cl    Cl    0.380217 0.715120 0.939217 -0.607933
H1    H     H_    0.306221 0.163346 0.769254 0.139105
H2    H     H_    0.232122 0.071978 0.436078 0.146311
H3    H     H_    0.231875 0.928128 0.436743 0.146077
H4    H     H_    0.767869 0.071984 0.563934 0.146314
H5    H     H_    0.223377 0.344340 0.559053 0.166927
H6    H     H_    0.776449 0.655501 0.441417 0.166810
H7    H     H_    0.776632 0.344337 0.440931 0.166932
H8    H     H_    0.223604 0.655461 0.558442 0.166776
H9    H     H_    0.304978 0.702202 0.796806 0.157142
H10   H     H_    0.695033 0.297797 0.203191 0.157157
H11   H     H_    0.695021 0.702202 0.203197 0.157140
H12   H     H_    0.693792 0.836664 0.230712 0.139100
H13   H     H_    0.304968 0.297797 0.796806 0.157152
H14   H     H_    0.714291 0.397428 0.017514 0.159888
H15   H     H_    0.285705 0.602570 0.982488 0.159878
H16   H     H_    0.285708 0.397433 0.982481 0.159886
H17   H     H_    0.714296 0.602568 0.017512 0.159877
H18   H     H_    0.736318 0.108168 0.319136 0.147196
H19   H     H_    0.263697 0.891755 0.680860 0.147218
H20   H     H_    0.263681 0.108166 0.680864 0.147199
H21   H     H_    0.736304 0.891767 0.319138 0.147213
H22   H     H_    0.207650 0.659574 0.318016 0.147399
H23   H     H_    0.693779 0.163347 0.230747 0.139102
H24   H     H_    0.792323 0.340462 0.682001 0.147338
H25   H     H_    0.792344 0.659566 0.681988 0.147388
H26   H     H_    0.207681 0.340465 0.317997 0.147339
H27   H     H_    0.523347 0.160926 0.229203 0.191069
H28   H     H_    0.476642 0.839085 0.770825 0.191072
H29   H     H_    0.476654 0.160927 0.770793 0.191071
H30   H     H_    0.523358 0.839084 0.229175 0.191062
H31   H     H_    0.056178 0.591823 0.156426 0.194761
H32   H     H_    0.943817 0.408191 0.843580 0.194741
H33   H     H_    0.943823 0.591827 0.843572 0.194766
H34   H     H_    0.306209 0.836665 0.769286 0.139093
H35   H     H_    0.056184 0.408194 0.156418 0.194731
H36   H     H_    0.343488 0.267254 0.373610 0.166181
H37   H     H_    0.656467 0.732829 0.626782 0.166312
H38   H     H_    0.656516 0.267261 0.626375 0.166179
H39   H     H_    0.343546 0.732864 0.373098 0.166353
H40   H     H_    0.891323 0.848620 0.376783 0.163154
H41   H     H_    0.108722 0.151214 0.622796 0.163046
H42   H     H_    0.108663 0.848572 0.623342 0.163188
H43   H     H_    0.891274 0.151210 0.377217 0.163046
H44   H     H_    0.267985 0.212646 0.305919 0.164485
H45   H     H_    0.781707 0.609738 0.829985 0.131922
H46   H     H_    0.732211 0.787646 0.693962 0.164468
H47   H     H_    0.732007 0.212657 0.694082 0.164489
H48   H     H_    0.267729 0.787732 0.306072 0.164456
H49   H     H_    0.815242 0.794333 0.309518 0.173515
H50   H     H_    0.184565 0.205284 0.690576 0.173431
H51   H     H_    0.184815 0.794230 0.690450 0.173535
H52   H     H_    0.815441 0.205276 0.309422 0.173433
H53   H     H_    0.218294 0.390265 0.170012 0.131906
H54   H     H_    0.218293 0.609736 0.170013 0.131922
H55   H     H_    0.781706 0.390265 0.829988 0.131903
H56   H     H_    0.768068 0.928102 0.563403 0.146124
N1    N     N_R   0.389620 0.081040 0.705440 -0.044064
N2    N     N_R   0.417680 0.920160 0.443370 -0.096619
N3    N     N_R   0.417680 0.079840 0.443370 -0.096653
N4    N     N_R   0.582320 0.920160 0.556630 -0.096624
N5    N     N_R   0.082320 0.579840 0.556630 -0.085040
N6    N     N_R   0.917680 0.420160 0.443370 -0.085054
N7    N     N_R   0.917680 0.579840 0.443370 -0.085045
N8    N     N_R   0.082320 0.420160 0.556630 -0.085052
N9    N     N_R   0.627920 0.078930 0.443400 -0.065556
N10   N     N_R   0.372080 0.921070 0.556600 -0.065534
N11   N     N_R   0.372080 0.078930 0.556600 -0.065557
N12   N     N_R   0.610380 0.918960 0.294560 -0.044066
N13   N     N_R   0.627920 0.921070 0.443400 -0.065538
N14   N     N_R   0.127920 0.578930 0.443400 -0.061578
N15   N     N_R   0.872080 0.421070 0.556600 -0.061580
N16   N     N_R   0.872080 0.578930 0.556600 -0.061579
N17   N     N_R   0.127920 0.421070 0.443400 -0.061580
N18   N     N_R   0.555090 0.077730 0.294590 -0.051552
N19   N     N_R   0.444910 0.922270 0.705410 -0.051555
N20   N     N_R   0.444910 0.077730 0.705410 -0.051552
N21   N     N_R   0.555090 0.922270 0.294590 -0.051555
N22   N     N_R   0.055090 0.577730 0.294590 -0.069485
N23   N     N_R   0.610380 0.081040 0.294560 -0.044063
N24   N     N_R   0.944910 0.422270 0.705410 -0.069475
N25   N     N_R   0.944910 0.577730 0.705410 -0.069486
N26   N     N_R   0.055090 0.422270 0.294590 -0.069476
N27   N     N_R   0.389620 0.918960 0.705440 -0.044065
N28   N     N_R   0.889620 0.581040 0.705440 -0.044630
N29   N     N_R   0.110380 0.418960 0.294560 -0.044629
N30   N     N_R   0.110380 0.581040 0.294560 -0.044630
N31   N     N_R   0.889620 0.418960 0.705440 -0.044629
N32   N     N_R   0.582320 0.079840 0.556630 -0.096652
Ni1   Ni    Ni4+2 0.382970 0.000000 0.629840 0.221957
Ni2   Ni    Ni4+2 0.617030 1.000000 0.370160 0.221954
Ni3   Ni    Ni4+2 0.882970 0.500000 0.629840 0.213522
Ni4   Ni    Ni4+2 0.117030 0.500000 0.370160 0.213521
Ni5   Ni    Ni4+2 0.514540 0.000000 0.629840 0.310653
Ni6   Ni    Ni4+2 0.485460 1.000000 0.370160 0.310654
Ni7   Ni    Ni4+2 0.014540 0.500000 0.629840 0.272929
Ni8   Ni    Ni4+2 0.985460 0.500000 0.370160 0.272923

loop_
_geom_bond_atom_site_label_1
_geom_bond_atom_site_label_2
_ccdc_geom_bond_type
C34   N27   A    
C31   C66   A    
N6    Ni8   S    
C13   Cl3   S    
N32   Ni5   S    
N25   Ni7   S    
C73   H38   S    
C31   Cl12  S    
N13   Ni2   S    
C76   C93   S    
C64   C90   S    
C67   N30   A    
C25   H17   S    
C23   N23   A    
C72   C85   S    
N20   Ni5   S    
N8    N17   A    
C33   N7    A    
C48   C54   A    
C83   C92   S    
N22   N30   A    
C78   H55   S    
C9    Cl2   S    
C49   C60   A    
N29   Ni4   S    
N14   Ni4   S    
C35   N8    A    
N8    Ni7   S    
C46   H28   S    
N4    Ni5   S    
C52   C59   A    
C82   H3    S    
N2    Ni6   S    
N12   Ni2   S    
N12   N21   A    
C7    H51   S    
C30   Cl11  S    
C36   C62   A    
C14   Cl6   S    
N26   N29   A    
C43   N17   A    
C76   H41   S    
C43   H26   S    
N24   N31   A    
N18   N23   A    
C1    C53   A    
C72   C88   S    
C4    C96   S    
C5    C88   S    
N4    N13   A    
C16   Cl8   S    
C7    C87   S    
C6    H50   S    
C60   C67   A    
C84   H5    S    
C79   C83   S    
N9    N32   A    
C62   C92   S    
C81   H2    S    
C34   C57   A    
C71   C84   S    
C10   Cl16  S    
C86   H7    S    
C9    C55   S    
N23   Ni2   S    
C74   C87   S    
C47   H29   S    
C50   N24   A    
C75   C80   S    
C10   C19   D    
C4    C74   S    
C11   C53   S    
C33   C69   A    
C32   C68   A    
C5    C85   S    
C45   N28   A    
C71   H36   S    
C29   C64   A    
N16   Ni3   S    
C40   C66   A    
C42   H25   S    
N31   Ni3   S    
C39   C65   A    
N3    N11   A    
C1    H1    S    
N7    Ni8   S    
N2    N10   A    
C2    C72   S    
C37   C63   A    
C50   H32   S    
C20   H13   S    
C41   C68   A    
C38   C64   A    
C11   C20   D    
C45   C58   A    
C68   C95   S    
C6    C84   S    
C32   Cl13  S    
N18   Ni6   S    
C13   C21   D    
C30   C65   A    
N11   Ni1   S    
C2    C94   S    
C70   C93   S    
C45   H45   S    
C35   C70   A    
C27   Cl1   S    
C69   C94   S    
C8    H52   S    
C89   H44   S    
C16   C58   S    
C49   N22   A    
N1    Ni1   S    
C42   N16   A    
C6    C90   S    
C32   N6    A    
C42   C69   A    
C15   Cl5   S    
C82   C91   S    
C37   H19   S    
C11   Cl4   S    
N28   Ni3   S    
C5    H49   S    
C74   C91   S    
C5    C75   S    
C79   C95   S    
C10   C57   S    
C37   N10   A    
C27   C62   A    
C36   H18   S    
C77   H42   S    
C8    C79   S    
C85   C94   S    
C12   H12   S    
N21   Ni6   S    
C2    H46   S    
N25   N28   A    
C7    C91   S    
C87   C96   S    
N19   Ni5   S    
C15   C61   S    
C52   N26   A    
N5    Ni7   S    
C51   C58   A    
C26   H16   S    
C29   N3    A    
N3    Ni6   S    
C6    C76   S    
C73   C92   S    
C4    C82   S    
C30   N4    A    
C48   N21   A    
C39   N13   A    
C71   C89   S    
C17   C59   S    
C8    C92   S    
C81   C90   S    
C67   H54   S    
N22   Ni8   S    
C15   C24   D    
C12   N12   A    
C28   Cl9   S    
C18   H10   S    
N5    N14   A    
C72   H37   S    
C44   H27   S    
C46   C57   A    
C51   N25   A    
C7    C77   S    
C46   N19   A    
N24   Ni7   S    
C18   C24   S    
C74   H39   S    
C78   N31   A    
C17   C26   D    
C56   H53   S    
C35   Cl15  S    
N17   Ni4   S    
C65   C88   S    
C66   C96   S    
C13   C54   S    
C39   H21   S    
C28   N2    A    
C16   C25   D    
C24   H14   S    
C33   Cl14  S    
C21   C25   S    
C29   Cl10  S    
C19   H9    S    
C38   N11   A    
N19   N27   A    
C56   N29   A    
C83   H4    S    
C27   N32   A    
N1    N20   A    
C76   C81   S    
C40   N14   A    
C23   C55   A    
N27   Ni1   S    
C23   H23   S    
C43   C70   A    
C75   H40   S    
N26   Ni8   S    
C36   N9    A    
C77   C96   S    
C56   C59   A    
C47   C53   A    
C14   C60   S    
N15   Ni3   S    
C14   C22   D    
C17   Cl7   S    
C81   C89   S    
C87   H8    S    
C80   C88   S    
C40   H22   S    
N30   Ni4   S    
C34   H34   S    
C44   C55   A    
C22   H15   S    
C4    H48   S    
C71   C90   S    
C20   C26   S    
C77   C82   S    
C49   H31   S    
C1    N1    A    
C8    C86   S    
C84   C93   S    
C89   C93   S    
C85   H6    S    
C3    C73   S    
C73   C86   S    
C38   H20   S    
C61   C78   A    
C2    C80   S    
C86   C95   S    
C3    H47   S    
C79   H43   S    
C28   C63   A    
C9    C18   D    
C48   H30   S    
C3    C83   S    
C31   N5    A    
C19   C22   S    
N10   Ni1   S    
C63   C91   S    
C50   C61   A    
C51   H33   S    
N9    Ni2   S    
C41   N15   A    
C3    C95   S    
C21   H11   S    
C47   N20   A    
N6    N15   A    
C80   H56   S    
C41   H24   S    
C12   C54   A    
C75   C94   S    
C44   N18   A    
C52   H35   S    
N7    N16   A    
