data_mof_unit_44130.cif
_audit_creation_date              2012-12-10T16:54:03-0500
_audit_creation_method            fapswitch 2.2
_symmetry_space_group_name_H-M    P1
_symmetry_Int_Tables_number       1
_space_group_crystal_system       triclinic
_cell_length_a                    9.673395
_cell_length_b                    10.948617
_cell_length_c                    13.385929
_cell_angle_alpha                 90.324425
_cell_angle_beta                  73.723183
_cell_angle_gamma                 89.103139
_cell_volume                      1360.64294927

loop_
_atom_site_label
_atom_site_type_symbol
_atom_type_description
_atom_site_fract_x
_atom_site_fract_y
_atom_site_fract_z
_atom_type_partial_charge
C1    C     C_R   0.499567 0.734673 0.498417 0.891685
C2    C     C_R   0.442006 0.571207 0.975409 0.060114
C3    C     C_R   0.486740 0.577454 0.865319 0.047527
C4    C     C_R   0.548200 0.548832 0.028518 0.084667
C5    C     C_R   0.694700 0.538320 0.970583 0.151018
C6    C     C_R   0.736738 0.575172 0.867109 -0.312976
C7    C     C_R   0.632842 0.606018 0.816469 -0.103226
C8    C     C_R   0.513719 0.532222 0.136348 -0.256887
C9    C     C_R   0.759990 0.466731 0.123346 -0.022863
C10   C     C_R   0.383056 0.556512 0.809608 -0.082348
C11   C     C_2   0.625297 0.061223 0.486020 0.146560
C12   C     C_R   0.424701 0.518043 0.698464 0.815050
C13   C     C_2   0.503784 0.132059 0.506184 -0.367493
C14   C     C_2   0.610406 0.929255 0.504487 -0.088126
C15   C     C_2   0.500585 0.866254 0.489305 -0.354829
C16   C     C_2   0.104151 0.550332 0.429604 -0.061443
C17   C     C_2   0.947334 0.555838 0.432571 -0.005360
C18   C     C_R   0.502023 0.264833 0.499358 0.866480
C19   C     C_R   0.576281 0.495485 0.299749 0.823880
C20   C     C_R   0.798290 0.494994 0.017401 -0.247557
C21   C     C_R   0.618587 0.496146 0.184962 -0.121096
C22   C     C_R   0.236285 0.568946 0.862845 -0.186708
C23   C     C_R   0.193198 0.591107 0.969440 -0.083605
C24   C     C_R   0.293299 0.585325 0.026456 -0.140226
Cu1   Cu    Cu3+1 0.361370 0.499980 0.499980 0.954491
Cu2   Cu    Cu3+1 0.638630 0.500020 0.500020 0.977093
H1    H     H_    0.398352 0.091740 0.534093 0.147109
H2    H     H_    0.695502 0.881541 0.527522 0.221265
H3    H     H_    0.414521 0.909727 0.464310 0.146997
H4    H     H_    0.180002 0.591942 0.363733 0.145021
H5    H     H_    0.080981 0.467657 0.566409 0.186209
H6    H     H_    0.918374 0.607817 0.372465 0.146773
H7    H     H_    0.873642 0.446362 0.554771 0.180849
H8    H     H_    0.850225 0.587147 0.829604 0.135138
H9    H     H_    0.907470 0.477386 0.969749 0.161127
H10   H     H_    0.405317 0.547479 0.184421 0.151722
H11   H     H_    0.154403 0.562172 0.822137 0.146981
H12   H     H_    0.251007 0.594031 0.109713 0.129936
H13   H     H_    0.080540 0.607008 0.009010 0.167549
N1    N     N_2   0.152660 0.501340 0.501130 -0.282294
N2    N     N_2   0.846520 0.501370 0.501160 -0.276318
O1    O     O_R   0.382960 0.678040 0.499980 -0.579954
O2    O     O_R   0.617100 0.678080 0.500020 -0.555040
O3    O     O_R   0.325800 0.499940 0.650950 -0.584464
O4    O     O_R   0.559930 0.499980 0.650990 -0.588908
O5    O     O_R   0.382900 0.321920 0.499980 -0.566861
O6    O     O_R   0.617040 0.321960 0.500020 -0.578399
O7    O     O_R   0.440070 0.500020 0.349010 -0.591715
O8    O     O_R   0.674200 0.500060 0.349050 -0.565862
C25   C     C_2   0.865459 0.398002 0.164438 0.849988
O9    O     O_2   0.823905 0.320236 0.230674 -0.613783
O10   O     O_R   0.012883 0.416701 0.123487 -0.799412
H14   H     H_    0.073507 0.363414 0.157174 0.334232
C26   C     C_2   0.670853 0.694150 0.728603 0.925438
O11   O     O_2   0.578969 0.766469 0.717633 -0.588209
O12   O     O_R   0.809667 0.700956 0.660457 -0.739004
H15   H     H_    0.876988 0.632306 0.667864 0.277003
C27   C     C_3   0.776562 0.113373 0.447377 -0.319680
C28   C     C_3   0.898775 0.019194 0.407590 -0.861525
H16   H     H_    0.917419 0.965719 0.472987 0.258887
H17   H     H_    0.874215 0.956869 0.349279 0.259989
H18   H     H_    0.999968 0.067269 0.369645 0.253716
H19   H     H_    0.779509 0.174354 0.381092 0.264933
H20   H     H_    0.800592 0.167239 0.510922 0.216745

loop_
_geom_bond_atom_site_label_1
_geom_bond_atom_site_label_2
_ccdc_geom_bond_type
Cu1   O1    S    
C24   H12   S    
C23   C24   A    
C6    C7    A    
C1    C15   S    
C11   C27   S    
C13   H1    S    
C19   O8    A    
C9    C20   A    
C25   O10   S    
Cu2   O4    S    
C4    C8    A    
H7    N2    S    
C18   O6    A    
C14   C15   D    
C25   O9    D    
Cu1   Cu2   S    
C28   H16   S    
C12   O3    A    
C3    C10   A    
O10   H14   S    
C2    C24   A    
C11   C13   D    
Cu1   O7    S    
C9    C21   A    
C10   C12   S    
Cu2   O6    S    
C16   N1    D    
C23   H13   S    
C2    C4    A    
C18   O5    A    
Cu1   O3    S    
C19   C21   S    
C1    O2    A    
Cu2   O2    S    
C15   H3    S    
C3    C7    A    
C2    C3    A    
Cu1   N1    S    
C27   H20   S    
C5    C6    A    
C11   C14   S    
C26   O12   S    
C28   H17   S    
C17   N2    D    
O12   H15   S    
C16   H4    S    
C12   O4    A    
C1    O1    A    
H5    N1    S    
C13   C18   S    
C8    H10   S    
Cu2   O8    S    
C27   H19   S    
C5    C20   A    
C17   H6    S    
C26   O11   D    
C16   C17   S    
C28   H18   S    
C19   O7    A    
C7    C26   S    
C14   H2    S    
C27   C28   S    
C22   C23   A    
C22   H11   S    
Cu1   O5    S    
C20   H9    S    
C10   C22   A    
C9    C25   S    
C6    H8    S    
Cu2   N2    S    
C4    C5    A    
C8    C21   A    
