data_mof_unit_53753.cif
_audit_creation_date              2012-10-26T17:11:24-0400
_audit_creation_method            fapswitch 2.2
_symmetry_space_group_name_H-M    P1
_symmetry_Int_Tables_number       1
_space_group_crystal_system       triclinic
_cell_length_a                    27.938151
_cell_length_b                    18.853021
_cell_length_c                    16.88719
_cell_angle_alpha                 90.391755
_cell_angle_beta                  62.134258
_cell_angle_gamma                 90.045401
_cell_volume                      7863.18949114

loop_
_atom_site_label
_atom_site_type_symbol
_atom_type_description
_atom_site_fract_x
_atom_site_fract_y
_atom_site_fract_z
_atom_type_partial_charge
C1    C     C_R   0.297559 0.733359 0.328791 0.552738
C2    C     C_R   0.592192 0.999825 0.524740 0.015885
C3    C     C_R   0.696552 0.700105 0.899982 -0.019978
C4    C     C_R   0.927006 0.902643 0.066124 0.549448
C5    C     C_R   0.075879 0.093557 0.931011 0.557268
C6    C     C_R   0.070960 0.899928 0.935219 0.551835
C7    C     C_R   0.924102 0.093204 0.069030 0.557929
C8    C     C_R   0.428226 0.400701 0.065190 0.544020
C9    C     C_R   0.573416 0.596870 0.933579 0.558374
C10   C     C_R   0.569778 0.398778 0.936041 0.550514
C11   C     C_R   0.423997 0.593207 0.069270 0.553840
C12   C     C_R   0.068105 0.619965 0.441378 0.008094
C13   C     C_R   0.902892 0.498626 0.486048 0.017504
C14   C     C_R   0.936185 0.378511 0.547352 0.005319
C15   C     C_R   0.970778 0.618118 0.429003 0.004564
C16   C     C_R   0.031064 0.382196 0.566250 0.011189
C17   C     C_R   0.542953 0.128262 0.517321 0.009385
C18   C     C_R   0.463512 0.871782 0.456501 0.014191
C19   C     C_R   0.461098 0.128543 0.464769 0.010439
C20   C     C_R   0.544748 0.871492 0.510590 -0.000980
C21   C     C_R   0.053860 0.677570 0.404277 -0.135861
C22   C     C_R   0.951435 0.319616 0.581094 -0.150221
C23   C     C_R   0.005546 0.676752 0.398431 -0.134638
C24   C     C_R   0.098471 0.502003 0.510628 0.020999
C25   C     C_R   0.998099 0.321804 0.591538 -0.145628
C26   C     C_R   0.521280 0.192627 0.506967 -0.132986
C27   C     C_R   0.485613 0.807485 0.465779 -0.146207
C28   C     C_R   0.481947 0.192801 0.477843 -0.132015
C29   C     C_R   0.524058 0.807307 0.496844 -0.156861
C30   C     C_R   0.985423 0.559515 0.464452 0.012826
C31   C     C_R   0.016149 0.441283 0.531848 0.010443
C32   C     C_R   0.034035 0.560567 0.471215 0.016676
C33   C     C_R   0.968305 0.439636 0.522979 0.011859
C34   C     C_R   0.481556 0.064218 0.477321 0.021375
C35   C     C_R   0.585010 0.872099 0.537507 -0.122410
C36   C     C_R   0.525405 0.935807 0.495846 0.014112
C37   C     C_R   0.524197 0.064122 0.499968 0.021626
C38   C     C_R   0.482947 0.935929 0.472710 0.016018
C39   C     C_R   0.459743 0.000087 0.466265 -0.006535
C40   C     C_R   0.546694 0.999904 0.508421 -0.006651
C41   C     C_R   0.952225 0.499244 0.491004 -0.010462
C42   C     C_R   0.049279 0.501575 0.505486 -0.009360
C43   C     C_R   0.388611 0.935070 0.450487 -0.013678
C44   C     C_R   0.614467 0.064813 0.534096 -0.017729
C45   C     C_R   0.614907 0.934762 0.532013 -0.018709
C46   C     C_R   0.418671 0.127772 0.442892 -0.118397
C47   C     C_R   0.388127 0.065083 0.452583 -0.019349
C48   C     C_R   0.871685 0.436164 0.507146 -0.009162
C49   C     C_R   0.130405 0.563777 0.487410 -0.019425
C50   C     C_R   0.116097 0.440388 0.537590 -0.010370
C51   C     C_R   0.884737 0.560513 0.460653 -0.023237
C52   C     C_R   0.333607 0.935013 0.465678 -0.024382
C53   C     C_R   0.667688 0.064788 0.527509 -0.031192
C54   C     C_R   0.667833 0.935012 0.526703 -0.032794
C55   C     C_R   0.333391 0.064956 0.466470 -0.031117
C56   C     C_R   0.823727 0.435458 0.497528 -0.027587
C57   C     C_R   0.419947 0.872578 0.437251 -0.110486
C58   C     C_R   0.177399 0.564687 0.499381 -0.034316
C59   C     C_R   0.170799 0.437183 0.523551 -0.024370
C60   C     C_R   0.829980 0.563273 0.474580 -0.035905
C61   C     C_R   0.304957 0.000013 0.485399 -0.063062
C62   C     C_R   0.696144 0.999856 0.510576 -0.067405
C63   C     C_R   0.798949 0.500225 0.497745 -0.063897
C64   C     C_R   0.202200 0.499969 0.498607 -0.060186
C65   C     C_R   0.245566 0.000023 0.548580 0.081078
C66   C     C_R   0.228233 0.998499 0.641156 -0.096804
C67   C     C_R   0.173039 0.996876 0.701829 -0.105246
C68   C     C_R   0.583902 0.127359 0.542731 -0.118514
C69   C     C_R   0.134716 0.997028 0.670578 -0.097502
C70   C     C_R   0.151520 0.998756 0.578589 -0.115182
C71   C     C_R   0.206706 0.000162 0.517606 -0.003416
C72   C     C_R   0.756007 0.999618 0.450819 0.079367
C73   C     C_R   0.775597 0.998932 0.357584 -0.097263
C74   C     C_R   0.831259 0.998623 0.299899 -0.104758
C75   C     C_R   0.867847 0.998931 0.334709 -0.099082
C76   C     C_R   0.848811 0.999526 0.427378 -0.113012
C77   C     C_R   0.793128 0.999867 0.485441 -0.002128
C78   C     C_R   0.738503 0.502526 0.541857 0.087067
C79   C     C_R   0.079598 0.383074 0.571778 -0.112976
C80   C     C_R   0.709955 0.499836 0.491805 -0.004646
C81   C     C_R   0.653340 0.500168 0.535347 -0.113632
C82   C     C_R   0.624903 0.503314 0.628877 -0.099649
C83   C     C_R   0.653076 0.507026 0.678750 -0.108093
C84   C     C_R   0.709577 0.507498 0.635372 -0.097304
C85   C     C_R   0.262357 0.497067 0.445791 0.082273
C86   C     C_R   0.295887 0.498617 0.487219 -0.007988
C87   C     C_R   0.352207 0.497734 0.435104 -0.120832
C88   C     C_R   0.375343 0.495952 0.341646 -0.095491
C89   C     C_R   0.342180 0.495026 0.300257 -0.103904
C90   C     C_R   0.921315 0.617907 0.426060 -0.125068
C91   C     C_R   0.285995 0.495461 0.351963 -0.101536
C92   C     C_3   0.179492 0.882530 0.079284 -0.268599
C93   C     C_3   0.199428 0.946091 0.016348 -0.414038
C94   C     C_3   0.864539 0.223329 0.881217 -0.270191
C95   C     C_3   0.898800 0.283304 0.889502 -0.423235
C96   C     C_3   0.852299 0.659829 0.961036 -0.285478
C97   C     C_3   0.897249 0.670685 0.865551 -0.433613
C98   C     C_3   0.130349 0.224724 0.122951 -0.270486
C99   C     C_3   0.091807 0.280603 0.119454 -0.416903
C100  C     C_3   0.666071 0.361771 0.096478 -0.271572
C101  C     C_R   0.888229 0.377630 0.540829 -0.104946
C102  C     C_3   0.682245 0.431502 0.044865 -0.405045
C103  C     C_3   0.363906 0.713861 0.880566 -0.269018
C104  C     C_3   0.402887 0.770671 0.880761 -0.416392
C105  C     C_3   0.314018 0.392118 0.929546 -0.268920
C106  C     C_3   0.294332 0.454648 0.995359 -0.416445
C107  C     C_3   0.656551 0.820502 0.032655 -0.270330
C108  C     C_3   0.664187 0.872205 0.958582 -0.437184
C109  C     C_R   0.277773 0.822645 0.755159 0.045189
C110  C     C_R   0.319977 0.774904 0.704788 -0.072497
C111  C     C_R   0.373830 0.796897 0.668041 -0.112208
C112  C     C_R   0.707907 0.278538 0.668406 0.551797
C113  C     C_R   0.116084 0.620821 0.448341 -0.121644
C114  C     C_R   0.386040 0.866854 0.679518 -0.091036
C115  C     C_R   0.344430 0.915454 0.725862 -0.117305
C116  C     C_R   0.290553 0.893450 0.763835 -0.096885
C117  C     C_R   0.791596 0.330686 0.188778 0.041499
C118  C     C_R   0.740510 0.357477 0.250590 -0.066986
C119  C     C_R   0.732914 0.430198 0.268004 -0.120326
C120  C     C_R   0.776252 0.476690 0.225039 -0.115485
C121  C     C_R   0.826662 0.451075 0.161630 -0.116265
C122  C     C_R   0.834313 0.378391 0.143332 -0.091563
C123  C     C_R   0.737708 0.727744 0.221408 0.071570
C124  C     C_R   0.224955 0.786292 0.952703 0.037679
C125  C     C_R   0.735895 0.656370 0.198967 -0.083275
C126  C     C_R   0.686169 0.622089 0.228039 -0.121878
C127  C     C_R   0.637960 0.659267 0.278483 -0.117171
C128  C     C_R   0.639478 0.730743 0.299667 -0.118548
C129  C     C_R   0.689111 0.764981 0.271594 -0.060832
C130  C     C_R   0.196649 0.339196 0.816814 0.030951
C131  C     C_R   0.244838 0.371770 0.754134 -0.081075
C132  C     C_R   0.248308 0.445630 0.746985 -0.122673
C133  C     C_R   0.203785 0.487791 0.801626 -0.102294
C134  C     C_R   0.155811 0.456145 0.864064 -0.112774
C135  C     C_R   0.783840 0.241093 0.041744 0.035651
C136  C     C_R   0.152243 0.382303 0.871761 -0.093341
C137  C     C_R   0.758949 0.361882 0.780399 0.037345
C138  C     C_R   0.813689 0.348340 0.754564 -0.091409
C139  C     C_R   0.847905 0.403639 0.752063 -0.103934
C140  C     C_R   0.828933 0.473389 0.769396 -0.103477
C141  C     C_R   0.775230 0.487913 0.791539 -0.132489
C142  C     C_R   0.740422 0.432643 0.797604 -0.106289
C143  C     C_R   0.299781 0.836414 0.183756 0.034790
C144  C     C_R   0.251490 0.868850 0.247375 -0.079234
C145  C     C_R   0.247063 0.942748 0.254200 -0.122176
C146  C     C_R   0.786264 0.763090 0.036341 0.022108
C147  C     C_R   0.290625 0.985094 0.197939 -0.103160
C148  C     C_R   0.338603 0.953584 0.134307 -0.112784
C149  C     C_R   0.343186 0.879696 0.127154 -0.091833
C150  C     C_R   0.218898 0.326432 0.252464 0.041219
C151  C     C_R   0.177744 0.278004 0.303774 -0.070987
C152  C     C_R   0.123475 0.299214 0.345147 -0.112575
C153  C     C_R   0.109722 0.368585 0.335477 -0.091515
C154  C     C_R   0.150199 0.417770 0.287615 -0.112592
C155  C     C_R   0.204493 0.396857 0.246286 -0.096566
C156  C     C_R   0.778368 0.731201 0.757569 0.062647
C157  C     C_R   0.208245 0.255013 0.963544 0.035750
C158  C     C_R   0.814774 0.679995 0.699946 -0.073944
C159  C     C_R   0.870326 0.693650 0.656072 -0.108569
C160  C     C_R   0.889960 0.758663 0.668561 -0.116996
C161  C     C_R   0.854008 0.810126 0.725110 -0.121072
C162  C     C_R   0.798375 0.796581 0.769523 -0.068998
C163  C     C_R   0.720313 0.279531 0.955812 0.041149
C164  C     C_R   0.287004 0.746840 0.040671 0.034780
C165  C     C_R   0.269555 0.294803 0.052970 0.037775
C166  C     C_R   0.724738 0.720165 0.952156 0.022542
C167  C     C_R   0.268789 0.738626 0.914106 -0.107965
C168  C     C_R   0.707120 0.724127 0.668971 0.552827
C169  C     C_R   0.731707 0.270276 0.089275 -0.107806
C170  C     C_R   0.739463 0.800537 0.051192 -0.106524
C171  C     C_R   0.256458 0.294463 0.921006 -0.108488
C172  C     C_R   0.768878 0.240592 0.911102 -0.111323
C173  C     C_R   0.238314 0.785532 0.084540 -0.109265
C174  C     C_R   0.225410 0.247895 0.090983 -0.108495
C175  C     C_R   0.771352 0.682340 0.937794 -0.101173
C176  C     C_R   0.305385 0.730338 0.948505 0.021278
C177  C     C_R   0.704756 0.301179 0.045845 0.023825
C178  C     C_R   0.707966 0.779497 0.010653 0.027117
C179  C     C_R   0.291579 0.278767 0.332420 0.565083
C180  C     C_R   0.281098 0.324965 0.968814 0.020657
C181  C     C_R   0.804721 0.232444 0.947459 0.023054
C182  C     C_R   0.213156 0.815907 0.037797 0.021420
C183  C     C_R   0.189178 0.239709 0.055833 0.019938
C184  C     C_R   0.802719 0.703293 0.978732 0.030897
C185  C     C_R   0.139282 0.821016 0.945606 -0.132182
C186  C     C_R   0.847944 0.160212 0.065887 -0.132757
C187  C     C_R   0.859567 0.825245 0.051735 -0.136035
C188  C     C_R   0.149882 0.166256 0.935036 -0.134997
C189  C     C_R   0.634283 0.313155 0.947488 -0.133074
C190  C     C_R   0.797013 0.232206 0.328774 0.568799
C191  C     C_R   0.347737 0.661611 0.067842 -0.134992
C192  C     C_R   0.356600 0.326406 0.057113 -0.131259
C193  C     C_R   0.647055 0.664886 0.942481 -0.141298
C194  C     C_R   0.113971 0.846341 0.896858 -0.031166
C195  C     C_R   0.878289 0.142393 0.109557 -0.030692
C196  C     C_R   0.883392 0.850437 0.103328 -0.023366
C197  C     C_R   0.120895 0.144402 0.890533 -0.033245
C198  C     C_R   0.610718 0.342611 0.898193 -0.034729
C199  C     C_R   0.378556 0.643238 0.110293 -0.032287
C200  C     C_R   0.383724 0.349091 0.104397 -0.031658
C201  C     C_R   0.207960 0.778189 0.668052 0.571515
C202  C     C_R   0.619191 0.645905 0.894700 -0.025717
C203  C     C_R   0.135327 0.828003 0.807069 -0.157191
C204  C     C_R   0.862676 0.168958 0.194790 -0.159353
C205  C     C_R   0.862713 0.830034 0.192498 -0.161634
C206  C     C_R   0.137105 0.169159 0.804485 -0.156482
C207  C     C_R   0.633394 0.326782 0.807377 -0.158742
C208  C     C_R   0.363658 0.670345 0.195080 -0.158760
C209  C     C_R   0.363253 0.329616 0.193541 -0.159001
C210  C     C_R   0.638168 0.668780 0.806929 -0.165472
C211  C     C_R   0.187462 0.800134 0.761857 -0.018631
C212  C     C_R   0.202535 0.233146 0.671343 0.561666
C213  C     C_R   0.821951 0.219653 0.231490 -0.017735
C214  C     C_R   0.816084 0.788614 0.233284 -0.027907
C215  C     C_R   0.176115 0.222272 0.768933 -0.016450
C216  C     C_R   0.686002 0.300158 0.763277 -0.018656
C217  C     C_R   0.323732 0.722306 0.231313 -0.016008
C218  C     C_R   0.310890 0.302475 0.239765 -0.017085
C219  C     C_R   0.687960 0.703068 0.762629 -0.028960
C220  C     C_R   0.220219 0.799923 0.805617 -0.024457
C221  C     C_R   0.803590 0.253354 0.175573 -0.018769
C222  C     C_R   0.790114 0.766092 0.181932 -0.022925
C223  C     C_R   0.794320 0.772907 0.329620 0.548453
C224  C     C_R   0.190634 0.260639 0.827019 -0.018099
C225  C     C_R   0.717749 0.304296 0.809017 -0.016845
C226  C     C_R   0.307044 0.757853 0.174497 -0.018346
C227  C     C_R   0.276788 0.304778 0.198454 -0.024549
C228  C     C_R   0.719678 0.714052 0.807502 -0.024455
C229  C     C_R   0.202128 0.631469 0.509213 0.566606
C230  C     C_R   0.798424 0.368629 0.489261 0.554637
C231  C     C_R   0.802197 0.631252 0.476776 0.540512
C232  C     C_R   0.198088 0.368925 0.522371 0.551772
C233  C     C_R   0.697776 0.131481 0.522285 0.561290
C234  C     C_R   0.412207 0.000069 0.455889 0.016425
C235  C     C_R   0.302681 0.868330 0.475662 0.555874
C236  C     C_R   0.302521 0.131577 0.476137 0.562321
C237  C     C_R   0.697872 0.868527 0.521946 0.552109
C238  C     C_R   0.194398 0.802481 0.901138 -0.011101
C239  C     C_R   0.813084 0.219300 0.093690 -0.011379
C240  C     C_R   0.813287 0.783450 0.090338 -0.028085
C241  C     C_R   0.181685 0.228248 0.909056 -0.008659
C242  C     C_R   0.689828 0.296326 0.904080 -0.000264
C243  C     C_R   0.315073 0.722988 0.093776 -0.010986
C244  C     C_R   0.301300 0.309066 0.103167 -0.010977
Cu1   Cu    Cu3+1 0.209920 0.785290 0.495070 0.890139
Cu2   Cu    Cu3+1 0.504760 0.500000 0.075850 0.869210
Cu3   Cu    Cu3+1 0.995240 1.000000 0.924150 0.871221
Cu4   Cu    Cu3+1 0.004760 1.000000 0.075850 0.869048
Cu5   Cu    Cu3+1 0.790080 0.214710 0.504930 0.898251
Cu6   Cu    Cu3+1 0.790080 0.785290 0.504930 0.920180
Cu7   Cu    Cu3+1 0.209920 0.214710 0.495070 0.889307
Cu8   Cu    Cu3+1 0.709920 0.285290 0.495070 0.896433
Cu9   Cu    Cu3+1 0.290080 0.714710 0.504930 0.887109
Cu10  Cu    Cu3+1 0.290080 0.285290 0.504930 0.891411
Cu11  Cu    Cu3+1 0.709920 0.714710 0.495070 0.912493
Cu12  Cu    Cu3+1 0.495240 0.500000 0.924150 0.871845
H1    H     H_    0.538848 0.756977 0.507368 0.100171
H2    H     H_    0.410450 0.177164 0.420145 0.149408
H3    H     H_    0.643640 0.851482 0.095680 0.135281
H4    H     H_    0.311583 0.719750 0.698220 0.108370
H5    H     H_    0.406070 0.759029 0.632823 0.097639
H6    H     H_    0.427714 0.883354 0.653120 0.127413
H7    H     H_    0.353935 0.969830 0.733913 0.108534
H8    H     H_    0.258712 0.931323 0.801555 0.093575
H9    H     H_    0.706720 0.322263 0.286837 0.110951
H10   H     H_    0.693735 0.450325 0.316532 0.084185
H11   H     H_    0.770967 0.532333 0.242187 0.109077
H12   H     H_    0.860102 0.487363 0.128041 0.101498
H13   H     H_    0.411044 0.823321 0.414448 0.146998
H14   H     H_    0.874048 0.358984 0.095886 0.099898
H15   H     H_    0.773027 0.628202 0.156764 0.091975
H16   H     H_    0.684992 0.567107 0.210158 0.102730
H17   H     H_    0.599436 0.633001 0.300072 0.097202
H18   H     H_    0.602223 0.759970 0.336303 0.116948
H19   H     H_    0.689776 0.820746 0.286958 0.101686
H20   H     H_    0.280518 0.340557 0.713213 0.121818
H21   H     H_    0.285746 0.470202 0.699562 0.084425
H22   H     H_    0.206561 0.544974 0.795928 0.111634
H23   H     H_    0.121344 0.488842 0.906582 0.105610
H24   H     H_    0.590234 0.176427 0.569163 0.150097
H25   H     H_    0.114685 0.358607 0.920327 0.101471
H26   H     H_    0.829920 0.295265 0.737948 0.084126
H27   H     H_    0.889288 0.392519 0.736771 0.122153
H28   H     H_    0.855696 0.516030 0.766391 0.103836
H29   H     H_    0.759958 0.541678 0.806705 0.100048
H30   H     H_    0.698203 0.444891 0.819640 0.106866
H31   H     H_    0.216481 0.837427 0.289597 0.116753
H32   H     H_    0.209645 0.967191 0.302717 0.084558
H33   H     H_    0.287105 0.042304 0.203345 0.109835
H34   H     H_    0.372317 0.986422 0.090537 0.106493
H35   H     H_    0.088106 0.338531 0.603112 0.137426
H36   H     H_    0.380778 0.856111 0.077771 0.102460
H37   H     H_    0.187083 0.222855 0.307538 0.112133
H38   H     H_    0.091948 0.261264 0.382501 0.098573
H39   H     H_    0.067654 0.384033 0.364352 0.124459
H40   H     H_    0.139446 0.471802 0.281237 0.112727
H41   H     H_    0.235336 0.435228 0.207640 0.093610
H42   H     H_    0.800141 0.629443 0.689422 0.093844
H43   H     H_    0.898156 0.653585 0.613039 0.124946
H44   H     H_    0.933032 0.769060 0.634629 0.109147
H45   H     H_    0.869281 0.860415 0.734884 0.097082
H46   H     H_    0.912455 0.662540 0.395278 0.142464
H47   H     H_    0.771122 0.836708 0.813465 0.103570
H48   H     H_    0.862346 0.332648 0.570203 0.149708
H49   H     H_    0.143315 0.664678 0.417828 0.142573
H50   H     H_    0.277003 0.710854 0.853172 0.096690
H51   H     H_    0.712594 0.272707 0.161134 0.099204
H52   H     H_    0.726920 0.845739 0.096527 0.104699
H53   H     H_    0.466300 0.243076 0.469099 0.097710
H54   H     H_    0.274941 0.303800 0.850323 0.103063
H55   H     H_    0.781051 0.220738 0.844215 0.098916
H56   H     H_    0.220245 0.794927 0.155410 0.099331
H57   H     H_    0.216912 0.219950 0.151409 0.097564
H58   H     H_    0.783604 0.636518 0.893515 0.106065
H59   H     H_    0.116522 0.820172 0.017238 0.126835
H60   H     H_    0.851519 0.127226 0.011228 0.126795
H61   H     H_    0.875514 0.840319 0.982151 0.137641
H62   H     H_    0.147548 0.134034 0.988778 0.124007
H63   H     H_    0.610011 0.308810 0.018406 0.124532
H64   H     H_    0.470847 0.757313 0.454305 0.096983
H65   H     H_    0.349318 0.627186 0.015895 0.122714
H66   H     H_    0.378287 0.326153 0.985348 0.128100
H67   H     H_    0.631588 0.649925 0.012012 0.134112
H68   H     H_    0.112666 0.839464 0.771220 0.156292
H69   H     H_    0.881240 0.148503 0.233766 0.159452
H70   H     H_    0.881831 0.849084 0.231506 0.157336
H71   H     H_    0.120509 0.145390 0.764059 0.158645
H72   H     H_    0.611605 0.339325 0.770398 0.156503
H73   H     H_    0.381756 0.648957 0.234297 0.159274
H74   H     H_    0.387032 0.339030 0.228094 0.154819
H75   H     H_    0.535786 0.242803 0.519009 0.097217
H76   H     H_    0.615214 0.656897 0.771564 0.154201
H77   H     H_    0.257578 0.998385 0.666092 0.100163
H78   H     H_    0.160014 0.995476 0.773063 0.120542
H79   H     H_    0.091983 0.995826 0.717590 0.135600
H80   H     H_    0.121786 0.998811 0.554513 0.073152
H81   H     H_    0.219379 0.001070 0.446435 0.106036
H82   H     H_    0.747664 0.998620 0.329729 0.098379
H83   H     H_    0.845978 0.998112 0.228177 0.126373
H84   H     H_    0.910950 0.998689 0.289885 0.128116
H85   H     H_    0.877202 0.999720 0.454235 0.077401
H86   H     H_    0.008908 0.275741 0.617864 0.101561
H87   H     H_    0.778748 0.000304 0.557156 0.106954
H88   H     H_    0.731805 0.497381 0.419514 0.112920
H89   H     H_    0.631559 0.497771 0.496628 0.074645
H90   H     H_    0.581085 0.503201 0.662680 0.100809
H91   H     H_    0.631290 0.509639 0.750983 0.146861
H92   H     H_    0.731017 0.512238 0.674203 0.098184
H93   H     H_    0.278249 0.500641 0.559504 0.109199
H94   H     H_    0.377894 0.498755 0.467153 0.072319
H95   H     H_    0.418926 0.495578 0.301308 0.116800
H96   H     H_    0.359800 0.494279 0.228094 0.140668
H97   H     H_    0.995158 0.722303 0.370695 0.103270
H98   H     H_    0.260795 0.495152 0.318992 0.094680
H99   H     H_    0.243799 0.952827 0.989771 0.156083
H100  H     H_    0.190126 0.939797 0.959769 0.158115
H101  H     H_    0.178807 0.995040 0.053625 0.129154
H102  H     H_    0.135676 0.874189 0.105044 0.130685
H103  H     H_    0.182967 0.898317 0.140007 0.133267
H104  H     H_    0.881563 0.335629 0.886261 0.155585
H105  H     H_    0.900864 0.279718 0.953323 0.158712
H106  H     H_    0.940685 0.279575 0.833485 0.131749
H107  H     H_    0.881129 0.171310 0.885361 0.136717
H108  H     H_    0.926820 0.272132 0.600592 0.094869
H109  H     H_    0.870464 0.224833 0.811422 0.121231
H110  H     H_    0.884259 0.651604 0.816236 0.154845
H111  H     H_    0.908006 0.727766 0.853744 0.159986
H112  H     H_    0.933745 0.640242 0.855208 0.137628
H113  H     H_    0.868367 0.673550 0.008094 0.150878
H114  H     H_    0.841235 0.602735 0.971277 0.131827
H115  H     H_    0.105439 0.334632 0.126308 0.159211
H116  H     H_    0.089538 0.276864 0.055770 0.156881
H117  H     H_    0.050513 0.272099 0.175479 0.136928
H118  H     H_    0.116723 0.170843 0.117768 0.130972
H119  H     H_    0.079861 0.723642 0.380547 0.096089
H120  H     H_    0.125437 0.226725 0.192147 0.136893
H121  H     H_    0.725673 0.443020 0.022621 0.160141
H122  H     H_    0.675075 0.429771 0.985814 0.173782
H123  H     H_    0.657580 0.475593 0.088994 0.129342
H124  H     H_    0.623168 0.348839 0.119240 0.129719
H125  H     H_    0.667291 0.372428 0.160400 0.129363
H126  H     H_    0.389199 0.824054 0.872133 0.160242
H127  H     H_    0.405759 0.769781 0.944018 0.157857
H128  H     H_    0.443923 0.760670 0.824429 0.132725
H129  H     H_    0.377685 0.660500 0.886914 0.130576
H130  H     H_    0.591081 0.822647 0.562696 0.152614
H131  H     H_    0.368077 0.713084 0.811850 0.132822
H132  H     H_    0.249764 0.461007 0.024174 0.156118
H133  H     H_    0.304968 0.447383 0.050253 0.156788
H134  H     H_    0.314026 0.504176 0.959746 0.127859
H135  H     H_    0.358013 0.383974 0.902085 0.131898
H136  H     H_    0.309467 0.409006 0.870389 0.134898
H137  H     H_    0.698741 0.908201 0.944271 0.144981
H138  H     H_    0.671400 0.843351 0.896558 0.160645
H139  H     H_    0.626990 0.904782 0.980439 0.139562
H140  H     H_    0.622755 0.783726 0.045311 0.149280
O1    O     O_R   0.255040 0.869590 0.478480 -0.504921
O2    O     O_R   0.817950 0.203450 0.375560 -0.505546
O3    O     O_R   0.817950 0.796550 0.375560 -0.512620
O4    O     O_R   0.182050 0.203450 0.624440 -0.512799
O5    O     O_R   0.682050 0.296550 0.624440 -0.514698
O6    O     O_R   0.317950 0.703450 0.375560 -0.516740
O7    O     O_R   0.317950 0.296550 0.375560 -0.512015
O8    O     O_R   0.682050 0.703450 0.624440 -0.512094
O9    O     O_R   0.250530 0.763330 0.367210 -0.527851
O10   O     O_R   0.749470 0.236670 0.632790 -0.515340
O11   O     O_R   0.749470 0.763330 0.632790 -0.496143
O12   O     O_R   0.744960 0.130410 0.521520 -0.500962
O13   O     O_R   0.250530 0.236670 0.367210 -0.518357
O14   O     O_R   0.750530 0.263330 0.367210 -0.509086
O15   O     O_R   0.249470 0.736670 0.632790 -0.513718
O16   O     O_R   0.249470 0.263330 0.632790 -0.513278
O17   O     O_R   0.750530 0.736670 0.367210 -0.499894
O18   O     O_R   0.177260 0.690030 0.513710 -0.516192
O19   O     O_R   0.822740 0.309970 0.486290 -0.527965
O20   O     O_R   0.822740 0.690030 0.486290 -0.516612
O21   O     O_R   0.177260 0.309970 0.513710 -0.517535
O22   O     O_R   0.677260 0.190030 0.513710 -0.523871
O23   O     O_R   0.744960 0.869590 0.521520 -0.503705
O24   O     O_R   0.322740 0.809970 0.486290 -0.523553
O25   O     O_R   0.322740 0.190030 0.486290 -0.521785
O26   O     O_R   0.677260 0.809970 0.513710 -0.527520
O27   O     O_R   0.051640 0.926880 0.885090 -0.524081
O28   O     O_R   0.948360 0.073120 0.114910 -0.519048
O29   O     O_R   0.948360 0.926880 0.114910 -0.526309
O30   O     O_R   0.051640 0.073120 0.885090 -0.518899
O31   O     O_R   0.551640 0.426880 0.885090 -0.521734
O32   O     O_R   0.448360 0.573120 0.114910 -0.520606
O33   O     O_R   0.448360 0.426880 0.114910 -0.526610
O34   O     O_R   0.255040 0.130410 0.478480 -0.503262
O35   O     O_R   0.551640 0.573120 0.885090 -0.520925
O36   O     O_R   0.940620 0.926560 0.986760 -0.515073
O37   O     O_R   0.059380 0.073440 0.013240 -0.506774
O38   O     O_R   0.059380 0.926560 0.013240 -0.512206
O39   O     O_R   0.940620 0.073440 0.986760 -0.508601
O40   O     O_R   0.440620 0.426560 0.986760 -0.512847
O41   O     O_R   0.559380 0.573440 0.013240 -0.508376
O42   O     O_R   0.559380 0.426560 0.013240 -0.510191
O43   O     O_R   0.440620 0.573440 0.986760 -0.507684
O44   O     O_R   0.755040 0.369590 0.478480 -0.503255
O45   O     O_R   0.244960 0.630410 0.521520 -0.503884
O46   O     O_R   0.244960 0.369590 0.521520 -0.506092
O47   O     O_R   0.755040 0.630410 0.478480 -0.504305
O48   O     O_R   0.182050 0.796550 0.624440 -0.503620

loop_
_geom_bond_atom_site_label_1
_geom_bond_atom_site_label_2
_ccdc_geom_bond_type
C49   C113  A    
C126  C127  A    
C31   C42   A    
C235  O1    A    
Cu11  O8    S    
C50   C79   A    
C14   C33   A    
C114  C115  A    
C19   C46   A    
C153  H39   S    
C16   C31   A    
C211  C220  A    
C103  H129  S    
C172  H55   S    
C154  H40   S    
C170  C178  A    
C134  H23   S    
C126  H16   S    
C140  H28   S    
C52   C61   A    
Cu5   O19   S    
C112  O10   A    
C99   H117  S    
C100  C177  S    
C143  C144  A    
Cu10  O46   S    
C167  H50   S    
C163  C242  S    
C169  C177  A    
C98   C183  S    
Cu11  O17   S    
C110  C111  A    
C111  H5    S    
C214  C222  A    
C13   C51   A    
C44   C53   A    
Cu6   O23   S    
C190  O14   A    
C108  H139  S    
Cu1   O1    S    
C28   H53   S    
C208  C217  A    
C161  H45   S    
Cu2   O32   S    
C217  C226  A    
C156  C228  S    
C120  H11   S    
C144  H31   S    
C58   C64   A    
C220  C238  A    
C188  C241  A    
C185  H59   S    
C186  H60   S    
C106  H134  S    
C140  C141  A    
Cu2   O41   S    
C144  C145  A    
C225  C242  A    
C102  H122  S    
Cu1   Cu9   S    
C29   H1    S    
C175  H58   S    
C230  O19   A    
C75   C76   A    
C110  H4    S    
C116  H8    S    
C208  H73   S    
Cu5   O12   S    
C57   H13   S    
Cu6   O11   S    
Cu7   O34   S    
C164  C173  A    
C76   C77   A    
C163  C172  A    
C154  C155  A    
Cu11  O26   S    
C125  H15   S    
C205  C214  A    
C4    O36   A    
C158  C159  A    
C97   H111  S    
C50   C59   A    
C35   C45   A    
C64   C85   S    
C6    C194  S    
C15   C30   A    
C147  H33   S    
C95   H106  S    
C16   C25   A    
C4    C196  S    
Cu6   O20   S    
C233  O22   A    
C207  H72   S    
C95   H105  S    
C92   H103  S    
C151  H37   S    
C72   C73   A    
C43   C234  A    
C192  H66   S    
C139  C140  A    
C209  H74   S    
C68   H24   S    
C171  H54   S    
C200  C209  A    
C81   H89   S    
Cu10  O25   S    
C156  C158  A    
C130  C131  A    
C114  H6    S    
C191  C243  A    
C109  C220  S    
C92   C182  S    
C6    O38   A    
C1    O6    A    
C67   H78   S    
C48   C101  A    
C12   C21   A    
C207  C216  A    
C192  C200  A    
C18   C38   A    
C69   C70   A    
C9    C202  S    
C186  C239  A    
C61   C65   S    
C143  C149  A    
C11   O43   A    
C88   C89   A    
C98   C99   S    
C8    O33   A    
C164  C243  S    
C3    C228  A    
C157  C171  A    
C236  O34   A    
Cu7   O4    S    
C46   H2    S    
C137  C142  A    
C27   C29   A    
C60   C231  S    
C147  C148  A    
C55   C236  S    
C128  C129  A    
C187  C240  A    
C85   C86   A    
C3    C193  A    
C221  C239  A    
C37   C40   A    
Cu8   O22   S    
C51   C90   A    
C38   C39   A    
C78   C80   A    
C224  C241  A    
C206  H71   S    
C168  O8    A    
C115  C116  A    
C73   H82   S    
C124  C238  S    
C95   H104  S    
C107  H3    S    
C145  H32   S    
C103  C176  S    
C137  C225  S    
C20   C35   A    
C172  C181  A    
C169  H51   S    
C2    C44   A    
C202  C210  A    
C22   C25   A    
C107  C108  S    
C30   C41   A    
C94   C181  S    
C219  C228  A    
C89   C91   A    
C191  H65   S    
C82   H90   S    
C179  O7    A    
C66   C67   A    
C230  O44   A    
C168  C219  S    
C108  H138  S    
C203  C211  A    
C104  H127  S    
C159  H43   S    
C127  H17   S    
C22   H108  S    
C141  H29   S    
C25   H86   S    
C2    C45   A    
C24   C50   A    
Cu4   O29   S    
C34   C39   A    
Cu7   O13   S    
C227  C244  A    
C122  H14   S    
Cu7   Cu10  S    
C5    C197  S    
C165  C174  A    
Cu5   O2    S    
C210  C219  A    
C100  H125  S    
C117  C122  A    
C2    C40   A    
C118  H9    S    
C232  O46   A    
C83   C84   A    
C212  C215  S    
Cu4   O37   S    
C148  H34   S    
C19   C28   A    
C223  O17   A    
C150  C155  A    
C8    C200  S    
C135  C181  A    
Cu3   O30   S    
C189  C242  A    
C120  C121  A    
Cu5   Cu8   S    
C198  C207  A    
Cu9   O15   S    
Cu10  O16   S    
C45   C54   A    
C236  O25   A    
Cu8   O14   S    
C146  C184  A    
C14   C22   A    
C130  C224  S    
C131  H20   S    
C107  C178  S    
C117  C118  A    
Cu2   Cu12  S    
C55   C61   A    
C199  C208  A    
Cu9   O6    S    
C112  C216  S    
C190  C213  S    
C187  H61   S    
C214  C223  S    
C43   C57   A    
C152  C153  A    
C93   H101  S    
C150  C151  A    
C51   C60   A    
C105  C180  S    
C10   O31   A    
C201  C211  S    
Cu2   O33   S    
C100  H124  S    
C63   C78   S    
C206  C215  A    
Cu11  O47   S    
C87   C88   A    
Cu12  O40   S    
C187  C196  A    
C34   C37   A    
C24   C42   A    
C73   C74   A    
C8    O40   A    
C185  C194  A    
C215  C224  A    
C13   C41   A    
C161  C162  A    
C197  C206  A    
C7    O39   A    
C93   H100  S    
C5    O37   A    
C166  C175  A    
Cu3   O39   S    
Cu6   O3    S    
C190  O2    A    
C105  H136  S    
C23   H97   S    
C204  H69   S    
Cu2   O42   S    
C10   O42   A    
C123  C125  A    
C102  H123  S    
C24   C49   A    
C231  O47   A    
C237  O23   A    
C6    O27   A    
C158  H42   S    
C101  H48   S    
C109  C116  A    
C213  C221  A    
C168  O11   A    
C163  C177  A    
C151  C152  A    
C70   C71   A    
C166  C178  A    
Cu3   O36   S    
C94   H109  S    
C203  H68   S    
C149  H36   S    
C97   H110  S    
C145  C147  A    
C229  O18   A    
C81   C82   A    
C27   H64   S    
Cu3   O27   S    
C104  H126  S    
Cu4   O28   S    
C86   C87   A    
C14   C101  A    
C195  C204  A    
C54   C62   A    
C119  H10   S    
C76   H85   S    
C193  C202  A    
C193  H67   S    
Cu10  O7    S    
C124  C167  A    
Cu8   O5    S    
C90   H46   S    
C18   C57   A    
C159  C160  A    
C74   H83   S    
C5    O30   A    
C138  H26   S    
C56   C230  S    
C106  H132  S    
C136  H25   S    
C212  O16   A    
C128  H18   S    
C121  C122  A    
C21   C23   A    
C133  C134  A    
C75   H84   S    
C129  H19   S    
C237  O26   A    
C209  C218  A    
C7    C195  S    
C131  C132  A    
C87   H94   S    
C53   C233  S    
C218  C227  A    
C235  O24   A    
C137  C138  A    
C107  H140  S    
C46   C47   A    
C17   C68   A    
Cu1   O9    S    
C106  H133  S    
C54   C237  S    
Cu12  O35   S    
C174  C183  A    
C39   C234  A    
C119  C120  A    
C92   H102  S    
C102  H121  S    
C105  C106  S    
C155  H41   S    
C216  C225  A    
C16   C79   A    
C33   C41   A    
C36   C38   A    
C88   H95   S    
C109  C110  A    
C96   H114  S    
C226  C243  A    
C188  C197  A    
C222  C240  A    
C92   C93   S    
C164  C176  A    
C111  C114  A    
C135  C169  A    
C174  H57   S    
C94   C95   S    
C43   C52   A    
C11   C199  S    
C94   H107  S    
C138  C139  A    
C212  O4    A    
C20   C36   A    
Cu9   O45   S    
C82   C83   A    
C99   H116  S    
C97   H112  S    
C32   C42   A    
C1    C217  S    
C157  C183  A    
C71   H81   S    
C52   C235  S    
C79   H35   S    
C175  C184  A    
C133  H22   S    
C189  C198  A    
C30   C32   A    
C192  C244  A    
C86   H93   S    
C117  C221  S    
C104  H128  S    
C7    O28   A    
C26   H75   S    
C85   C91   A    
Cu8   O44   S    
C124  C182  A    
C132  H21   S    
C35   H130  S    
C59   C64   A    
Cu12  O43   S    
C60   C63   A    
C229  O45   A    
C17   C26   A    
C191  C199  A    
C69   H79   S    
C232  O21   A    
C196  C205  A    
C66   H77   S    
C157  C241  S    
C118  C119  A    
C162  H47   S    
C103  C104  S    
C132  C133  A    
C113  H49   S    
C31   C33   A    
C98   H120  S    
C83   H91   S    
C47   C234  A    
C201  O15   A    
C89   H96   S    
C15   C23   A    
C156  C162  A    
C21   H119  S    
C12   C32   A    
C210  H76   S    
C96   C184  S    
C59   C232  S    
C10   C198  S    
C121  H12   S    
C9    O35   A    
C20   C29   A    
C91   H98   S    
C123  C222  S    
Cu9   O24   S    
C9    O41   A    
C74   C75   A    
C223  O3    A    
C186  C195  A    
C36   C40   A    
C201  O48   A    
C148  C149  A    
C77   H87   S    
C188  H62   S    
C4    O29   A    
C170  H52   S    
C189  H63   S    
C233  O12   A    
C179  O13   A    
C134  C136  A    
C84   H92   S    
Cu1   O18   S    
C65   C71   A    
C103  H131  S    
C204  C213  A    
C49   C58   A    
C173  H56   S    
C67   C69   A    
Cu1   O48   S    
C152  H38   S    
C72   C77   A    
C53   C62   A    
C185  C238  A    
C96   C97   S    
C100  C102  S    
C56   C63   A    
C62   C72   S    
C165  C244  S    
C17   C37   A    
C115  H7    S    
C142  H30   S    
C96   H113  S    
C146  C170  A    
C179  C218  S    
C108  H137  S    
C171  C180  A    
C44   C68   A    
C143  C226  S    
C112  O5    A    
Cu12  O31   S    
C47   C55   A    
C12   C113  A    
Cu6   Cu11  S    
C48   C56   A    
C150  C227  S    
C130  C136  A    
C18   C27   A    
C146  C240  S    
C80   C81   A    
C19   C34   A    
C173  C182  A    
C13   C48   A    
Cu3   Cu4   S    
C1    O9    A    
C205  H70   S    
C93   H99   S    
C26   C28   A    
C139  H27   S    
C105  H135  S    
C160  C161  A    
C160  H44   S    
C11   O32   A    
C58   C229  S    
C141  C142  A    
C15   C90   A    
C99   H115  S    
C125  C126  A    
C194  C203  A    
C135  C239  S    
C98   H118  S    
Cu7   O21   S    
C231  O20   A    
C70   H80   S    
C78   C84   A    
Cu5   O10   S    
C80   H88   S    
C65   C66   A    
C165  C180  A    
Cu4   O38   S    
C153  C154  A    
C123  C129  A    
C127  C128  A    
C3    C166  S    
C167  C176  A    
