data_mof_unit_7233.cif
_audit_creation_date              2012-12-11T14:21:19-0500
_audit_creation_method            fapswitch 2.2
_symmetry_space_group_name_H-M    P1
_symmetry_Int_Tables_number       1
_space_group_crystal_system       triclinic
_cell_length_a                    11.67852
_cell_length_b                    11.497068
_cell_length_c                    19.415452
_cell_angle_alpha                 89.641084
_cell_angle_beta                  90.071304
_cell_angle_gamma                 59.844033
_cell_volume                      2254.00163726

loop_
_atom_site_label
_atom_site_type_symbol
_atom_type_description
_atom_site_fract_x
_atom_site_fract_y
_atom_site_fract_z
_atom_type_partial_charge
C1    C     C_R   0.640602 0.117392 0.598959 0.540024
C2    C     C_1   0.653717 0.149433 0.668292 0.006589
C3    C     C_R   0.664612 0.683697 0.190899 -0.026896
C4    C     C_R   0.612734 0.744844 0.598108 0.545636
C5    C     C_R   0.544936 0.722027 0.223794 -0.004665
C6    C     C_R   0.549576 0.685888 0.292820 0.004885
C7    C     C_R   0.772294 0.651212 0.303309 0.090844
C8    C     C_R   0.777698 0.656929 0.231033 0.093907
C9    C     C_R   0.425130 0.773986 0.186728 -0.065382
C10   C     C_R   0.322331 0.760472 0.213146 -0.117724
C11   C     C_R   0.335977 0.702491 0.277992 -0.151046
C12   C     C_1   0.641743 0.701830 0.667564 0.008389
C13   C     C_R   0.447918 0.665407 0.317667 -0.086729
C14   C     C_R   0.654502 0.672941 0.334701 -0.022110
C15   C     C_R   0.176810 0.173033 0.182595 -0.002827
C16   C     C_R   0.240398 0.145233 0.597868 0.561048
C17   C     C_R   0.254065 0.227375 0.204243 0.039442
C18   C     C_R   0.284223 0.222672 0.275093 0.035220
C19   C     C_R   0.210183 0.060314 0.292401 -0.131625
C20   C     C_R   0.161027 0.084448 0.225678 -0.153347
C21   C     C_R   0.291839 0.296362 0.157366 -0.066621
C22   C     C_R   0.328784 0.385586 0.181292 -0.083884
C23   C     C_1   0.127216 0.199015 0.859630 0.005353
C24   C     C_R   0.335871 0.399583 0.251491 -0.110476
C25   C     C_R   0.324421 0.313182 0.297755 -0.076890
C26   C     C_R   0.265726 0.133583 0.319633 0.006406
C27   C     C_R   0.726251 0.211540 0.210555 -0.001698
C28   C     C_R   0.650606 0.120704 0.407854 0.529505
C29   C     C_R   0.820890 0.093188 0.248164 0.029850
C30   C     C_R   0.815758 0.096427 0.320714 0.043459
C31   C     C_R   0.608207 0.300289 0.318732 -0.157308
C32   C     C_R   0.629392 0.319464 0.249183 -0.152063
C33   C     C_R   0.916500 0.968786 0.219218 -0.098857
C34   C     C_1   0.171365 0.169363 0.727669 -0.030664
C35   C     C_R   0.011816 0.866438 0.260721 -0.122571
C36   C     C_R   0.020560 0.886473 0.330493 -0.102475
C37   C     C_R   0.925237 0.003814 0.360104 -0.070669
C38   C     C_R   0.693974 0.179225 0.351838 -0.004522
C39   C     C_R   0.082165 0.231010 0.928875 0.540158
C40   C     C_R   0.618559 0.734624 0.403358 0.550174
C41   C     C_R   0.683302 0.605576 0.930001 0.540713
C42   C     C_R   0.708103 0.206593 0.930413 0.556094
C43   C     C_R   0.089188 0.230931 0.122951 0.537524
C44   C     C_R   0.682970 0.615635 0.124435 0.540035
C45   C     C_1   0.150484 0.182031 0.799126 -0.030105
C46   C     C_R   0.739994 0.232366 0.135451 0.554934
C47   C     C_R   0.302233 0.116002 0.393452 0.554998
C48   C     C_1   0.669365 0.648500 0.860525 0.007196
C49   C     C_1   0.655061 0.682551 0.728312 -0.031137
C50   C     C_1   0.662896 0.667738 0.799763 -0.031278
C51   C     C_1   0.194863 0.159877 0.667105 0.003931
C52   C     C_1   0.677660 0.191810 0.861014 0.002987
C53   C     C_1   0.658821 0.167300 0.728835 -0.029893
C54   C     C_1   0.665046 0.181389 0.800349 -0.030895
Cr1   Cr    Cr6+3 0.404720 0.198220 0.499960 1.025396
Cr2   Cr    Cr6+3 0.698290 0.897110 0.500380 1.057390
Cr3   Cr    Cr6+3 0.396970 0.904720 0.499610 1.021775
Cr4   Cr    Cr6+3 0.926180 0.151990 0.028120 1.016683
Cr5   Cr    Cr6+3 0.921330 0.451820 0.027470 1.057883
Cr6   Cr    Cr6+3 0.626260 0.446870 0.028710 1.019192
H1    H     H_    0.348498 0.446210 0.145694 0.129566
H2    H     H_    0.195315 0.991467 0.324179 0.155393
H3    H     H_    0.285795 0.287205 0.102191 0.127857
H4    H     H_    0.104610 0.038916 0.208839 0.142983
H5    H     H_    0.358742 0.472288 0.270219 0.104448
H6    H     H_    0.524035 0.376809 0.346298 0.106317
H7    H     H_    0.078711 0.770880 0.238184 0.146346
H8    H     H_    0.929377 0.015742 0.415228 0.130405
H9    H     H_    0.343822 0.324479 0.350412 0.167299
H10   H     H_    0.916894 0.940775 0.166567 0.175846
H11   H     H_    0.565054 0.415293 0.224386 0.145562
H12   H     H_    0.095039 0.808854 0.363128 0.123262
H13   H     H_    0.415695 0.813973 0.135010 0.124334
H14   H     H_    0.235694 0.789790 0.181629 0.106688
H15   H     H_    0.262372 0.682285 0.297969 0.104580
H16   H     H_    0.455753 0.617635 0.367044 0.133019
I1    I     I_    0.947312 0.587832 0.364821 -0.317057
I2    I     I_    0.955694 0.630748 0.184763 -0.355286
O1    O     O_R   0.267740 0.231960 0.575440 -0.493940
O2    O     O_R   0.596130 0.579390 0.952730 -0.507327
O3    O     O_R   0.639060 0.321160 0.958670 -0.488667
O4    O     O_R   0.527280 0.186640 0.570530 -0.498177
O5    O     O_R   0.821240 0.124200 0.104370 -0.532203
O6    O     O_R   0.036890 0.167040 0.097840 -0.527397
O7    O     O_R   0.056180 0.349610 0.102880 -0.482782
O8    O     O_R   0.797660 0.564870 0.097950 -0.461875
O9    O     O_R   0.595880 0.584250 0.104270 -0.531096
O10   O     O_R   0.638830 0.325670 0.099150 -0.497216
O11   O     O_3   0.824590 0.350230 0.028100 -0.270297
O12   O     O_R   0.685970 0.784660 0.430010 -0.459191
O13   O     O_R   0.728090 0.003450 0.576380 -0.507348
O14   O     O_R   0.682970 0.789190 0.570490 -0.486156
O15   O     O_R   0.499290 0.771880 0.575530 -0.507431
O16   O     O_R   0.285330 0.030870 0.569730 -0.489631
O17   O     O_R   0.270980 0.227080 0.423890 -0.504975
O18   O     O_R   0.530280 0.182120 0.430050 -0.536692
O19   O     O_R   0.731330 0.998570 0.424830 -0.496475
O20   O     O_R   0.502530 0.767000 0.423990 -0.536940
O21   O     O_R   0.288330 0.026350 0.429250 -0.499182
O22   O     O_3   0.499990 0.000020 0.499980 -0.276746
O23   O     O_R   0.821500 0.119340 0.952830 -0.498740
O24   O     O_R   0.037130 0.162530 0.957360 -0.497216
O25   O     O_R   0.056440 0.344740 0.951340 -0.507363
O26   O     O_R   0.797900 0.560360 0.957470 -0.489762

loop_
_geom_bond_atom_site_label_1
_geom_bond_atom_site_label_2
_ccdc_geom_bond_type
C28   O19   A    
C31   H6    S    
C23   C45   T    
C27   C29   A    
C11   C13   A    
C19   C20   A    
C18   C26   A    
C16   C51   S    
C41   O2    A    
C12   C49   T    
Cr6   O10   S    
C7    C8    A    
C53   C54   S    
C18   C25   A    
C34   C51   T    
Cr5   O26   S    
C36   C37   A    
C40   O20   A    
C5    C6    A    
C19   H2    S    
Cr3   O21   S    
C37   H8    S    
C29   C33   A    
C47   O21   A    
C30   C38   A    
C1    C2    S    
Cr5   O11   S    
C19   C26   A    
Cr2   O13   S    
C35   C36   A    
Cr1   O22   S    
Cr4   O24   S    
C35   H7    S    
C4    C12   S    
C44   O9    A    
C9    C10   A    
C7    I1    S    
C4    O14   A    
Cr2   O12   S    
C1    O13   A    
Cr3   O15   S    
C21   C22   A    
C8    I2    S    
C43   O6    A    
C42   O3    A    
C9    H13   S    
Cr2   O19   S    
C44   O8    A    
Cr6   O9    S    
C52   C54   T    
C32   H11   S    
C46   O10   A    
C7    C14   A    
C15   C20   A    
C3    C44   S    
C43   O7    A    
C24   C25   A    
Cr1   O17   S    
C3    C8    A    
Cr4   O23   S    
C1    O4    A    
Cr6   O11   S    
Cr3   O22   S    
C17   C21   A    
C4    O15   A    
C30   C37   A    
C20   H4    S    
Cr5   O7    S    
C5    C9    A    
C29   C30   A    
Cr4   O6    S    
C6    C14   A    
Cr1   O1    S    
Cr6   O3    S    
C31   C32   A    
C13   H16   S    
C28   C38   S    
C17   C18   A    
C34   C45   S    
Cr1   O4    S    
C33   H10   S    
C24   H5    S    
C27   C46   S    
Cr3   O16   S    
C22   C24   A    
C25   H9    S    
Cr2   O22   S    
C42   O23   A    
C39   O24   A    
C15   C17   A    
C26   C47   S    
Cr6   O2    S    
C27   C32   A    
Cr1   O18   S    
C3    C5    A    
C2    C53   T    
C31   C38   A    
C39   O25   A    
C16   O16   A    
C41   O26   A    
C28   O18   A    
C16   O1    A    
Cr5   O25   S    
Cr5   O8    S    
C15   C43   S    
C11   H15   S    
Cr4   O5    S    
C6    C13   A    
C10   H14   S    
C23   C39   S    
Cr3   O20   S    
C48   C50   T    
C33   C35   A    
C41   C48   S    
Cr4   O11   S    
C21   H3    S    
C10   C11   A    
C14   C40   S    
C46   O5    A    
Cr2   O14   S    
C49   C50   S    
C47   O17   A    
C40   O12   A    
C36   H12   S    
C42   C52   S    
C22   H1    S    
