data_mof_unit_66582.cif
_audit_creation_date              2012-12-10T18:59:14-0500
_audit_creation_method            fapswitch 2.2
_symmetry_space_group_name_H-M    P1
_symmetry_Int_Tables_number       1
_space_group_crystal_system       triclinic
_cell_length_a                    10.873332
_cell_length_b                    10.837448
_cell_length_c                    9.536198
_cell_angle_alpha                 90.745171
_cell_angle_beta                  87.813837
_cell_angle_gamma                 92.913386
_cell_volume                      1121.39944073

loop_
_atom_site_label
_atom_site_type_symbol
_atom_type_description
_atom_site_fract_x
_atom_site_fract_y
_atom_site_fract_z
_atom_type_partial_charge
C1    C     C_R   0.496721 0.262173 0.498812 0.833403
C2    C     C_R   0.055132 0.479027 0.634197 0.049825
C3    C     C_R   0.127682 0.519137 0.514008 -0.245379
C4    C     C_R   0.068324 0.559004 0.394719 0.444744
C5    C     C_R   0.942184 0.535111 0.385529 -0.292017
C6    C     C_R   0.871536 0.482578 0.496954 -0.206440
C7    C     C_R   0.500584 0.065318 0.621513 -0.024324
C8    C     C_R   0.495979 0.128491 0.495114 -0.051434
C9    C     C_R   0.494758 0.060408 0.367235 0.136113
C10   C     C_R   0.493780 0.931962 0.370842 -0.308522
C11   C     C_R   0.494915 0.870205 0.499122 -0.114609
C12   C     C_R   0.261965 0.505247 0.503919 0.805987
C13   C     C_R   0.501575 0.938393 0.623311 0.072830
C14   C     C_3   0.418273 0.929184 0.750917 -0.458798
C15   C     C_3   0.415244 0.069205 0.748557 0.319779
C16   C     C_R   0.601850 0.541997 0.069881 0.135852
C17   C     C_R   0.405101 0.444982 0.077631 -0.040058
C18   C     C_R   0.404987 0.445440 0.928712 -0.099061
C19   C     C_R   0.605257 0.533939 0.923010 0.104135
C20   C     C_3   0.690548 0.646920 0.910305 0.216430
C21   C     C_3   0.663827 0.669142 0.066571 0.206469
C22   C     C_R   0.495707 0.737165 0.500516 0.759672
C23   C     C_R   0.737300 0.491185 0.497989 0.794202
C24   C     C_R   0.100473 0.476187 0.771326 -0.160803
C25   C     C_R   0.032232 0.417477 0.880311 -0.171407
C26   C     C_R   0.917763 0.360714 0.854923 -0.173598
C27   C     C_R   0.866194 0.374195 0.724928 -0.155645
C28   C     C_R   0.929846 0.444172 0.617900 0.102753
Cu1   Cu    Cu3+1 0.499990 0.499980 0.640670 0.961821
Cu2   Cu    Cu3+1 0.500010 0.500020 0.359330 0.968103
H1    H     H_    0.465762 0.895388 0.842979 0.183385
H2    H     H_    0.460419 0.118639 0.837644 0.064502
H3    H     H_    0.327612 0.401511 0.135632 0.151416
H4    H     H_    0.328627 0.401053 0.875698 0.125539
H5    H     H_    0.786620 0.617921 0.888835 0.109577
H6    H     H_    0.596029 0.741931 0.087898 0.085925
H7    H     H_    0.183996 0.526300 0.799315 0.168524
H8    H     H_    0.069145 0.414661 0.984028 0.152096
H9    H     H_    0.866838 0.310302 0.937481 0.139547
H10   H     H_    0.776396 0.329611 0.709312 0.150491
H11   H     H_    0.898949 0.561863 0.291824 0.233640
H12   H     H_    0.489489 0.881119 0.272446 0.158876
H13   H     H_    0.328909 0.879278 0.729737 0.202302
N1    N     N_R   0.500790 0.500930 0.147930 -0.195315
N2    N     N_R   0.500790 0.500890 0.852020 -0.160282
O1    O     O_R   0.500000 0.319640 0.618810 -0.592372
O2    O     O_R   0.500010 0.319680 0.381230 -0.549383
O3    O     O_R   0.319640 0.499980 0.618820 -0.601985
O4    O     O_R   0.319650 0.500020 0.381230 -0.556643
O5    O     O_R   0.499990 0.680320 0.618770 -0.523016
O6    O     O_R   0.500000 0.680360 0.381190 -0.612482
O7    O     O_R   0.680350 0.499980 0.618770 -0.591090
O8    O     O_R   0.680360 0.500020 0.381180 -0.555963
O9    O     O_3   0.130671 0.619549 0.283298 -0.602792
C29   C     C_3   0.190142 0.732586 0.327935 0.128230
H14   H     H_    0.254822 0.764758 0.241444 0.167088
H15   H     H_    0.247069 0.722548 0.420478 0.119958
C30   C     C_3   0.099078 0.833270 0.359511 -0.462274
H16   H     H_    0.051427 0.852546 0.262340 0.243777
H17   H     H_    0.029955 0.801492 0.441642 0.207541
C31   C     C_3   0.165179 0.951877 0.411688 -0.867630
H18   H     H_    0.213084 0.934253 0.509638 0.279172
H19   H     H_    0.097733 0.023633 0.434237 0.259338
H20   H     H_    0.233460 0.987549 0.330936 0.260176
O10   O     O_3   0.299114 0.109843 0.712265 -0.589874
C32   C     C_3   0.225566 0.137986 0.832915 0.095848
H21   H     H_    0.171132 0.217190 0.804935 0.149598
H22   H     H_    0.278972 0.170831 0.924952 0.109822
C33   C     C_3   0.133970 0.029710 0.870785 -0.349511
H23   H     H_    0.041724 0.065933 0.895863 0.189335
H24   H     H_    0.123962 0.965168 0.779921 0.237304
C34   C     C_3   0.172308 0.959322 0.998323 -0.907810
H25   H     H_    0.268970 0.932078 0.986170 0.255235
H26   H     H_    0.111951 0.874304 0.011653 0.254669
H27   H     H_    0.162789 0.018146 0.093872 0.254088
O11   O     O_3   0.648595 0.740733 0.825132 -0.599923
C35   C     C_3   0.744327 0.789747 0.732411 0.143635
H28   H     H_    0.707199 0.795134 0.626612 0.158635
H29   H     H_    0.825536 0.731793 0.716146 0.097914
C36   C     C_3   0.787315 0.919904 0.779453 -0.398292
H30   H     H_    0.707681 0.970787 0.822119 0.225588
H31   H     H_    0.854578 0.912374 0.862619 0.206870
C37   C     C_3   0.849730 0.993503 0.658846 -0.953066
H32   H     H_    0.929420 0.944271 0.614020 0.259629
H33   H     H_    0.883267 0.085628 0.697955 0.264227
H34   H     H_    0.783257 0.007105 0.575591 0.262739
O12   O     O_3   0.773703 0.677983 0.141573 -0.622727
C38   C     C_3   0.775939 0.782145 0.233146 0.079049
H35   H     H_    0.845596 0.768696 0.312315 0.149399
H36   H     H_    0.688207 0.789952 0.293847 0.153993
C39   C     C_3   0.810299 0.902077 0.154368 -0.396720
H37   H     H_    0.897814 0.891219 0.093068 0.229026
H38   H     H_    0.736571 0.921428 0.081621 0.208998
C40   C     C_3   0.826580 0.012338 0.254256 -0.938045
H39   H     H_    0.740556 0.025767 0.317041 0.265714
H40   H     H_    0.850326 0.097244 0.192992 0.261371
H41   H     H_    0.901316 0.998226 0.327056 0.266991
N3    N     N_3   0.490607 0.119599 0.233908 -0.568808
H42   H     H_    0.566471 0.093881 0.171582 0.213609
H43   H     H_    0.410943 0.086545 0.184748 0.201595

loop_
_geom_bond_atom_site_label_1
_geom_bond_atom_site_label_2
_ccdc_geom_bond_type
C32   H22   S    
O12   C38   S    
C21   O12   S    
C9    N3    S    
C10   H12   S    
C1    C8    S    
C19   C20   S    
C14   H1    S    
C12   O3    A    
C12   O4    A    
C7    C8    A    
C21   H6    S    
C35   H28   S    
C26   C27   A    
C16   C21   S    
Cu2   O6    S    
C34   H27   S    
C5    C6    A    
C36   H30   S    
C26   H9    S    
C32   C33   S    
C30   H17   S    
C15   O10   S    
C20   O11   S    
C31   H19   S    
C33   H24   S    
C3    C12   S    
C20   H5    S    
C6    C28   A    
C8    C9    A    
C9    C10   A    
C16   N1    A    
C22   O5    A    
C38   H35   S    
C30   C31   S    
C7    C15   S    
C32   H21   S    
C13   C14   S    
Cu2   N1    S    
C33   H23   S    
C17   H3    S    
C36   C37   S    
C23   O8    A    
Cu1   O5    S    
C35   H29   S    
Cu2   O8    S    
Cu1   O3    S    
Cu2   O2    S    
C15   H2    S    
C24   C25   A    
C34   H25   S    
C34   H26   S    
C39   H37   S    
C1    O2    A    
C40   H41   S    
C30   H16   S    
Cu1   N2    S    
C31   H20   S    
Cu1   Cu2   S    
C25   H8    S    
C39   H38   S    
C37   H32   S    
C38   C39   S    
C27   H10   S    
C29   H14   S    
C17   C18   A    
C40   H39   S    
O11   C35   S    
C40   H40   S    
C18   H4    S    
C36   H31   S    
C37   H33   S    
Cu2   O4    S    
C38   H36   S    
O10   C32   S    
N3    H43   S    
C29   H15   S    
C2    C24   A    
C3    C4    A    
C18   N2    A    
C33   C34   S    
C35   C36   S    
C24   H7    S    
C5    H11   S    
O9    C29   S    
C4    O9    S    
C4    C5    A    
C19   N2    A    
C11   C22   S    
Cu1   O1    S    
C2    C3    A    
C25   C26   A    
C17   N1    A    
C39   C40   S    
C11   C13   A    
C23   O7    A    
C16   C19   A    
C6    C23   S    
C31   H18   S    
C1    O1    A    
C10   C11   A    
C7    C13   A    
C37   H34   S    
C20   C21   S    
N3    H42   S    
C29   C30   S    
C27   C28   A    
C14   C15   S    
C14   H13   S    
C2    C28   A    
C22   O6    A    
Cu1   O7    S    
