data_mof_unit_67644.cif
_audit_creation_date              2012-12-10T19:10:03-0500
_audit_creation_method            fapswitch 2.2
_symmetry_space_group_name_H-M    P1
_symmetry_Int_Tables_number       1
_space_group_crystal_system       triclinic
_cell_length_a                    10.807044
_cell_length_b                    10.763349
_cell_length_c                    9.583717
_cell_angle_alpha                 90.646734
_cell_angle_beta                  90.433842
_cell_angle_gamma                 91.198794
_cell_volume                      1114.42883871

loop_
_atom_site_label
_atom_site_type_symbol
_atom_type_description
_atom_site_fract_x
_atom_site_fract_y
_atom_site_fract_z
_atom_type_partial_charge
C1    C     C_R   0.498566 0.262678 0.499268 0.801794
C2    C     C_R   0.183782 0.677024 0.988502 -0.208298
C3    C     C_R   0.932593 0.557536 0.396388 -0.283251
C4    C     C_R   0.870756 0.494241 0.501687 -0.070243
C5    C     C_R   0.936640 0.429426 0.604145 0.014869
C6    C     C_R   0.065240 0.437946 0.604957 -0.278662
C7    C     C_R   0.127784 0.499752 0.497159 -0.043259
C8    C     C_R   0.060233 0.555874 0.388424 0.039450
C9    C     C_R   0.860854 0.373069 0.842166 -0.079976
C10   C     C_R   0.786203 0.299068 0.927783 -0.125846
C11   C     C_R   0.728764 0.191060 0.874274 -0.133867
C12   C     C_R   0.262194 0.500626 0.499102 0.799430
C13   C     C_R   0.744156 0.157930 0.734258 -0.120471
C14   C     C_R   0.814716 0.234209 0.646957 -0.159840
C15   C     C_R   0.872867 0.342918 0.700279 0.118116
C16   C     C_R   0.412324 0.062812 0.579681 0.121389
C17   C     C_R   0.493986 0.129440 0.495382 -0.073807
C18   C     C_R   0.565861 0.065284 0.398333 -0.210399
C19   C     C_R   0.568445 0.936093 0.401267 -0.218202
C20   C     C_R   0.496901 0.870704 0.498844 -0.092644
C21   C     C_R   0.412537 0.935051 0.580221 0.114642
C22   C     C_3   0.384869 0.930161 0.732430 -0.477522
C23   C     C_R   0.500076 0.737418 0.500514 0.784495
C24   C     C_3   0.386191 0.071415 0.732056 -0.486604
C25   C     C_R   0.529818 0.605359 0.075057 0.199782
C26   C     C_R   0.454610 0.400578 0.069967 0.035602
C27   C     C_R   0.455896 0.401104 0.922257 -0.117755
C28   C     C_R   0.528106 0.606172 0.928643 0.193216
C29   C     C_3   0.640926 0.689221 0.924350 0.273001
C30   C     C_3   0.646027 0.681928 0.083152 -0.569501
C31   C     C_R   0.737169 0.496618 0.500563 0.781971
C32   C     C_R   0.153891 0.764629 0.090963 -0.140101
C33   C     C_R   0.118293 0.725754 0.223822 -0.234062
C34   C     C_R   0.114441 0.598752 0.255539 0.049682
C35   C     C_R   0.143560 0.510497 0.151542 0.496396
C36   C     C_R   0.178941 0.550373 0.018710 -0.238173
Cu1   Cu    Cu3+1 0.499990 0.499980 0.640670 0.970704
Cu2   Cu    Cu3+1 0.500010 0.500020 0.359330 0.966642
H1    H     H_    0.210697 0.707124 0.885566 0.149173
H2    H     H_    0.672053 0.133356 0.941197 0.116036
H3    H     H_    0.699356 0.074522 0.692702 0.137728
H4    H     H_    0.822511 0.209726 0.537505 0.119277
H5    H     H_    0.624996 0.114946 0.326294 0.151163
H6    H     H_    0.631007 0.888086 0.332931 0.144713
H7    H     H_    0.291688 0.888917 0.752605 0.190322
H8    H     H_    0.461192 0.891445 0.794988 0.190257
H9    H     H_    0.294142 0.111416 0.753402 0.193755
H10   H     H_    0.464649 0.113115 0.793125 0.200422
H11   H     H_    0.156859 0.862658 0.066870 0.149518
H12   H     H_    0.420088 0.321570 0.864005 0.136124
H13   H     H_    0.618362 0.782922 0.885437 0.052465
H14   H     H_    0.725515 0.629049 0.124088 0.211068
H15   H     H_    0.631780 0.773467 0.133668 0.158869
H16   H     H_    0.092121 0.794202 0.301291 0.147372
H17   H     H_    0.202827 0.483092 0.939133 0.143186
H18   H     H_    0.880714 0.603696 0.315423 0.146073
H19   H     H_    0.116611 0.389414 0.684478 0.144616
H20   H     H_    0.906402 0.455155 0.885686 0.126485
H21   H     H_    0.772420 0.325694 0.035570 0.129701
N1    N     N_R   0.500790 0.500930 0.147930 -0.196559
N2    N     N_R   0.500790 0.500890 0.852020 -0.165021
O1    O     O_R   0.500000 0.319640 0.618810 -0.583974
O2    O     O_R   0.500010 0.319680 0.381230 -0.581743
O3    O     O_R   0.319640 0.499990 0.618790 -0.601933
O4    O     O_R   0.319650 0.500030 0.381210 -0.545476
O5    O     O_R   0.499990 0.680320 0.618770 -0.588989
O6    O     O_R   0.500000 0.680360 0.381190 -0.573732
O7    O     O_R   0.680350 0.499970 0.618790 -0.511696
O8    O     O_R   0.680360 0.500010 0.381210 -0.600785
C37   C     C_1   0.400311 0.291499 0.131684 0.343379
N3    N     N_1   0.355762 0.202446 0.177965 -0.296819
O9    O     O_3   0.742464 0.632980 0.858991 -0.564874
C38   C     C_3   0.841518 0.720563 0.846366 0.063455
H22   H     H_    0.929047 0.668495 0.843510 0.164428
H23   H     H_    0.849678 0.785296 0.937956 0.129413
C39   C     C_3   0.830676 0.793732 0.710360 -0.335670
H24   H     H_    0.823156 0.728346 0.620420 0.225118
H25   H     H_    0.746178 0.850515 0.711462 0.195538
C40   C     C_3   0.943076 0.879627 0.689906 -0.933946
H26   H     H_    0.951914 0.947297 0.778004 0.259891
H27   H     H_    0.932008 0.931861 0.591454 0.254985
H28   H     H_    0.028792 0.824679 0.683245 0.253957
O10   O     O_3   0.149651 0.386201 0.184757 -0.613415
C41   C     C_3   0.035438 0.325405 0.155400 0.023229
H29   H     H_    0.035341 0.292084 0.045237 0.149642
H30   H     H_    0.954576 0.386520 0.172055 0.132974
C42   C     C_3   0.022177 0.213703 0.251858 -0.274537
H31   H     H_    0.098623 0.148460 0.232132 0.231202
H32   H     H_    0.028903 0.246152 0.362234 0.225293
C43   C     C_3   0.898720 0.144816 0.229914 -0.991740
H33   H     H_    0.821100 0.208126 0.251128 0.253119
H34   H     H_    0.892056 0.065501 0.302798 0.252660
H35   H     H_    0.891085 0.108214 0.121320 0.265609

loop_
_geom_bond_atom_site_label_1
_geom_bond_atom_site_label_2
_ccdc_geom_bond_type
C42   H31   S    
C16   C21   A    
C38   H22   S    
C35   C36   A    
C39   C40   S    
C1    O1    A    
C13   H3    S    
Cu1   O1    S    
C7    C8    A    
C25   C28   A    
C26   C27   A    
Cu1   Cu2   S    
C23   O5    A    
C28   C29   S    
C39   H25   S    
C34   C35   A    
C5    C6    A    
C12   O3    A    
Cu1   O7    S    
C25   C30   S    
C2    C32   A    
C9    H20   S    
C23   O6    A    
C27   N2    A    
C2    H1    S    
C19   C20   A    
C16   C17   A    
C41   C42   S    
C37   N3    T    
C25   N1    A    
C9    C10   A    
C27   H12   S    
C14   H4    S    
C29   O9    S    
C28   N2    A    
Cu2   O8    S    
C16   C24   S    
C13   C14   A    
C38   H23   S    
C6    H19   S    
C31   O7    A    
C1    O2    A    
C33   C34   A    
C7    C12   S    
C30   H15   S    
C24   H10   S    
C39   H24   S    
O9    C38   S    
C3    C8    A    
C40   H27   S    
C35   O10   S    
C18   C19   A    
C29   C30   S    
C3    H18   S    
C43   H34   S    
O10   C41   S    
C20   C23   S    
Cu1   O5    S    
C20   C21   A    
C17   C18   A    
C8    C34   S    
C41   H29   S    
Cu2   N1    S    
C22   H8    S    
C42   H32   S    
C26   C37   S    
C38   C39   S    
C22   C24   S    
C3    C4    A    
Cu1   O3    S    
C19   H6    S    
C43   H35   S    
Cu2   O2    S    
C29   H13   S    
C2    C36   A    
C33   H16   S    
C30   H14   S    
C24   H9    S    
C41   H30   S    
C4    C5    A    
C40   H28   S    
Cu1   N2    S    
C6    C7    A    
C12   O4    A    
C1    C17   S    
C32   C33   A    
C10   H21   S    
C9    C15   A    
C36   H17   S    
C18   H5    S    
C11   C13   A    
C43   H33   S    
C11   H2    S    
C32   H11   S    
C5    C15   S    
C4    C31   S    
C10   C11   A    
C40   H26   S    
C31   O8    A    
C22   H7    S    
Cu2   O6    S    
C42   C43   S    
C14   C15   A    
C21   C22   S    
Cu2   O4    S    
C26   N1    A    
