data_mof_unit_60684.cif
_audit_creation_date              2013-03-05T16:18:24-0500
_audit_creation_method            fapswitch 2.2
_symmetry_space_group_name_H-M    P1
_symmetry_Int_Tables_number       1
_space_group_crystal_system       triclinic
_cell_length_a                    24.467574
_cell_length_b                    24.467594
_cell_length_c                    51.414409
_cell_angle_alpha                 90.000051
_cell_angle_beta                  90.006638
_cell_angle_gamma                 90.0
_cell_volume                      30779.8869971

loop_
_atom_site_label
_atom_site_type_symbol
_atom_site_description
_atom_site_fract_x
_atom_site_fract_y
_atom_site_fract_z
_atom_type_partial_charge
Zn1   Zn    Zn3+2 0.934910 0.500000 0.727940 0.982489
Zn2   Zn    Zn3+2 0.065090 0.500000 0.272060 0.982376
Zn3   Zn    Zn3+2 0.500000 0.934910 0.727940 0.982311
Zn4   Zn    Zn3+2 0.500000 0.065090 0.272060 0.982499
Zn5   Zn    Zn3+2 0.065090 0.500000 0.727940 0.982808
Zn6   Zn    Zn3+2 0.934910 0.500000 0.272060 0.982407
Zn7   Zn    Zn3+2 0.500000 0.065090 0.727940 0.982457
Zn8   Zn    Zn3+2 0.500000 0.934910 0.272060 0.982902
Zn9   Zn    Zn3+2 0.434910 0.000000 0.227940 0.982895
Zn10  Zn    Zn3+2 0.565090 0.000000 0.772060 0.982484
Zn11  Zn    Zn3+2 1.000000 0.434910 0.227940 0.982532
Zn12  Zn    Zn3+2 1.000000 0.565090 0.772060 0.982932
Zn13  Zn    Zn3+2 0.565090 0.000000 0.227940 0.982460
Zn14  Zn    Zn3+2 0.434910 0.000000 0.772060 0.982310
Zn15  Zn    Zn3+2 1.000000 0.565090 0.227940 0.982292
Zn16  Zn    Zn3+2 0.000000 0.434910 0.772060 0.982430
O1    O     O_3   0.000000 0.500000 0.750000 -0.473343
O2    O     O_3   0.000000 0.500000 0.250000 -0.473140
O3    O     O_3   0.500000 0.000000 0.750000 -0.473137
O4    O     O_3   0.500000 0.000000 0.250000 -0.473364
O5    O     O_R   1.000000 0.454430 0.807730 -0.643102
O6    O     O_R   1.000000 0.545570 0.192270 -0.644566
O7    O     O_R   0.545570 0.000000 0.807730 -0.642584
O8    O     O_R   0.454430 0.000000 0.192270 -0.641134
O9    O     O_R   1.000000 0.545570 0.807730 -0.641132
O10   O     O_R   0.000000 0.454430 0.192270 -0.642547
O11   O     O_R   0.454430 0.000000 0.807730 -0.644564
O12   O     O_R   0.545570 0.000000 0.192270 -0.643059
O13   O     O_R   0.500000 0.954430 0.307730 -0.641111
O14   O     O_R   0.500000 0.045570 0.692270 -0.642584
O15   O     O_R   0.045570 0.500000 0.307730 -0.644631
O16   O     O_R   0.954430 0.500000 0.692270 -0.643161
O17   O     O_R   0.500000 0.045570 0.307730 -0.643061
O18   O     O_R   0.500000 0.954430 0.692270 -0.644591
O19   O     O_R   0.954430 0.500000 0.307730 -0.642551
O20   O     O_R   0.045570 0.500000 0.692270 -0.641088
O21   O     O_R   0.935880 0.609380 0.764910 -0.644671
O22   O     O_R   0.064120 0.390620 0.235090 -0.645253
O23   O     O_R   0.390620 0.935880 0.764910 -0.643232
O24   O     O_R   0.609380 0.064120 0.235090 -0.644892
O25   O     O_R   0.064120 0.390620 0.764910 -0.642942
O26   O     O_R   0.935880 0.609380 0.235090 -0.643147
O27   O     O_R   0.609380 0.064120 0.764910 -0.643137
O28   O     O_R   0.390620 0.935880 0.235090 -0.644657
O29   O     O_R   0.935880 0.390620 0.235090 -0.642806
O30   O     O_R   0.064120 0.609380 0.764910 -0.644324
O31   O     O_R   0.390620 0.064120 0.235090 -0.644403
O32   O     O_R   0.609380 0.935880 0.764910 -0.644982
O33   O     O_R   0.064120 0.609380 0.235090 -0.642990
O34   O     O_R   0.935880 0.390620 0.764910 -0.644635
O35   O     O_R   0.609380 0.935880 0.235090 -0.642664
O36   O     O_R   0.390620 0.064120 0.764910 -0.642857
O37   O     O_R   0.435880 0.109380 0.264910 -0.642603
O38   O     O_R   0.564120 0.890620 0.735090 -0.642824
O39   O     O_R   0.890620 0.435880 0.264910 -0.643002
O40   O     O_R   0.109380 0.564120 0.735090 -0.644290
O41   O     O_R   0.564120 0.890620 0.264910 -0.644351
O42   O     O_R   0.435880 0.109380 0.735090 -0.644955
O43   O     O_R   0.109380 0.564120 0.264910 -0.643109
O44   O     O_R   0.890620 0.435880 0.735090 -0.644572
O45   O     O_R   0.435880 0.890620 0.735090 -0.643282
O46   O     O_R   0.564120 0.109380 0.264910 -0.644928
O47   O     O_R   0.890620 0.564120 0.735090 -0.643007
O48   O     O_R   0.109380 0.435880 0.264910 -0.642984
O49   O     O_R   0.564120 0.109380 0.735090 -0.643165
O50   O     O_R   0.435880 0.890620 0.264910 -0.644671
O51   O     O_R   0.109380 0.435880 0.735090 -0.644787
O52   O     O_R   0.890620 0.564120 0.264910 -0.645130
C1    C     C_R   0.999997 0.500000 0.820235 0.802962
C2    C     C_R   0.000002 0.500000 0.179765 0.801379
C3    C     C_R   0.500002 0.999998 0.820235 0.801415
C4    C     C_R   0.499998 0.000002 0.179764 0.802912
C5    C     C_R   0.500002 0.000000 0.320235 0.802902
C6    C     C_R   0.499998 1.000000 0.679765 0.801442
C7    C     C_R   0.000011 0.499999 0.320236 0.801407
C8    C     C_R   0.999989 0.500001 0.679764 0.802945
C9    C     C_R   0.894706 0.605296 0.749999 0.801375
C10   C     C_R   0.105294 0.394704 0.250001 0.801523
C11   C     C_R   0.394706 0.894705 0.750000 0.802349
C12   C     C_R   0.605293 0.105294 0.250000 0.800588
C13   C     C_R   0.105295 0.394707 0.750001 0.801266
C14   C     C_R   0.894705 0.605293 0.249999 0.801416
C15   C     C_R   0.605296 0.105294 0.750000 0.802172
C16   C     C_R   0.394705 0.894706 0.250000 0.800412
C17   C     C_R   0.894706 0.394705 0.250000 0.802709
C18   C     C_R   0.105293 0.605294 0.750000 0.801021
C19   C     C_R   0.394703 0.105293 0.250000 0.802030
C20   C     C_R   0.605297 0.894707 0.749999 0.802134
C21   C     C_R   0.105296 0.605294 0.250000 0.803058
C22   C     C_R   0.894704 0.394706 0.750000 0.801370
C23   C     C_R   0.605292 0.894704 0.249999 0.801954
C24   C     C_R   0.394708 0.105296 0.750000 0.802059
C25   C     C_R   0.807554 0.276094 0.771074 -0.162238
C26   C     C_R   0.192438 0.723918 0.228930 -0.162073
C27   C     C_R   0.723940 0.807573 0.771063 -0.162183
C28   C     C_R   0.260166 0.176523 0.239868 -0.161957
C29   C     C_R   0.176539 0.739821 0.760134 -0.161843
C30   C     C_R   0.823450 0.260186 0.239853 -0.161932
C31   C     C_R   0.276114 0.192465 0.771081 -0.162192
C32   C     C_R   0.739798 0.823436 0.239850 -0.161824
C33   C     C_R   0.807533 0.723895 0.228918 -0.162588
C34   C     C_R   0.176566 0.260198 0.760151 -0.162225
C35   C     C_R   0.723905 0.192447 0.228928 -0.162645
C36   C     C_R   0.276083 0.807561 0.771069 -0.162436
C37   C     C_R   0.192422 0.276066 0.228937 -0.162579
C38   C     C_R   0.823479 0.739830 0.760131 -0.162359
C39   C     C_R   0.260177 0.823462 0.239864 -0.162314
C40   C     C_R   0.739815 0.176549 0.760148 -0.162304
C41   C     C_R   0.323463 0.760182 0.260136 -0.162279
C42   C     C_R   0.676546 0.239812 0.739853 -0.162328
C43   C     C_R   0.223899 0.307536 0.271081 -0.162454
C44   C     C_R   0.760197 0.676566 0.739846 -0.162140
C45   C     C_R   0.692451 0.223911 0.271073 -0.162732
C46   C     C_R   0.307557 0.776075 0.728931 -0.162532
C47   C     C_R   0.776066 0.692422 0.271060 -0.162642
C48   C     C_R   0.239829 0.323477 0.739870 -0.162480
C49   C     C_R   0.307570 0.223937 0.728938 -0.162205
C50   C     C_R   0.676523 0.760166 0.260129 -0.161993
C51   C     C_R   0.239818 0.676537 0.739868 -0.161954
C52   C     C_R   0.760191 0.323451 0.260146 -0.161966
C53   C     C_R   0.692463 0.776112 0.728917 -0.162075
C54   C     C_R   0.323438 0.239800 0.260150 -0.161719
C55   C     C_R   0.776085 0.307551 0.728926 -0.162248
C56   C     C_R   0.223924 0.692443 0.271072 -0.162023
H1    H     H_    0.804219 0.249416 0.787799 0.141193
H2    H     H_    0.195767 0.750604 0.212208 0.141140
H3    H     H_    0.750629 0.804235 0.787786 0.141130
H4    H     H_    0.220065 0.166440 0.232368 0.137025
H5    H     H_    0.166457 0.779925 0.767628 0.137354
H6    H     H_    0.833526 0.220089 0.232349 0.137422
H7    H     H_    0.249438 0.195801 0.787806 0.141176
H8    H     H_    0.779896 0.833513 0.232349 0.137697
H9    H     H_    0.804194 0.750577 0.212195 0.140882
H10   H     H_    0.166492 0.220099 0.767653 0.137758
H11   H     H_    0.750581 0.195784 0.212204 0.140901
H12   H     H_    0.249397 0.804233 0.787790 0.141029
H13   H     H_    0.195751 0.249379 0.212215 0.140840
H14   H     H_    0.833565 0.779928 0.767633 0.137085
H15   H     H_    0.220073 0.833544 0.232368 0.137292
H16   H     H_    0.779913 0.166472 0.767654 0.137481
H17   H     H_    0.333548 0.720080 0.267632 0.137334
H18   H     H_    0.666466 0.279907 0.732347 0.137474
H19   H     H_    0.250584 0.304199 0.287805 0.141038
H20   H     H_    0.720096 0.666491 0.732344 0.137759
H21   H     H_    0.695793 0.250592 0.287797 0.140791
H22   H     H_    0.304224 0.749385 0.712210 0.140877
H23   H     H_    0.749382 0.695754 0.287782 0.140858
H24   H     H_    0.279926 0.333562 0.732370 0.137040
H25   H     H_    0.304231 0.250623 0.712216 0.141119
H26   H     H_    0.666440 0.720066 0.267628 0.137035
H27   H     H_    0.279919 0.666452 0.732373 0.137296
H28   H     H_    0.720096 0.333530 0.267651 0.137413
H29   H     H_    0.695798 0.749434 0.712192 0.141276
H30   H     H_    0.333517 0.279900 0.267652 0.137745
H31   H     H_    0.749402 0.304211 0.712202 0.141194
H32   H     H_    0.250614 0.695777 0.287794 0.141182
C57   C     C_R   0.848044 0.316046 0.770974 -0.174199
C58   C     C_R   0.151949 0.683964 0.229029 -0.172605
C59   C     C_R   0.683982 0.848057 0.770967 -0.174297
C60   C     C_R   0.300534 0.136449 0.239681 -0.173646
C61   C     C_R   0.136459 0.699459 0.760317 -0.173685
C62   C     C_R   0.863529 0.300550 0.239669 -0.172469
C63   C     C_R   0.316060 0.151969 0.770979 -0.172738
C64   C     C_R   0.699441 0.863521 0.239671 -0.172476
C65   C     C_R   0.848031 0.683951 0.229021 -0.173891
C66   C     C_R   0.136481 0.300555 0.760332 -0.173525
C67   C     C_R   0.683952 0.151957 0.229027 -0.175315
C68   C     C_R   0.316036 0.848050 0.770970 -0.173675
C69   C     C_R   0.151939 0.316025 0.229034 -0.175418
C70   C     C_R   0.863553 0.699462 0.760317 -0.174632
C71   C     C_R   0.300540 0.863541 0.239680 -0.174834
C72   C     C_R   0.699452 0.136470 0.760332 -0.173534
C73   C     C_R   0.363543 0.800544 0.260318 -0.174827
C74   C     C_R   0.636468 0.199448 0.739670 -0.173569
C75   C     C_R   0.183955 0.348034 0.270979 -0.173644
C76   C     C_R   0.800554 0.636480 0.739666 -0.173481
C77   C     C_R   0.651959 0.183961 0.270974 -0.175379
C78   C     C_R   0.348049 0.816027 0.729030 -0.173780
C79   C     C_R   0.816026 0.651940 0.270964 -0.175397
C80   C     C_R   0.199460 0.363551 0.739684 -0.174812
C81   C     C_R   0.348055 0.183979 0.729033 -0.174283
C82   C     C_R   0.636449 0.800535 0.260316 -0.173589
C83   C     C_R   0.199455 0.636457 0.739685 -0.173816
C84   C     C_R   0.800554 0.363530 0.260329 -0.172693
C85   C     C_R   0.651967 0.816058 0.729020 -0.172670
C86   C     C_R   0.363523 0.199443 0.260330 -0.172356
C87   C     C_R   0.816036 0.348043 0.729026 -0.174150
C88   C     C_R   0.183972 0.651952 0.270973 -0.172646
H33   H     H_    0.875436 0.318995 0.787468 0.162788
H34   H     H_    0.124552 0.681022 0.212537 0.163156
H35   H     H_    0.681038 0.875443 0.787462 0.162724
H36   H     H_    0.290946 0.096522 0.231804 0.159156
H37   H     H_    0.096529 0.709054 0.768186 0.159180
H38   H     H_    0.903450 0.290961 0.231789 0.160881
H39   H     H_    0.319008 0.124576 0.787471 0.162956
H40   H     H_    0.709036 0.903448 0.231797 0.160912
H41   H     H_    0.875424 0.681010 0.212530 0.162032
H42   H     H_    0.096557 0.290959 0.768206 0.160897
H43   H     H_    0.681002 0.124567 0.212534 0.161861
H44   H     H_    0.318979 0.875447 0.787460 0.162355
H45   H     H_    0.124547 0.318971 0.212540 0.161817
H46   H     H_    0.903481 0.709047 0.768194 0.159156
H47   H     H_    0.290944 0.903472 0.231810 0.159064
H48   H     H_    0.709042 0.096547 0.768213 0.160855
H49   H     H_    0.403475 0.790950 0.268188 0.159087
H50   H     H_    0.596543 0.209036 0.731789 0.160849
H51   H     H_    0.181016 0.375428 0.287471 0.162268
H52   H     H_    0.790957 0.596555 0.731790 0.160891
H53   H     H_    0.624574 0.181015 0.287467 0.161797
H54   H     H_    0.375441 0.818965 0.712539 0.162264
H55   H     H_    0.818974 0.624550 0.287457 0.161911
H56   H     H_    0.209045 0.403479 0.731808 0.159092
H57   H     H_    0.375439 0.181033 0.712540 0.162769
H58   H     H_    0.596523 0.790948 0.268192 0.159183
H59   H     H_    0.209049 0.596525 0.731817 0.159121
H60   H     H_    0.790968 0.403454 0.268209 0.160834
H61   H     H_    0.624571 0.819004 0.712528 0.163025
H62   H     H_    0.403451 0.209038 0.268205 0.160941
H63   H     H_    0.818980 0.375431 0.712532 0.162868
H64   H     H_    0.181034 0.624559 0.287464 0.163087
C89   C     C_R   0.852392 0.352396 0.750000 -0.009910
C90   C     C_R   0.147609 0.647605 0.250001 -0.010184
C91   C     C_R   0.647618 0.852405 0.749996 -0.009988
C92   C     C_R   0.352384 0.147597 0.250003 -0.006783
C93   C     C_R   0.147605 0.647606 0.750001 -0.006043
C94   C     C_R   0.852394 0.352392 0.249999 -0.007411
C95   C     C_R   0.352405 0.147617 0.750004 -0.009946
C96   C     C_R   0.647596 0.852384 0.249996 -0.006754
C97   C     C_R   0.852386 0.647598 0.249995 -0.008966
C98   C     C_R   0.147614 0.352402 0.750006 -0.006776
C99   C     C_R   0.647603 0.147607 0.250000 -0.008822
C100  C     C_R   0.352395 0.852391 0.750000 -0.009267
C101  C     C_R   0.147600 0.352387 0.250004 -0.009062
C102  C     C_R   0.852401 0.647615 0.749994 -0.006824
C103  C     C_R   0.352393 0.852395 0.249999 -0.006042
C104  C     C_R   0.647608 0.147607 0.750001 -0.007497
C105  C     C_R   0.771317 0.271318 0.750000 0.105528
C106  C     C_R   0.228684 0.728685 0.250001 0.105170
C107  C     C_R   0.728707 0.771340 0.749989 0.105357
C108  C     C_R   0.271296 0.228663 0.250010 0.109093
C109  C     C_R   0.228682 0.728683 0.750000 0.109293
C110  C     C_R   0.771316 0.271315 0.250000 0.108946
C111  C     C_R   0.271340 0.228706 0.750011 0.105384
C112  C     C_R   0.728661 0.771295 0.249988 0.109084
C113  C     C_R   0.771293 0.728660 0.249988 0.106091
C114  C     C_R   0.228704 0.271337 0.750011 0.109409
C115  C     C_R   0.728683 0.228682 0.250001 0.106267
C116  C     C_R   0.271316 0.771315 0.750000 0.105793
C117  C     C_R   0.228662 0.271295 0.250010 0.106019
C118  C     C_R   0.771337 0.728704 0.749988 0.109386
C119  C     C_R   0.271316 0.771318 0.250000 0.109653
C120  C     C_R   0.728684 0.228684 0.750000 0.109226
C121  C     C_R   0.483587 0.045823 0.944811 0.565136
C122  C     C_R   0.518663 0.955033 0.055189 0.564182
C123  C     C_R   0.954361 0.483034 0.944815 0.565183
C124  C     C_R   0.044760 0.519196 0.055188 0.563801
C125  C     C_R   0.516427 0.954165 0.944816 0.564937
C126  C     C_R   0.481327 0.044983 0.055183 0.563993
C127  C     C_R   0.045624 0.516955 0.944817 0.565291
C128  C     C_R   0.955252 0.480811 0.055186 0.563915
C129  C     C_R   0.017888 0.545173 0.444794 0.564186
C130  C     C_R   0.982112 0.454825 0.555204 0.564404
C131  C     C_R   0.455295 0.019287 0.444810 0.564122
C132  C     C_R   0.545589 0.982945 0.555188 0.565204
C133  C     C_R   0.983129 0.454201 0.444822 0.563736
C134  C     C_R   0.016862 0.545800 0.555176 0.563960
C135  C     C_R   0.544729 0.980728 0.444818 0.563895
C136  C     C_R   0.454393 0.017044 0.555180 0.564966
N1    N     N_R   0.500008 0.999992 0.931844 -0.365354
N2    N     N_R   0.499994 0.000010 0.068150 -0.364981
N3    N     N_R   0.999991 0.499994 0.931845 -0.365286
N4    N     N_R   0.000008 0.500004 0.068151 -0.364924
N5    N     N_R   0.000556 0.499653 0.431846 -0.365136
N6    N     N_R   0.999441 0.500346 0.568153 -0.365088
N7    N     N_R   0.500014 0.000009 0.431849 -0.364896
N8    N     N_R   0.499989 0.999993 0.568156 -0.365297
C137  C     C_R   0.518566 0.953424 0.972336 -0.150969
C138  C     C_R   0.481648 0.046677 0.027650 -0.151474
C139  C     C_R   0.046329 0.519146 0.972336 -0.151044
C140  C     C_R   0.953566 0.481062 0.027652 -0.151492
C141  C     C_R   0.481443 0.046571 0.972330 -0.151078
C142  C     C_R   0.518349 0.953331 0.027655 -0.151564
C143  C     C_R   0.953663 0.480847 0.972334 -0.150945
C144  C     C_R   0.046440 0.518941 0.027654 -0.151386
C145  C     C_R   0.982689 0.452863 0.472361 -0.151700
C146  C     C_R   0.017300 0.547139 0.527637 -0.151718
C147  C     C_R   0.546404 0.980968 0.472351 -0.151431
C148  C     C_R   0.453704 0.019245 0.527662 -0.150865
C149  C     C_R   0.019287 0.546236 0.472323 -0.150834
C150  C     C_R   0.980706 0.453764 0.527675 -0.150853
C151  C     C_R   0.453609 0.019042 0.472344 -0.151534
C152  C     C_R   0.546288 0.980750 0.527670 -0.150992
C153  C     C_R   0.500003 0.999999 0.986170 -0.069720
C154  C     C_R   0.500000 0.000003 0.013821 -0.069207
C155  C     C_R   0.999998 0.499998 0.986172 -0.069760
C156  C     C_R   0.000001 0.500000 0.013822 -0.069213
C157  C     C_R   0.000498 0.499771 0.486174 -0.069401
C158  C     C_R   0.999493 0.500229 0.513824 -0.069408
C159  C     C_R   0.500004 0.000003 0.486178 -0.069193
C160  C     C_R   0.499999 0.999999 0.513829 -0.069785
C161  C     C_R   0.537573 0.907297 0.986341 0.226459
C162  C     C_R   0.463426 0.093111 0.013622 0.225375
C163  C     C_R   0.092199 0.538778 0.986337 0.226377
C164  C     C_R   0.907381 0.462209 0.013626 0.225393
C165  C     C_R   0.462434 0.092702 0.986330 0.226436
C166  C     C_R   0.536574 0.906895 0.013633 0.225337
C167  C     C_R   0.907796 0.461217 0.986334 0.226462
C168  C     C_R   0.092622 0.537790 0.013629 0.225469
C169  C     C_R   0.964167 0.406582 0.486404 0.225509
C170  C     C_R   0.035817 0.593422 0.513594 0.225519
C171  C     C_R   0.592542 0.962011 0.486382 0.225457
C172  C     C_R   0.407882 0.038981 0.513657 0.226488
C173  C     C_R   0.037714 0.592617 0.486319 0.226588
C174  C     C_R   0.962274 0.407385 0.513679 0.226621
C175  C     C_R   0.407466 0.037996 0.486366 0.225358
C176  C     C_R   0.592116 0.961017 0.513673 0.226404
O53   O     O_2   0.470330 0.090653 0.930917 -0.477481
O54   O     O_2   0.537330 0.912230 0.069119 -0.479102
O55   O     O_2   0.909667 0.469296 0.930928 -0.477636
O56   O     O_2   0.087370 0.538310 0.069116 -0.479911
O57   O     O_2   0.529686 0.909332 0.930927 -0.477772
O58   O     O_2   0.462657 0.087789 0.069109 -0.479333
O59   O     O_2   0.090315 0.530690 0.930932 -0.477159
O60   O     O_2   0.912645 0.461699 0.069112 -0.479379
O61   O     O_2   0.032521 0.589516 0.430862 -0.478066
O62   O     O_2   0.967489 0.410478 0.569136 -0.477895
O63   O     O_2   0.412721 0.038474 0.430879 -0.479163
O64   O     O_2   0.590256 0.969128 0.569078 -0.477530
O65   O     O_2   0.966176 0.410681 0.430899 -0.478985
O66   O     O_2   0.033811 0.589323 0.569098 -0.478818
O67   O     O_2   0.587307 0.961544 0.430894 -0.479496
O68   O     O_2   0.409721 0.030858 0.569062 -0.477922
C177  C     C_R   0.049204 0.500669 0.609865 -0.084640
C178  C     C_R   0.049766 0.500275 0.390033 -0.084102
C179  C     C_R   0.498340 0.049456 0.609920 -0.084017
C180  C     C_R   0.501651 0.049466 0.390079 -0.084171
C181  C     C_R   0.950233 0.499683 0.609967 -0.083796
C182  C     C_R   0.950794 0.499371 0.390133 -0.084938
C183  C     C_R   0.501631 0.950533 0.609922 -0.084230
C184  C     C_R   0.498382 0.950545 0.390081 -0.083982
C185  C     C_R   0.549466 0.001255 0.109919 -0.084281
C186  C     C_R   0.549454 0.997968 0.890084 -0.084140
C187  C     C_R   0.998434 0.549466 0.109921 -0.084359
C188  C     C_R   0.001687 0.549455 0.890081 -0.083879
C189  C     C_R   0.450522 0.998773 0.109914 -0.084108
C190  C     C_R   0.450559 0.002007 0.890079 -0.084335
C191  C     C_R   0.001591 0.450541 0.109920 -0.084347
C192  C     C_R   0.998286 0.450536 0.890080 -0.083882
H65   H     H_    0.087609 0.500931 0.599403 0.156539
H66   H     H_    0.088272 0.500470 0.400416 0.157477
H67   H     H_    0.497197 0.087898 0.599499 0.158117
H68   H     H_    0.503079 0.087900 0.400498 0.156742
H69   H     H_    0.911726 0.499456 0.599584 0.157787
H70   H     H_    0.912389 0.499140 0.400595 0.156224
H71   H     H_    0.502772 0.912091 0.599502 0.157882
H72   H     H_    0.496955 0.912113 0.400501 0.157021
H73   H     H_    0.587907 0.002371 0.099499 0.156532
H74   H     H_    0.587885 0.996530 0.900508 0.157850
H75   H     H_    0.997052 0.587901 0.099501 0.156484
H76   H     H_    0.002871 0.587895 0.900502 0.158340
H77   H     H_    0.412080 0.997658 0.099491 0.156788
H78   H     H_    0.412129 0.003444 0.900500 0.157633
H79   H     H_    0.002975 0.412106 0.099500 0.156671
H80   H     H_    0.997100 0.412095 0.900500 0.158117
C193  C     C_R   0.049385 0.500562 0.637047 -0.194505
C194  C     C_R   0.049688 0.500363 0.362859 -0.197378
C195  C     C_R   0.498383 0.049510 0.637097 -0.196012
C196  C     C_R   0.501602 0.049516 0.362902 -0.196095
C197  C     C_R   0.950312 0.499595 0.637141 -0.195789
C198  C     C_R   0.950613 0.499479 0.362952 -0.196089
C199  C     C_R   0.501593 0.950484 0.637099 -0.197736
C200  C     C_R   0.498424 0.950491 0.362904 -0.194385
C201  C     C_R   0.549518 0.001218 0.137096 -0.196007
C202  C     C_R   0.549506 0.998021 0.862906 -0.195906
C203  C     C_R   0.998477 0.549517 0.137098 -0.197736
C204  C     C_R   0.001646 0.549509 0.862904 -0.194359
C205  C     C_R   0.450470 0.998806 0.137092 -0.194308
C206  C     C_R   0.450506 0.001957 0.862902 -0.197620
C207  C     C_R   0.001545 0.450487 0.137097 -0.195920
C208  C     C_R   0.998330 0.450486 0.862902 -0.196159
H81   H     H_    0.088244 0.500881 0.647127 0.171731
H82   H     H_    0.088464 0.500729 0.352711 0.170301
H83   H     H_    0.497126 0.088308 0.647212 0.171073
H84   H     H_    0.502906 0.088312 0.352786 0.170830
H85   H     H_    0.911536 0.499194 0.647289 0.171278
H86   H     H_    0.911754 0.499196 0.352872 0.170733
H87   H     H_    0.502851 0.911686 0.647214 0.170260
H88   H     H_    0.497119 0.911694 0.352789 0.171830
H89   H     H_    0.588325 0.002215 0.147213 0.170828
H90   H     H_    0.588293 0.996471 0.852792 0.171001
H91   H     H_    0.997216 0.588314 0.147213 0.169911
H92   H     H_    0.002947 0.588306 0.852789 0.172165
H93   H     H_    0.411665 0.997809 0.147204 0.171792
H94   H     H_    0.411718 0.003508 0.852785 0.170219
H95   H     H_    0.002807 0.411689 0.147212 0.170732
H96   H     H_    0.997030 0.411690 0.852787 0.171159
C209  C     C_R   0.999911 0.500045 0.650983 -0.022563
C210  C     C_R   0.000088 0.499955 0.349016 -0.021612
C211  C     C_R   0.499991 0.999998 0.650986 -0.021772
C212  C     C_R   0.500009 0.000002 0.349014 -0.022339
C213  C     C_R   0.499995 0.000009 0.150983 -0.022338
C214  C     C_R   0.500005 0.999992 0.849015 -0.021738
C215  C     C_R   0.000008 0.500001 0.150986 -0.021380
C216  C     C_R   0.999991 0.499998 0.849015 -0.022726
C217  C     C_R   0.999644 0.500260 0.596181 0.282080
C218  C     C_R   0.000354 0.499739 0.403818 0.282597
C219  C     C_R   0.499985 0.999994 0.596184 0.280908
C220  C     C_R   0.500017 0.000007 0.403818 0.282387
C221  C     C_R   0.499994 0.000014 0.096180 0.282695
C222  C     C_R   0.500007 0.999988 0.903817 0.281281
C223  C     C_R   0.000012 0.500004 0.096182 0.282944
C224  C     C_R   0.999987 0.499995 0.903817 0.280457
N9    N     N_R   0.559027 0.860300 0.973177 0.273159
O69   O     O_R   0.533085 0.813945 0.974245 -0.270886
O70   O     O_R   0.607876 0.862015 0.963216 -0.290203
N10   N     N_R   0.445452 0.141546 0.026765 0.273188
O71   O     O_R   0.394019 0.154989 0.026414 -0.285929
O72   O     O_R   0.481298 0.176010 0.035730 -0.271467
N11   N     N_R   0.138871 0.560924 0.973171 0.273148
O73   O     O_R   0.185633 0.535730 0.974281 -0.270570
O74   O     O_R   0.136389 0.609693 0.963154 -0.290217
N12   N     N_R   0.859223 0.443517 0.026770 0.273207
O75   O     O_R   0.846633 0.391867 0.026482 -0.286262
O76   O     O_R   0.824155 0.478842 0.035670 -0.271265
N13   N     N_R   0.440984 0.139696 0.973160 0.273167
O77   O     O_R   0.466929 0.186050 0.974229 -0.270789
O78   O     O_R   0.392136 0.137981 0.963192 -0.290250
N14   N     N_R   0.554546 0.858463 0.026781 0.273177
O79   O     O_R   0.605980 0.845022 0.026439 -0.285965
O80   O     O_R   0.518699 0.824000 0.035742 -0.271299
N15   N     N_R   0.861122 0.439068 0.973165 0.273125
O81   O     O_R   0.814359 0.464261 0.974272 -0.270656
O82   O     O_R   0.863602 0.390298 0.963150 -0.290544
N16   N     N_R   0.140783 0.556485 0.026776 0.273165
O83   O     O_R   0.153373 0.608135 0.026486 -0.286475
O84   O     O_R   0.175852 0.521162 0.035679 -0.271376
N17   N     N_R   0.946529 0.357992 0.473291 0.272945
O85   O     O_R   0.894979 0.344994 0.473055 -0.287283
O86   O     O_R   0.982569 0.322985 0.465009 -0.269792
N18   N     N_R   0.053441 0.642019 0.526707 0.272935
O87   O     O_R   0.104986 0.655036 0.526940 -0.287294
O88   O     O_R   0.017390 0.677010 0.534992 -0.269679
N19   N     N_R   0.640657 0.943199 0.473240 0.273203
O89   O     O_R   0.653104 0.891514 0.473518 -0.286372
O90   O     O_R   0.675828 0.978436 0.464354 -0.271315
N20   N     N_R   0.361262 0.061243 0.526821 0.273101
O91   O     O_R   0.314433 0.036176 0.525700 -0.270759
O92   O     O_R   0.363870 0.109996 0.536848 -0.290646
N21   N     N_R   0.059296 0.639569 0.473172 0.273120
O93   O     O_R   0.032758 0.685626 0.473702 -0.271817
O94   O     O_R   0.108713 0.638255 0.463852 -0.288426
N22   N     N_R   0.940685 0.360438 0.526827 0.273115
O95   O     O_R   0.967211 0.314373 0.526292 -0.271754
O96   O     O_R   0.891272 0.361763 0.536152 -0.288469
N23   N     N_R   0.359357 0.056811 0.473216 0.273213
O97   O     O_R   0.346912 0.108497 0.473494 -0.286236
O98   O     O_R   0.324188 0.021578 0.464321 -0.271002
N24   N     N_R   0.638731 0.938752 0.526845 0.273134
O99   O     O_R   0.685561 0.963820 0.525734 -0.270527
O100  O     O_R   0.636120 0.889997 0.536869 -0.290512

loop_
_geom_bond_atom_site_label_1
_geom_bond_atom_site_label_2
_geom_bond_distance
_ccdc_geom_bond_type
C45   C77   1.391790 A    
C182  H70   1.082820 S    
N13   O77   1.300904 A    
N5    C218  1.441063 S    
C34   C114  1.404834 A    
C75   H51   1.083223 S    
Zn5   O51   1.941834 S    
C199  H87   1.082849 S    
N17   O85   1.300823 A    
C135  N7    1.365260 A    
C197  H85   1.082851 S    
C198  C210  1.406806 A    
C192  C208  1.397306 A    
C31   C111  1.404828 A    
C131  O63   1.348453 S    
Zn3   O38   1.941821 S    
C41   C73   1.391786 A    
C203  C215  1.406790 A    
Zn5   O20   1.895064 S    
Zn6   O19   1.895064 S    
C201  C213  1.406816 A    
C132  C152  1.415976 A    
Zn13  O35   1.941834 S    
O34   C22   1.269835 A    
C164  C167  1.403440 A    
Zn14  O36   1.941832 S    
C50   C112  1.404840 A    
N21   O94   1.301050 A    
C46   H22   1.082673 S    
Zn3   O3    1.955194 S    
C84   C94   1.401915 A    
C180  H68   1.082828 S    
O41   C23   1.269908 A    
C183  C219  1.401790 A    
Zn3   O45   1.941891 S    
C201  H89   1.082851 S    
C108  C117  1.475202 S    
N9    O70   1.301067 A    
C136  C148  1.415975 A    
C65   C97   1.401906 A    
C190  C206  1.397321 A    
O37   C19   1.269846 A    
C63   C95   1.401910 A    
C30   C62   1.391795 A    
C121  C141  1.416011 A    
C72   C104  1.401907 A    
C83   H59   1.083228 S    
C130  N6    1.365075 A    
C199  C211  1.406797 A    
C132  O64   1.348534 S    
C16   C103  1.464072 S    
O44   C22   1.269846 A    
C182  C198  1.397519 A    
Zn1   O44   1.941881 S    
C177  C217  1.401910 A    
C1    C216  1.479681 S    
Zn2   O43   1.941879 S    
C41   H17   1.082676 S    
C39   C71   1.391793 A    
C2    C215  1.479666 S    
O22   C10   1.269826 A    
Zn3   O18   1.895118 S    
C53   C107  1.404830 A    
C203  H91   1.082851 S    
C173  N21   1.433745 S    
C204  H92   1.082844 S    
C66   H42   1.083222 S    
C78   C100  1.401910 A    
Zn8   O41   1.941889 S    
C68   C100  1.401916 A    
C189  C221  1.401766 A    
C148  C160  1.418022 A    
C186  C202  1.397332 A    
C27   C107  1.404830 A    
C167  N15   1.433899 S    
C51   C109  1.404830 A    
C190  H78   1.082830 S    
N3    C224  1.441064 S    
C182  C218  1.401900 A    
C147  C159  1.418232 A    
C178  C194  1.397122 A    
C49   C111  1.404835 A    
O17   C5    1.287069 A    
C60   C92   1.401913 A    
C14   C97   1.464095 S    
C207  C215  1.406784 A    
Zn7   O3    1.955194 S    
C48   C80   1.391793 A    
N2    C221  1.441141 S    
C187  C223  1.401801 A    
O9    C1    1.287086 A    
O11   C3    1.287068 A    
C179  C219  1.401791 A    
C180  C220  1.401804 A    
C41   C119  1.404830 A    
N20   O92   1.301069 A    
Zn13  O4    1.955299 S    
C131  C151  1.416221 A    
Zn14  O3    1.955298 S    
Zn15  O26   1.941891 S    
C124  N4    1.365249 A    
C32   H8    1.082678 S    
C33   H9    1.082675 S    
C179  C195  1.397295 A    
C149  C157  1.418114 A    
N10   O71   1.300849 A    
C76   H52   1.083219 S    
O38   C20   1.269846 A    
C38   C118  1.404832 A    
C181  H69   1.082836 S    
C139  C155  1.418031 A    
C177  H65   1.082818 S    
Zn15  O33   1.941820 S    
C141  C165  1.417201 A    
C70   H46   1.083230 S    
C26   C106  1.404826 A    
Zn4   O4    1.955189 S    
C85   C91   1.401905 A    
C123  C143  1.415975 A    
N23   O98   1.301019 A    
C49   H25   1.082672 S    
C193  C209  1.406806 A    
Zn15  O2    1.955194 S    
Zn11  O2    1.955194 S    
C35   C67   1.391782 A    
Zn16  O5    1.895117 S    
C7    C210  1.479734 S    
C207  H95   1.082851 S    
C23   C96   1.464095 S    
O27   C15   1.269855 A    
C127  C139  1.415976 A    
N11   O73   1.300905 A    
C83   C93   1.401914 A    
N15   O82   1.301068 A    
C71   C103  1.401908 A    
C112  C113  1.475209 S    
C86   H62   1.083219 S    
C132  N8    1.365112 A    
C145  C169  1.417403 A    
C40   C120  1.404839 A    
C27   C59   1.391791 A    
Zn8   O13   1.895117 S    
O46   C12   1.269907 A    
C178  H66   1.082837 S    
C58   H34   1.083222 S    
O14   C6    1.287078 A    
C54   C86   1.391779 A    
C45   H21   1.082674 S    
C138  C154  1.418243 A    
C78   H54   1.083219 S    
C122  O54   1.348454 S    
O43   C21   1.269854 A    
C80   H56   1.083229 S    
C141  C153  1.418059 A    
C54   C108  1.404830 A    
C24   C95   1.464093 S    
C25   C105  1.404832 A    
C75   C101  1.401902 A    
C79   C97   1.401912 A    
N6    C217  1.441073 S    
C32   C112  1.404827 A    
C133  C145  1.416327 A    
C135  C147  1.416225 A    
C34   C66   1.391791 A    
C57   C89   1.401904 A    
C198  H86   1.082848 S    
C180  C196  1.397301 A    
C133  O65   1.348428 S    
C62   C94   1.401909 A    
C72   H48   1.083223 S    
C168  N16   1.433355 S    
C42   C74   1.391783 A    
Zn9   O31   1.941879 S    
N19   O90   1.301018 A    
N24   O99   1.300905 A    
C191  H79   1.082824 S    
C202  C214  1.406811 A    
C151  C175  1.417629 A    
C22   C89   1.464067 S    
Zn12  O30   1.941889 S    
C56   C88   1.391795 A    
C185  C221  1.401761 A    
C42   C120  1.404827 A    
C45   C115  1.404835 A    
C69   H45   1.083226 S    
O5    C1    1.287071 A    
O31   C19   1.269842 A    
C177  C193  1.397525 A    
C153  C154  1.421680 A    
C169  N17   1.433254 S    
C56   C106  1.404830 A    
N15   O81   1.300904 A    
C111  C114  1.475209 S    
C162  N10   1.433381 S    
C136  N8    1.365112 A    
N7    C220  1.441213 S    
C61   H37   1.083228 S    
C192  C224  1.401786 A    
C51   C83   1.391787 A    
C52   C84   1.391784 A    
C31   C63   1.391786 A    
C122  C142  1.416240 A    
C133  N5    1.365179 A    
C44   C76   1.391788 A    
C48   C114  1.404831 A    
O51   C13   1.269894 A    
C171  N19   1.433345 S    
C40   C72   1.391789 A    
C195  H83   1.082848 S    
N12   O75   1.300843 A    
Zn2   O48   1.941881 S    
C187  H75   1.082825 S    
C125  N1    1.365074 A    
C85   H61   1.083224 S    
C184  C220  1.401804 A    
C185  H73   1.082826 S    
N14   O79   1.300849 A    
O8    C4    1.287110 A    
C74   H50   1.083222 S    
C193  H81   1.082844 S    
C86   C92   1.401907 A    
Zn4   O17   1.895118 S    
C149  C173  1.417346 A    
C36   H12   1.082676 S    
C138  C162  1.417615 A    
O48   C10   1.269861 A    
C127  O59   1.348533 S    
N22   O95   1.300879 A    
C152  C176  1.417181 A    
O16   C8    1.286931 A    
C121  O53   1.348531 S    
C64   H40   1.083222 S    
C163  C168  1.403437 A    
Zn1   O1    1.955087 S    
C172  C175  1.403435 A    
O29   C17   1.269917 A    
O52   C14   1.269893 A    
C56   H32   1.082676 S    
C144  C168  1.417627 A    
C82   C96   1.401917 A    
O45   C11   1.269919 A    
C181  C217  1.401564 A    
C9    C102  1.464088 S    
C140  C156  1.418232 A    
C206  C214  1.406817 A    
C39   H15   1.082676 S    
N1    C222  1.441002 S    
C37   H13   1.082674 S    
O7    C3    1.287098 A    
C66   C98   1.401906 A    
N21   O93   1.300883 A    
C18   C93   1.464082 S    
C67   H43   1.083225 S    
C81   H57   1.083223 S    
O42   C24   1.269905 A    
Zn16  O25   1.941889 S    
O6    C2    1.287070 A    
C55   C105  1.404835 A    
N9    O69   1.300904 A    
Zn4   O37   1.941823 S    
N13   O78   1.301066 A    
Zn5   O40   1.941831 S    
C150  C158  1.418103 A    
Zn6   O39   1.941833 S    
C33   C113  1.404838 A    
C183  C199  1.397301 A    
O30   C18   1.269910 A    
N16   O83   1.300843 A    
C127  N3    1.365106 A    
C55   H31   1.082674 S    
C125  C137  1.416012 A    
C146  C170  1.417413 A    
C178  C218  1.401555 A    
C53   H29   1.082673 S    
N11   O74   1.301069 A    
Zn16  O34   1.941822 S    
C142  C166  1.417618 A    
C84   H60   1.083222 S    
Zn5   O1    1.955299 S    
C144  C156  1.418236 A    
C47   H23   1.082676 S    
N18   O87   1.300823 A    
C28   H4    1.082676 S    
C205  H93   1.082847 S    
Zn12  O21   1.941823 S    
C50   H26   1.082676 S    
Zn13  O24   1.941831 S    
O35   C23   1.269908 A    
Zn14  O23   1.941833 S    
C200  C212  1.406781 A    
Zn15  O6    1.895117 S    
C46   C116  1.404833 A    
C121  N1    1.365073 A    
Zn16  O1    1.955193 S    
C36   C116  1.404825 A    
C129  C149  1.416026 A    
Zn12  O1    1.955189 S    
C126  C138  1.416243 A    
C143  C155  1.418033 A    
O32   C20   1.269841 A    
C105  C120  1.475204 S    
Zn14  O11   1.895064 S    
C88   H64   1.083224 S    
N23   O97   1.300843 A    
C26   C58   1.391787 A    
Zn7   O14   1.895117 S    
C191  C207  1.397296 A    
C107  C118  1.475200 S    
C28   C108  1.404837 A    
O12   C4    1.287081 A    
C188  H76   1.082833 S    
C137  C161  1.417197 A    
N17   O86   1.301013 A    
C172  N20   1.433901 S    
C139  C163  1.417184 A    
C184  H72   1.082826 S    
C59   H35   1.083226 S    
C3    C214  1.479696 S    
C60   H36   1.083231 S    
C155  C156  1.421650 A    
C128  O60   1.348454 S    
C142  C154  1.418240 A    
C123  N3    1.365105 A    
C87   C89   1.401900 A    
O21   C9    1.269832 A    
C81   C95   1.401911 A    
N10   O72   1.301023 A    
O39   C17   1.269905 A    
Zn11  O22   1.941821 S    
C159  C160  1.421650 A    
C187  C203  1.397301 A    
C65   H41   1.083220 S    
Zn7   O49   1.941820 S    
C70   C102  1.401920 A    
C134  C146  1.416322 A    
Zn9   O4    1.955087 S    
O15   C7    1.286928 A    
C200  H88   1.082846 S    
C63   H39   1.083220 S    
Zn10  O3    1.955082 S    
O25   C13   1.269924 A    
C30   H6    1.082674 S    
Zn13  O12   1.895064 S    
C32   C64   1.391780 A    
C52   C110  1.404830 A    
C33   C65   1.391792 A    
C69   C101  1.401913 A    
O18   C6    1.287064 A    
C176  N24   1.433903 S    
C204  C216  1.406793 A    
C13   C98   1.464098 S    
Zn10  O32   1.941881 S    
O10   C2    1.287082 A    
Zn11  O29   1.941891 S    
C48   H24   1.082678 S    
C68   H44   1.083225 S    
C145  C157  1.418282 A    
O28   C16   1.269848 A    
C169  C174  1.403246 A    
N8    C219  1.441074 S    
C44   C118  1.404833 A    
C39   C119  1.404837 A    
C19   C92   1.464086 S    
C186  C222  1.401751 A    
C37   C117  1.404824 A    
C161  C166  1.403452 A    
C134  N6    1.365191 A    
C197  C209  1.406848 A    
C71   H47   1.083227 S    
C126  N2    1.365221 A    
C35   C115  1.404832 A    
C11   C100  1.464108 S    
C38   H14   1.082675 S    
C29   C109  1.404838 A    
C27   H3    1.082675 S    
C129  N5    1.365074 A    
C15   C104  1.464098 S    
C38   C70   1.391791 A    
C189  H77   1.082823 S    
C150  C174  1.417336 A    
C73   H49   1.083229 S    
C73   C103  1.401912 A    
C29   C61   1.391794 A    
O23   C11   1.269905 A    
C47   C113  1.404826 A    
C170  C173  1.403234 A    
C88   C90   1.401908 A    
Zn8   O50   1.941822 S    
N20   O91   1.300905 A    
C106  C119  1.475198 S    
Zn2   O2    1.955082 S    
C109  C116  1.475205 S    
C134  O66   1.348435 S    
C157  C158  1.421873 A    
O26   C14   1.269922 A    
C30   C110  1.404836 A    
C87   H63   1.083222 S    
C191  C223  1.401800 A    
C208  C216  1.406800 A    
C162  C165  1.403450 A    
C80   C98   1.401922 A    
Zn8   O4    1.955193 S    
N24   O100  1.301067 A    
C43   C75   1.391789 A    
C188  C224  1.401782 A    
C131  N7    1.365259 A    
C37   C69   1.391783 A    
C128  C140  1.416223 A    
C49   C81   1.391793 A    
O49   C15   1.269844 A    
O13   C5    1.287087 A    
C79   H55   1.083220 S    
C194  C210  1.406847 A    
C77   H53   1.083225 S    
C42   H18   1.082677 S    
C35   H11   1.082673 S    
C129  O61   1.348530 S    
O20   C8    1.287266 A    
O40   C18   1.269896 A    
C192  H80   1.082833 S    
C76   C102  1.401902 A    
C125  O57   1.348531 S    
O24   C12   1.269898 A    
C128  N4    1.365248 A    
C190  C222  1.401746 A    
C151  C159  1.418230 A    
Zn7   O42   1.941891 S    
C202  H90   1.082848 S    
C195  C211  1.406790 A    
C163  N11   1.433898 S    
Zn6   O52   1.941832 S    
C58   C90   1.401915 A    
C183  H71   1.082830 S    
C171  C176  1.403437 A    
N12   O76   1.301025 A    
C54   H30   1.082674 S    
N4    C223  1.441202 S    
Zn1   O47   1.941879 S    
N14   O80   1.301026 A    
C61   C93   1.401912 A    
C26   H2    1.082676 S    
C51   H27   1.082675 S    
Zn6   O2    1.955298 S    
C52   H28   1.082676 S    
C124  C144  1.416223 A    
C140  C164  1.417628 A    
C161  N9    1.433864 S    
C206  H94   1.082852 S    
N22   O96   1.301054 A    
C175  N23   1.433346 S    
C21   C90   1.464098 S    
C40   H16   1.082675 S    
Zn11  O10   1.895118 S    
C46   C78   1.391798 A    
C53   C85   1.391782 A    
C122  N2    1.365222 A    
Zn1   O16   1.895171 S    
C47   C79   1.391786 A    
C196  C212  1.406787 A    
C130  C150  1.416029 A    
Zn2   O15   1.895171 S    
C5    C212  1.479671 S    
C185  C201  1.397321 A    
C6    C211  1.479655 S    
C34   H10   1.082675 S    
C179  H67   1.082832 S    
C36   C68   1.391789 A    
C62   H38   1.083221 S    
C20   C91   1.464081 S    
C137  C153  1.418058 A    
C64   C96   1.401910 A    
C25   C57   1.391778 A    
C194  H82   1.082854 S    
C28   C60   1.391798 A    
C25   H1    1.082672 S    
C136  O68   1.348534 S    
C170  N18   1.433267 S    
C188  C204  1.397301 A    
C12   C99   1.464079 S    
C4    C213  1.479748 S    
C186  H74   1.082829 S    
C143  C167  1.417183 A    
O47   C9    1.269859 A    
C50   C82   1.391802 A    
C130  O62   1.348530 S    
Zn9   O28   1.941881 S    
Zn10  O27   1.941879 S    
C208  H96   1.082848 S    
O19   C7    1.287263 A    
O33   C21   1.269843 A    
C126  O58   1.348453 S    
C74   C104  1.401911 A    
C77   C99   1.401904 A    
N16   O84   1.301022 A    
Zn9   O8    1.895171 S    
C67   C99   1.401905 A    
C43   H19   1.082675 S    
Zn10  O7    1.895171 S    
C43   C117  1.404838 A    
C110  C115  1.475212 S    
C31   H7    1.082678 S    
Zn12  O9    1.895118 S    
Zn4   O46   1.941889 S    
C8    C209  1.479754 S    
C44   H20   1.082676 S    
C29   H5    1.082678 S    
N19   O89   1.300844 A    
C135  O67   1.348455 S    
C165  N13   1.433865 S    
C189  C205  1.397331 A    
C10   C101  1.464082 S    
C59   C91   1.401905 A    
C174  N22   1.433733 S    
N18   O88   1.301011 A    
C205  C213  1.406810 A    
C55   C87   1.391787 A    
C57   H33   1.083224 S    
C196  H84   1.082849 S    
C152  C160  1.418021 A    
O50   C16   1.269837 A    
C164  N12   1.433353 S    
C184  C200  1.397296 A    
C181  C197  1.397122 A    
C82   H58   1.083230 S    
C146  C158  1.418288 A    
C166  N14   1.433381 S    
C17   C94   1.464107 S    
C147  C171  1.417624 A    
C148  C172  1.417180 A    
O36   C24   1.269908 A    
C123  O55   1.348536 S    
C124  O56   1.348453 S    
