data_mof_unit_46390.cif
_audit_creation_date              2012-12-10T20:41:48-0500
_audit_creation_method            fapswitch 2.2
_symmetry_space_group_name_H-M    P1
_symmetry_Int_Tables_number       1
_space_group_crystal_system       triclinic
_cell_length_a                    15.025942
_cell_length_b                    15.134099
_cell_length_c                    9.881325
_cell_angle_alpha                 90.238961
_cell_angle_beta                  90.155076
_cell_angle_gamma                 89.857626
_cell_volume                      2247.01910903

loop_
_atom_site_label
_atom_site_type_symbol
_atom_type_description
_atom_site_fract_x
_atom_site_fract_y
_atom_site_fract_z
_atom_type_partial_charge
C1    C     C_R   0.379643 0.880752 0.499494 0.869362
C2    C     C_R   0.380211 0.119831 0.499802 0.876080
C3    C     C_R   0.879524 0.380872 0.499374 0.872085
C4    C     C_R   0.879014 0.618709 0.500401 0.870326
C5    C     C_3   0.366445 0.293422 0.692511 -0.531854
C6    C     C_3   0.226408 0.848989 0.726227 -0.533154
C7    C     C_3   0.868370 0.790943 0.684413 -0.526706
C8    C     C_3   0.737610 0.339532 0.736514 -0.528668
C9    C     C_R   0.422299 0.989847 0.070941 0.216383
C10   C     C_R   0.947240 0.557388 0.071170 0.270222
C11   C     C_R   0.577436 0.999377 0.072229 -0.072330
C12   C     C_R   0.057466 0.448109 0.071736 -0.120467
C13   C     C_R   0.577404 0.998667 0.928258 -0.072381
C14   C     C_R   0.057476 0.448139 0.928100 -0.097669
C15   C     C_R   0.422266 0.989843 0.928615 0.210340
C16   C     C_R   0.946993 0.557085 0.928761 0.286242
C17   C     C_3   0.342805 0.048851 0.923938 -0.500657
C18   C     C_3   0.848053 0.561864 0.922731 -0.531550
C19   C     C_3   0.342786 0.048568 0.077552 -0.498305
C20   C     C_3   0.848269 0.563135 0.076249 -0.538572
C21   C     C_R   0.619965 0.119749 0.500278 0.898021
C22   C     C_R   0.619457 0.879823 0.499962 0.926869
C23   C     C_R   0.119668 0.619949 0.500228 0.902625
C24   C     C_R   0.120182 0.380582 0.499625 0.905411
C25   C     C_R   0.333473 0.268499 0.555031 0.069454
C26   C     C_R   0.237745 0.825963 0.580195 0.115437
C27   C     C_R   0.799875 0.735631 0.614254 0.086091
C28   C     C_R   0.740774 0.323282 0.587603 0.100512
C29   C     C_R   0.315537 0.186946 0.496312 -0.065527
C30   C     C_R   0.310854 0.817892 0.495353 -0.058949
C31   C     C_R   0.807722 0.679146 0.503737 -0.065697
C32   C     C_R   0.809812 0.319006 0.494747 -0.053566
C33   C     C_R   0.239595 0.175230 0.415957 -0.214678
C34   C     C_R   0.312565 0.752109 0.395211 -0.229963
C35   C     C_R   0.743381 0.679097 0.401012 -0.218565
C36   C     C_R   0.807072 0.257493 0.388454 -0.206425
C37   C     C_R   0.679466 0.745152 0.399856 -0.208547
C38   C     C_R   0.743117 0.192160 0.389722 -0.173436
C39   C     C_R   0.174769 0.240409 0.415807 -0.205630
C40   C     C_R   0.248196 0.686986 0.396145 -0.159714
C41   C     C_R   0.681388 0.810000 0.501376 -0.031164
C42   C     C_R   0.683386 0.188174 0.498252 -0.042192
C43   C     C_R   0.187385 0.315933 0.495832 -0.097338
C44   C     C_R   0.183423 0.687908 0.498000 -0.060726
C45   C     C_R   0.739031 0.802187 0.610898 0.058187
C46   C     C_R   0.679669 0.257186 0.591842 0.027858
C47   C     C_R   0.269720 0.332997 0.554557 0.109664
C48   C     C_R   0.175548 0.760901 0.583271 0.020513
C49   C     C_3   0.800945 0.866349 0.679682 -0.231159
C50   C     C_3   0.669538 0.264844 0.742792 -0.204013
C51   C     C_3   0.295264 0.365515 0.692475 -0.230011
C52   C     C_3   0.156172 0.775994 0.730500 -0.228908
H1    H     H_    0.228621 0.114458 0.359967 0.151350
H2    H     H_    0.365897 0.748344 0.321746 0.166580
H3    H     H_    0.744153 0.630202 0.320871 0.157982
H4    H     H_    0.856960 0.256809 0.309426 0.164892
H5    H     H_    0.357771 0.114323 0.122636 0.229197
H6    H     H_    0.284199 0.014410 0.121330 0.200350
H7    H     H_    0.825569 0.627441 0.118409 0.211081
H8    H     H_    0.817287 0.503738 0.122133 0.220790
H9    H     H_    0.630967 0.747229 0.318560 0.160140
H10   H     H_    0.743568 0.142347 0.310581 0.170228
H11   H     H_    0.113492 0.230062 0.359861 0.154036
H12   H     H_    0.251972 0.633659 0.322788 0.181203
H13   H     H_    0.776244 0.886486 0.781270 0.130248
H14   H     H_    0.602085 0.287947 0.773048 0.145948
H15   H     H_    0.242677 0.355491 0.769748 0.131725
H16   H     H_    0.087650 0.801884 0.747024 0.149510
H17   H     H_    0.353767 0.241814 0.768996 0.204678
H18   H     H_    0.197317 0.916027 0.739310 0.192164
H19   H     H_    0.882054 0.767543 0.788882 0.203267
H20   H     H_    0.708265 0.405178 0.760703 0.194763
H21   H     H_    0.639984 0.001121 0.126642 0.158156
H22   H     H_    0.103010 0.405166 0.125139 0.157682
H23   H     H_    0.639865 0.999153 0.874192 0.147366
H24   H     H_    0.102908 0.405174 0.874582 0.142940
H25   H     H_    0.358347 0.114412 0.881082 0.216206
H26   H     H_    0.283842 0.015677 0.879144 0.199692
H27   H     H_    0.823977 0.624704 0.877789 0.213124
H28   H     H_    0.818012 0.501156 0.878826 0.214191
N1    N     N_R   0.499140 0.000000 0.142800 -0.117749
N2    N     N_R   0.999140 0.500000 0.142800 -0.114778
N3    N     N_R   0.499160 0.000000 0.857150 -0.116407
N4    N     N_R   0.999160 0.500000 0.857150 -0.108551
O1    O     O_R   0.408400 0.908380 0.614690 -0.614085
O2    O     O_R   0.408400 0.091620 0.614690 -0.623552
O3    O     O_R   0.908400 0.408380 0.614690 -0.617270
O4    O     O_R   0.908400 0.591620 0.614690 -0.621847
O5    O     O_R   0.408370 0.908370 0.385350 -0.629760
O6    O     O_R   0.408370 0.091630 0.385350 -0.620740
O7    O     O_R   0.908370 0.408370 0.385350 -0.630288
O8    O     O_R   0.908370 0.591630 0.385350 -0.622030
O9    O     O_R   0.591610 0.091610 0.614650 -0.618754
O10   O     O_R   0.591610 0.908390 0.614650 -0.634151
O11   O     O_R   0.091610 0.591610 0.614650 -0.602542
O12   O     O_R   0.091610 0.408390 0.614650 -0.631647
O13   O     O_R   0.591590 0.091600 0.385310 -0.612426
O14   O     O_R   0.591590 0.908400 0.385310 -0.616835
O15   O     O_R   0.091590 0.591600 0.385310 -0.611579
O16   O     O_R   0.091590 0.408400 0.385310 -0.626962
Zn1   Zn    Zn3+2 0.500010 1.000000 0.653130 0.957296
Zn2   Zn    Zn3+2 0.000010 0.500000 0.653130 0.969247
Zn3   Zn    Zn3+2 0.499980 0.000000 0.346870 0.961503
Zn4   Zn    Zn3+2 0.999980 0.500000 0.346870 0.960496
C53   C     C_2   0.833726 0.942999 0.595902 0.972994
O17   O     O_2   0.890365 0.991967 0.643629 -0.607971
O18   O     O_R   0.801554 0.957748 0.465046 -0.824027
H29   H     H_    0.830143 0.010809 0.420685 0.335666
C54   C     C_2   0.703730 0.187778 0.823690 0.972506
O19   O     O_2   0.673826 0.174922 0.936741 -0.658874
O20   O     O_R   0.771483 0.133677 0.772811 -0.775037
H30   H     H_    0.789125 0.085322 0.838379 0.335387
C55   C     C_2   0.333546 0.457311 0.692076 0.975174
O21   O     O_2   0.376156 0.483080 0.790048 -0.624284
O22   O     O_R   0.320434 0.512811 0.580951 -0.813181
H31   H     H_    0.350193 0.572368 0.593158 0.362750
C56   C     C_2   0.181220 0.700797 0.822509 0.998694
O23   O     O_2   0.127925 0.675261 0.906878 -0.656077
O24   O     O_R   0.265110 0.661247 0.812960 -0.788976
H32   H     H_    0.273936 0.613202 0.882885 0.359106
H33   H     H_    0.436208 0.317782 0.689527 0.204796
H34   H     H_    0.287456 0.836195 0.787117 0.232951
H35   H     H_    0.928917 0.800514 0.621461 0.194909
H36   H     H_    0.802215 0.325524 0.787589 0.224251

loop_
_geom_bond_atom_site_label_1
_geom_bond_atom_site_label_2
_ccdc_geom_bond_type
C23   O15   A    
C22   O14   A    
O12   Zn2   S    
N4    Zn2   S    
O20   H30   S    
C14   N4    A    
O7    Zn4   S    
C56   O24   S    
C11   N1    A    
C53   O18   S    
C28   C46   A    
C33   C39   A    
C49   H13   S    
C2    C29   S    
C34   C40   A    
C32   C36   A    
C35   C37   A    
C38   C42   A    
C12   H22   S    
C24   O12   A    
C7    H19   S    
C22   C41   S    
O14   Zn3   S    
C5    H33   S    
O16   Zn4   S    
C7    C27   S    
C3    O7    A    
C42   C46   A    
C2    O6    A    
C17   H26   S    
C5    H17   S    
C9    C19   S    
C47   C51   S    
C13   H23   S    
O10   Zn1   S    
C10   C20   S    
C18   H27   S    
O18   H29   S    
C20   H8    S    
C25   C47   A    
C40   C44   A    
C52   H16   S    
O11   Zn2   S    
C26   C48   A    
C52   C56   S    
C27   C45   A    
O15   Zn4   S    
C29   C33   A    
O5    Zn3   S    
C25   C29   A    
C22   O10   A    
C15   C17   S    
C19   H6    S    
C33   H1    S    
C8    H20   S    
C30   C34   A    
C35   H3    S    
C28   C32   A    
C7    C49   S    
C11   H21   S    
O9    Zn1   S    
C8    H36   S    
C49   C53   S    
C3    O3    A    
C10   N2    A    
C16   N4    A    
C19   H5    S    
C23   C44   S    
N2    Zn4   S    
C55   O22   S    
C14   H24   S    
C36   H4    S    
O3    Zn2   S    
C21   O13   A    
C37   H9    S    
C45   C49   S    
C17   H25   S    
C12   N2    A    
C51   H15   S    
C20   H7    S    
C50   H14   S    
O13   Zn3   S    
C5    C25   S    
C18   H28   S    
C12   C14   A    
C34   H2    S    
C27   C31   A    
C8    C28   S    
C31   C35   A    
C1    O1    A    
C6    H34   S    
C8    C50   S    
O1    Zn1   S    
C55   O21   D    
N1    Zn3   S    
C6    H18   S    
C46   C50   S    
C1    O5    A    
N3    Zn1   S    
C24   O16   A    
C51   C55   S    
C7    H35   S    
O4    Zn2   S    
O24   H32   S    
C26   C30   A    
C4    O4    A    
C39   H11   S    
C53   O17   D    
C13   N3    A    
C40   H12   S    
C6    C52   S    
C54   O20   S    
C9    C15   A    
C10   C16   A    
C56   O23   D    
C11   C13   A    
C6    C26   S    
C21   O9    A    
C15   N3    A    
C36   C38   A    
C1    C30   S    
C17   C19   S    
C23   O11   A    
C2    O2    A    
C18   C20   S    
C50   C54   S    
C37   C41   A    
C3    C32   S    
O6    Zn3   S    
C4    C31   S    
O8    Zn4   S    
C21   C42   S    
C44   C48   A    
C48   C52   S    
C39   C43   A    
C16   C18   S    
C24   C43   S    
C41   C45   A    
C5    C51   S    
C4    O8    A    
C54   O19   D    
O2    Zn1   S    
C43   C47   A    
O22   H31   S    
C9    N1    A    
C38   H10   S    
