data_mof_unit_46022.cif
_audit_creation_date              2012-10-26T20:58:44-0400
_audit_creation_method            fapswitch 2.2
_symmetry_space_group_name_H-M    P1
_symmetry_Int_Tables_number       1
_space_group_crystal_system       triclinic
_cell_length_a                    27.759511
_cell_length_b                    10.592611
_cell_length_c                    9.425875
_cell_angle_alpha                 89.930411
_cell_angle_beta                  90.441009
_cell_angle_gamma                 89.523791
_cell_volume                      2771.45793135

loop_
_atom_site_label
_atom_site_type_symbol
_atom_type_description
_atom_site_fract_x
_atom_site_fract_y
_atom_site_fract_z
_atom_type_partial_charge
C1    C     C_R   0.500647 0.259578 0.499928 0.555716
C2    C     C_R   0.873179 0.401092 0.547744 -0.033196
C3    C     C_R   0.354426 0.500489 0.499219 -0.030617
C4    C     C_R   0.645575 0.501779 0.503260 -0.031365
C5    C     C_R   0.974950 0.402336 0.545046 -0.023077
C6    C     C_R   0.025385 0.634734 0.517334 -0.021812
C7    C     C_R   0.973959 0.634310 0.528929 -0.013854
C8    C     C_R   0.025068 0.401965 0.517684 -0.016194
C9    C     C_R   0.949100 0.517770 0.535838 -0.036329
C10   C     C_R   0.050593 0.517229 0.514169 -0.036998
C11   C     C_R   0.949639 0.291846 0.586949 0.262324
C12   C     C_R   0.499363 0.740327 0.500040 0.557226
C13   C     C_R   0.052946 0.746966 0.500411 0.253965
C14   C     C_R   0.899215 0.290656 0.584447 0.280753
C15   C     C_R   0.103110 0.743845 0.515683 0.283124
C16   C     C_R   0.407489 0.499863 0.499629 0.544349
C17   C     C_R   0.592514 0.500295 0.500632 0.544585
C18   C     C_R   0.049873 0.289525 0.484030 -0.119997
C19   C     C_R   0.946214 0.745952 0.541961 -0.118278
C20   C     C_3   0.529781 0.040140 0.605207 -0.150815
C21   C     C_3   0.470187 0.959397 0.394829 -0.151440
C22   C     C_3   0.545325 0.955116 0.479237 -0.157119
C23   C     C_R   0.101705 0.514181 0.503841 -0.133206
C24   C     C_3   0.454652 0.044461 0.520738 -0.158432
C25   C     C_3   0.499370 0.876897 0.500004 0.018120
C26   C     C_3   0.500641 0.122826 0.499830 0.017140
C27   C     C_3   0.484080 0.960732 0.623651 0.293163
C28   C     C_3   0.515909 0.038697 0.376192 0.292840
C29   C     C_3   0.500100 0.615780 0.050819 -0.061738
C30   C     C_3   0.499802 0.384106 0.948883 -0.076162
C31   C     C_3   0.462778 0.558157 0.949688 0.349461
C32   C     C_3   0.537257 0.441822 0.050117 0.340838
C33   C     C_3   0.537415 0.555807 0.951756 0.326664
C34   C     C_R   0.897917 0.516552 0.535860 -0.134491
C35   C     C_3   0.462550 0.444362 0.048237 0.322259
C36   C     C_R   0.177121 0.396493 0.486432 0.433172
C37   C     C_R   0.820804 0.625414 0.512091 0.436857
C38   C     C_R   0.178894 0.620877 0.504673 0.413446
C39   C     C_R   0.822793 0.400886 0.529517 0.416798
C40   C     C_R   0.278428 0.495622 0.628096 0.320908
C41   C     C_R   0.721086 0.501529 0.638470 0.322438
C42   C     C_R   0.329100 0.491875 0.627404 -0.137721
C43   C     C_R   0.670433 0.500275 0.633754 -0.151184
C44   C     C_R   0.328675 0.509909 0.370951 -0.169909
C45   C     C_R   0.126398 0.397507 0.487287 0.033198
C46   C     C_R   0.671754 0.506430 0.376567 -0.163010
C47   C     C_R   0.278540 0.510623 0.370482 -0.124763
C48   C     C_R   0.721899 0.510673 0.380351 -0.125199
C49   C     C_R   0.253449 0.502976 0.498248 0.264754
C50   C     C_R   0.746446 0.509144 0.510566 0.264619
C51   C     C_3   0.454989 0.006987 0.845240 -0.115108
C52   C     C_3   0.543039 0.988350 0.153455 -0.109373
C53   C     C_3   0.394941 0.679849 0.988148 -0.118813
C54   C     C_3   0.602863 0.312758 0.010113 -0.129559
C55   C     C_3   0.608675 0.660125 0.996854 -0.008238
C56   C     C_R   0.871431 0.630680 0.523450 0.041856
C57   C     C_3   0.643327 0.755786 0.933444 -0.262157
C58   C     C_3   0.680152 0.799690 0.043468 -0.467552
C59   C     C_3   0.398028 0.313402 0.008131 -0.012402
C60   C     C_3   0.347775 0.281167 0.061261 -0.258865
C61   C     C_3   0.320869 0.198399 0.955129 -0.463790
C62   C     C_3   0.118395 0.145388 0.295600 -0.061794
C63   C     C_3   0.880376 0.929605 0.408405 -0.054899
C64   C     C_3   0.730540 0.416202 0.863466 -0.138680
C65   C     C_3   0.266686 0.572470 0.853717 -0.130131
C66   C     C_3   0.861618 0.183049 0.761385 0.047545
C67   C     C_R   0.099687 0.286159 0.468374 0.254598
C68   C     C_3   0.831689 0.066199 0.793684 -0.219675
C69   C     C_3   0.812903 0.068425 0.945437 -0.498647
C70   C     C_3   0.137779 0.890862 0.661503 0.076664
C71   C     C_3   0.095659 0.962294 0.730139 -0.248610
C72   C     C_3   0.110188 0.015462 0.874633 -0.509866
C73   C     C_3   0.993003 0.209582 0.773269 -0.130640
C74   C     C_3   0.027818 0.870270 0.317280 -0.117733
C75   C     C_R   0.896095 0.746194 0.527746 0.257514
C76   C     C_R   0.128141 0.627499 0.510055 -0.030890
Cu1   Cu    Cu3+1 0.500010 0.499990 0.643150 1.041571
Cu2   Cu    Cu3+1 0.499990 0.500010 0.356850 1.043943
H1    H     H_    0.347255 0.516912 0.271005 0.151061
H2    H     H_    0.348624 0.481085 0.726353 0.143019
H3    H     H_    0.030957 0.202446 0.465093 0.188616
H4    H     H_    0.961821 0.835339 0.568288 0.203725
H5    H     H_    0.581877 0.915273 0.461089 0.111953
H6    H     H_    0.418089 0.084284 0.538719 0.111655
H7    H     H_    0.426000 0.068278 0.799995 0.102343
H8    H     H_    0.487064 0.063823 0.873908 0.102392
H9    H     H_    0.440974 0.965145 0.944407 0.127258
H10   H     H_    0.509720 0.936603 0.125003 0.106198
H11   H     H_    0.570655 0.922559 0.198145 0.105773
H12   H     H_    0.653538 0.507621 0.274713 0.153026
H13   H     H_    0.557792 0.027568 0.054008 0.125524
H14   H     H_    0.415761 0.753660 0.044890 0.105929
H15   H     H_    0.379974 0.610965 0.064442 0.125290
H16   H     H_    0.364106 0.727628 0.934498 0.129492
H17   H     H_    0.612620 0.372646 0.917974 0.108534
H18   H     H_    0.581742 0.230348 0.973403 0.117641
H19   H     H_    0.636825 0.276438 0.058325 0.133040
H20   H     H_    0.629889 0.578671 0.038459 0.147627
H21   H     H_    0.589406 0.706646 0.086188 0.119040
H22   H     H_    0.662695 0.712427 0.842799 0.194648
H23   H     H_    0.553433 0.076093 0.691409 0.102899
H24   H     H_    0.622528 0.838834 0.893494 0.167036
H25   H     H_    0.661688 0.845418 0.134314 0.147214
H26   H     H_    0.704682 0.869233 0.994382 0.156476
H27   H     H_    0.701957 0.718268 0.082814 0.161913
H28   H     H_    0.418846 0.224323 0.994115 0.123735
H29   H     H_    0.394201 0.362455 0.903902 0.142205
H30   H     H_    0.350823 0.230765 0.164509 0.184920
H31   H     H_    0.326807 0.369626 0.077668 0.159213
H32   H     H_    0.316682 0.248218 0.851898 0.177490
H33   H     H_    0.284504 0.176888 0.996525 0.166754
H34   H     H_    0.446409 0.923242 0.309044 0.104974
H35   H     H_    0.340711 0.108161 0.938596 0.136763
H36   H     H_    0.135836 0.220219 0.231263 0.113712
H37   H     H_    0.080236 0.133545 0.261611 0.076126
H38   H     H_    0.137530 0.055161 0.274019 0.176922
H39   H     H_    0.875193 0.871977 0.310700 0.094426
H40   H     H_    0.917209 0.969946 0.411447 0.136508
H41   H     H_    0.854430 0.009669 0.402413 0.197560
H42   H     H_    0.721525 0.324297 0.812692 0.120029
H43   H     H_    0.699327 0.454414 0.922996 0.100771
H44   H     H_    0.759734 0.397364 0.941861 0.137009
H45   H     H_    0.500375 0.711429 0.098289 0.085891
H46   H     H_    0.271398 0.668093 0.806548 0.131663
H47   H     H_    0.300082 0.541038 0.909271 0.103739
H48   H     H_    0.238115 0.580508 0.934898 0.138865
H49   H     H_    0.839380 0.268667 0.784188 0.144867
H50   H     H_    0.893630 0.182477 0.832826 0.121897
H51   H     H_    0.800613 0.061788 0.718793 0.220003
H52   H     H_    0.854287 0.980203 0.779097 0.216545
H53   H     H_    0.843386 0.072161 0.022360 0.142037
H54   H     H_    0.791953 0.981527 0.965890 0.160639
H55   H     H_    0.788970 0.151664 0.961472 0.142640
H56   H     H_    0.499569 0.288649 0.900917 0.081982
H57   H     H_    0.169511 0.954083 0.659638 0.200964
H58   H     H_    0.148447 0.807817 0.728113 0.111788
H59   H     H_    0.083733 0.041105 0.660091 0.241157
H60   H     H_    0.064858 0.897456 0.744905 0.165047
H61   H     H_    0.122231 0.938106 0.946619 0.141206
H62   H     H_    0.078928 0.064272 0.923457 0.126359
H63   H     H_    0.139780 0.084537 0.862681 0.169662
H64   H     H_    0.970327 0.273649 0.839204 0.086098
H65   H     H_    0.029580 0.249888 0.763233 0.131303
H66   H     H_    0.996605 0.118937 0.831506 0.133920
H67   H     H_    0.259058 0.517720 0.270758 0.113687
H68   H     H_    0.004158 0.794716 0.274560 0.103046
H69   H     H_    0.063687 0.866612 0.265347 0.135352
H70   H     H_    0.010805 0.962330 0.289885 0.122779
H71   H     H_    0.741783 0.515002 0.282085 0.116599
H72   H     H_    0.650458 0.499797 0.731614 0.145006
N1    N     N_R   0.201861 0.506781 0.496449 -0.387322
N2    N     N_R   0.798012 0.511810 0.513803 -0.388413
N3    N     N_3   0.500040 0.499970 0.858290 -0.253273
N4    N     N_3   0.499960 0.500030 0.141710 -0.254467
O1    O     O_R   0.500020 0.316850 0.620870 -0.551484
O2    O     O_2   0.794310 0.732247 0.499366 -0.444790
O3    O     O_2   0.798503 0.291078 0.526464 -0.473790
O4    O     O_2   0.205415 0.726999 0.506223 -0.472033
O5    O     O_3   0.467299 0.908658 0.751763 -0.515657
O6    O     O_3   0.532982 0.088488 0.247214 -0.521225
O7    O     O_3   0.422970 0.618995 0.884506 -0.526454
O8    O     O_3   0.577464 0.381516 0.113675 -0.531742
O9    O     O_3   0.576691 0.618570 0.889896 -0.549830
O10   O     O_3   0.421496 0.389482 0.109443 -0.550718
O11   O     O_3   0.122053 0.171461 0.441972 -0.506895
O12   O     O_R   0.499980 0.683150 0.379130 -0.552666
O13   O     O_3   0.871019 0.859700 0.532653 -0.523096
O14   O     O_3   0.747106 0.506176 0.765002 -0.553783
O15   O     O_3   0.252208 0.482477 0.751982 -0.554993
O16   O     O_3   0.875998 0.179287 0.617734 -0.502976
O17   O     O_3   0.127155 0.857933 0.518938 -0.491336
O18   O     O_3   0.972880 0.184540 0.637993 -0.555224
O19   O     O_3   0.032356 0.862286 0.466128 -0.567163
O20   O     O_R   0.500000 0.316860 0.379090 -0.411373
O21   O     O_R   0.500000 0.683140 0.620910 -0.406256
O22   O     O_R   0.430270 0.500020 0.620880 -0.475078
O23   O     O_R   0.569730 0.499980 0.379120 -0.468702
O24   O     O_R   0.430250 0.500030 0.379090 -0.471898
O25   O     O_R   0.569750 0.499970 0.620910 -0.480407
O26   O     O_2   0.201824 0.286623 0.476922 -0.438211

loop_
_geom_bond_atom_site_label_1
_geom_bond_atom_site_label_2
_ccdc_geom_bond_type
C52   O6    S    
C66   C68   S    
C31   O7    S    
C3    C42   A    
C34   C56   A    
C23   C45   A    
C74   H68   S    
Cu2   O23   S    
C41   C50   A    
C36   O26   S    
C35   N4    S    
C23   C76   A    
C14   O16   S    
C53   O7    S    
C51   H7    S    
C47   H67   S    
C19   C75   A    
C47   C49   A    
C4    C46   A    
Cu1   Cu2   S    
C42   H2    S    
C57   H24   S    
Cu1   O25   S    
C30   C35   S    
C74   H70   S    
C33   O9    S    
C24   C26   S    
C62   H36   S    
C12   O12   A    
C63   H39   S    
C11   C14   A    
C33   N3    S    
C27   O5    S    
C40   C49   A    
C41   O14   S    
C29   C33   S    
C28   O6    S    
C18   H3    S    
C66   H49   S    
C65   H46   S    
C51   O5    S    
C1    O1    A    
C60   H31   S    
Cu1   N3    S    
C37   C56   A    
C2    C39   A    
C30   N3    S    
C68   C69   S    
C30   H56   S    
C22   C25   S    
C32   O8    S    
C45   C67   A    
C24   C27   S    
C54   H19   S    
C70   C71   S    
C59   O10   S    
C19   H4    S    
C54   H18   S    
C60   H30   S    
C44   C47   A    
C2    C34   A    
C40   C42   A    
C15   C76   A    
C59   C60   S    
Cu1   O21   S    
C56   C75   A    
C22   C28   S    
C48   H71   S    
C39   O3    S    
C70   H58   S    
C41   C43   A    
C37   O2    S    
C52   H11   S    
C61   H32   S    
C51   H8    S    
C40   O15   S    
C31   N3    S    
C16   O24   A    
C71   H60   S    
C73   H64   S    
C72   H61   S    
C72   H63   S    
C1    O20   A    
C46   C48   A    
C3    C44   A    
Cu2   O12   S    
C59   H28   S    
C49   N1    S    
C53   H15   S    
C74   H69   S    
C52   H10   S    
C38   O4    S    
C74   O19   S    
C71   H59   S    
C51   H9    S    
C63   H40   S    
Cu2   N4    S    
C38   C76   A    
C20   H23   S    
C18   C67   A    
C57   H22   S    
C39   N2    A    
C59   H29   S    
C65   O15   S    
C60   C61   S    
C65   H47   S    
C17   O25   A    
C13   O19   S    
C70   O17   S    
C5    C9    A    
C63   H41   S    
C72   H62   S    
C69   H53   S    
C53   H14   S    
C15   O17   S    
C36   C45   A    
C54   O8    S    
C73   O18   S    
C68   H52   S    
C48   C50   A    
C58   H25   S    
C54   H17   S    
C43   H72   S    
C12   O21   A    
C32   N4    S    
C4    C17   S    
C8    C10   A    
C4    C43   A    
C21   C28   S    
C20   C22   S    
Cu1   O22   S    
C7    C19   A    
C55   C57   S    
C61   H35   S    
C1    C26   S    
C31   C35   S    
C21   C24   S    
C58   H26   S    
C37   N2    A    
C61   H33   S    
C38   N1    A    
C21   H34   S    
C73   H65   S    
C17   O23   A    
C7    C9    A    
C21   C25   S    
C69   H55   S    
C53   H16   S    
Cu2   O24   S    
C66   O16   S    
C44   H1    S    
C6    C10   A    
C5    C8    A    
C36   N1    A    
C5    C11   A    
C6    C7    A    
C46   H12   S    
C20   C27   S    
C10   C23   A    
C25   C27   S    
C26   C28   S    
C35   O10   S    
C64   H42   S    
C12   C25   S    
C58   H27   S    
C65   H48   S    
C13   C15   A    
C24   H6    S    
C55   O9    S    
C62   H37   S    
C29   C31   S    
C32   C33   S    
C6    C13   A    
C30   C32   S    
C67   O11   S    
C57   C58   S    
C9    C34   A    
C20   C26   S    
C69   H54   S    
C64   H44   S    
C29   H45   S    
C55   H20   S    
C63   O13   S    
C66   H50   S    
C68   H51   S    
C2    C14   A    
C8    C18   A    
C62   H38   S    
C50   N2    S    
C71   C72   S    
C62   O11   S    
C22   H5    S    
C64   O14   S    
C70   H57   S    
C55   H21   S    
Cu2   O20   S    
C52   H13   S    
C75   O13   S    
C16   O22   A    
C11   O18   S    
Cu1   O1    S    
C3    C16   S    
C64   H43   S    
C29   N4    S    
C73   H66   S    
