data_mof_unit_35607.cif
_audit_creation_date              2012-10-26T19:21:34-0400
_audit_creation_method            fapswitch 2.2
_symmetry_space_group_name_H-M    P1
_symmetry_Int_Tables_number       1
_space_group_crystal_system       triclinic
_cell_length_a                    9.897977
_cell_length_b                    11.033619
_cell_length_c                    15.813421
_cell_angle_alpha                 94.105534
_cell_angle_beta                  82.124179
_cell_angle_gamma                 111.502771
_cell_volume                      1591.20873782

loop_
_atom_site_label
_atom_site_type_symbol
_atom_type_description
_atom_site_fract_x
_atom_site_fract_y
_atom_site_fract_z
_atom_type_partial_charge
C1    C     C_R   0.556401 0.745575 0.506255 0.530963
C2    C     C_2   0.515331 0.069538 0.501840 -0.158301
C3    C     C_2   0.923522 0.493929 0.491282 0.111707
C4    C     C_2   0.075728 0.504536 0.509568 0.116560
C5    C     C_R   0.415322 0.490309 0.662894 0.549126
C6    C     C_R   0.583338 0.505492 0.337393 0.578086
C7    C     C_R   0.366433 0.479744 0.755830 -0.063986
C8    C     C_R   0.621349 0.481898 0.245554 -0.018543
C9    C     C_R   0.171749 0.444999 0.873867 0.307913
C10   C     C_R   0.785586 0.435329 0.130151 0.250081
C11   C     C_R   0.222537 0.470095 0.787641 0.187469
C12   C     C_R   0.443571 0.254421 0.493803 0.546512
C13   C     C_R   0.747704 0.452956 0.217978 0.183296
C14   C     C_R   0.461417 0.474540 0.813558 0.251702
C15   C     C_R   0.524548 0.476572 0.186132 0.236408
C16   C     C_R   0.403525 0.427463 0.896992 -0.047150
C17   C     C_R   0.545541 0.427375 0.102100 -0.040366
C18   C     C_R   0.257160 0.413578 0.926557 -0.105955
C19   C     C_R   0.680153 0.412155 0.073608 -0.092091
C20   C     C_R   0.489443 0.403550 0.954645 -0.023062
C21   C     C_R   0.441615 0.402940 0.043182 -0.013560
C22   C     C_3   0.459036 0.653397 0.187930 -0.097341
C23   C     C_R   0.289492 0.365882 0.068228 0.303812
C24   C     C_3   0.669514 0.650409 0.823578 -0.095277
C25   C     C_3   0.043719 0.581822 0.905898 -0.074996
C26   C     C_3   0.027748 0.566478 0.116180 -0.096994
C27   C     C_3   0.215199 0.182413 0.144933 -0.128460
C28   C     C_3   0.554776 0.196193 0.837197 -0.091776
C29   C     C_3   0.118708 0.279738 0.371341 0.008169
C30   C     C_3   0.887096 0.726864 0.623180 -0.023457
C31   C     C_R   0.614883 0.370657 0.928694 0.292733
C32   C     C_R   0.198939 0.369816 0.009196 -0.105526
C33   C     C_R   0.706207 0.372277 0.988964 -0.098489
C34   C     C_2   0.588238 0.885060 0.509819 -0.137828
C35   C     C_2   0.411662 0.114932 0.490413 -0.131526
C36   C     C_2   0.484434 0.930449 0.498678 -0.166480
Cu1   Cu    Cu3+1 0.362980 0.479380 0.485080 1.001078
Cu2   Cu    Cu3+1 0.637020 0.520620 0.514920 1.025296
H1    H     H_    0.082733 0.337471 0.028098 0.221259
H2    H     H_    0.553542 0.714413 0.221830 0.095865
H3    H     H_    0.368407 0.689628 0.207730 0.137541
H4    H     H_    0.647452 0.653632 0.894458 0.090791
H5    H     H_    0.626924 0.716866 0.795402 0.071088
H6    H     H_    0.789978 0.686961 0.807365 0.135465
H7    H     H_    0.892647 0.390417 0.251149 0.364493
H8    H     H_    0.183201 0.571771 0.708006 0.307688
H9    H     H_    0.021152 0.603767 0.843130 0.178456
H10   H     H_    0.149274 0.654861 0.923023 0.054682
H11   H     H_    0.955709 0.593773 0.953087 0.135338
H12   H     H_    0.796687 0.340548 0.969394 0.226641
H13   H     H_    0.056112 0.575398 0.182373 0.174311
H14   H     H_    0.989242 0.646121 0.104148 0.076766
H15   H     H_    0.130775 0.581824 0.073461 0.139836
H16   H     H_    0.325319 0.174952 0.137455 0.108563
H17   H     H_    0.151271 0.125237 0.093275 0.095436
H18   H     H_    0.156841 0.137248 0.206228 0.109697
H19   H     H_    0.582716 0.161053 0.772077 0.152007
H20   H     H_    0.437285 0.184408 0.843839 0.101448
H21   H     H_    0.573138 0.134190 0.883643 0.082278
H22   H     H_    0.043607 0.228432 0.323543 0.108804
H23   H     H_    0.624175 0.135230 0.513622 0.163816
H24   H     H_    0.079708 0.220375 0.430008 0.095230
H25   H     H_    0.230167 0.285047 0.344503 0.180527
H26   H     H_    0.775852 0.724606 0.647458 0.164085
H27   H     H_    0.929658 0.782537 0.563081 0.104105
H28   H     H_    0.960071 0.780014 0.671661 0.072958
H29   H     H_    0.375527 0.864752 0.487018 0.157007
H30   H     H_    0.303003 0.049011 0.478605 0.087342
H31   H     H_    0.696960 0.950983 0.521507 0.093466
H32   H     H_    0.117773 0.559665 0.565776 0.143453
H33   H     H_    0.880513 0.436926 0.435862 0.177627
H34   H     H_    0.487567 0.665045 0.117650 0.087187
N1    N     N_2   0.842890 0.551600 0.537350 -0.066678
N2    N     N_2   0.157110 0.448400 0.462650 -0.069664
O1    O     O_R   0.426810 0.668300 0.492040 -0.512702
O2    O     O_3   0.610902 0.522611 0.789494 -0.455012
O3    O     O_3   0.832373 0.441139 0.277213 -0.700552
O4    O     O_3   0.129443 0.487482 0.736571 -0.642676
O5    O     O_3   0.038074 0.451771 0.907572 -0.531785
O6    O     O_3   0.925374 0.440895 0.099083 -0.576484
O7    O     O_3   0.225464 0.313630 0.147212 -0.503986
O8    O     O_3   0.645356 0.327921 0.846495 -0.472526
O9    O     O_3   0.113905 0.405245 0.385258 -0.477818
O10   O     O_3   0.888673 0.599878 0.613483 -0.468556
O11   O     O_R   0.573190 0.331700 0.507960 -0.499436
O12   O     O_R   0.658240 0.703130 0.517240 -0.536638
O13   O     O_R   0.341760 0.296870 0.482760 -0.531088
O14   O     O_R   0.319390 0.472820 0.610170 -0.504560
O15   O     O_R   0.680610 0.527180 0.389830 -0.470775
O16   O     O_R   0.550820 0.507640 0.635370 -0.425158
O17   O     O_R   0.449180 0.492360 0.364630 -0.443441
O18   O     O_3   0.411117 0.521557 0.210202 -0.475467

loop_
_geom_bond_atom_site_label_1
_geom_bond_atom_site_label_2
_ccdc_geom_bond_type
C2    C35   D    
Cu1   N2    S    
C29   H25   S    
C8    C13   A    
C30   H26   S    
C24   H4    S    
Cu1   O14   S    
N2    O9    S    
C4    H32   S    
C36   H29   S    
C28   H19   S    
C7    C11   A    
Cu2   O15   S    
C31   O8    S    
C12   O11   A    
Cu2   O12   S    
C29   O9    S    
C27   H17   S    
C22   H3    S    
C6    O17   A    
C9    O5    S    
C32   H1    S    
C15   O18   S    
C5    O14   A    
C7    C14   A    
C31   C33   A    
C25   H9    S    
N1    O10   S    
C4    N2    D    
C5    O16   A    
C2    H23   S    
Cu1   O1    S    
C22   H34   S    
C1    C34   S    
C25   H11   S    
C13   O3    S    
C27   H16   S    
Cu1   O17   S    
Cu2   O11   S    
C28   O8    S    
C1    O1    A    
C27   O7    S    
C19   C33   A    
C5    C7    S    
C10   O6    S    
C27   H18   S    
C24   O2    S    
C6    C8    S    
C33   H12   S    
C26   O6    S    
C14   O2    S    
C3    H33   S    
Cu1   Cu2   S    
C11   O4    S    
C26   H14   S    
C34   H31   S    
C29   H22   S    
C10   C19   A    
C16   C20   A    
C22   H2    S    
C12   C35   S    
C9    C11   A    
C25   H10   S    
C30   H28   S    
C8    C15   A    
C21   C23   A    
C24   H6    S    
C14   C16   A    
C18   C32   A    
C3    C4    S    
C26   H15   S    
H8    O4    S    
C28   H21   S    
C2    C36   S    
C1    O12   A    
C15   C17   A    
C29   H24   S    
C23   O7    S    
C12   O13   A    
C25   O5    S    
Cu1   O13   S    
C10   C13   A    
C28   H20   S    
C6    O15   A    
Cu2   O16   S    
C23   C32   A    
C26   H13   S    
C35   H30   S    
C17   C19   A    
C34   C36   D    
C30   O10   S    
C3    N1    D    
C17   C21   A    
C30   H27   S    
C9    C18   A    
C20   C21   A    
C16   C18   A    
C24   H5    S    
C22   O18   S    
H7    O3    S    
Cu2   N1    S    
C20   C31   A    
