data_mof_unit_28049.cif
_audit_creation_date              2012-12-10T19:30:39-0500
_audit_creation_method            fapswitch 2.2
_symmetry_space_group_name_H-M    P1
_symmetry_Int_Tables_number       1
_space_group_crystal_system       triclinic
_cell_length_a                    14.930648
_cell_length_b                    15.713216
_cell_length_c                    16.640119
_cell_angle_alpha                 90.03592
_cell_angle_beta                  83.408553
_cell_angle_gamma                 91.012854
_cell_volume                      3877.49829895

loop_
_atom_site_label
_atom_site_type_symbol
_atom_type_description
_atom_site_fract_x
_atom_site_fract_y
_atom_site_fract_z
_atom_type_partial_charge
C1    C     C_R   0.500743 0.662429 0.500269 0.867775
C2    C     C_R   0.499266 0.337526 0.499601 0.932847
C3    C     C_3   0.462718 0.025323 0.430918 0.432135
C4    C     C_3   0.536113 0.974513 0.562198 0.430921
C5    C     C_3   0.549521 0.973604 0.429262 0.437866
C6    C     C_3   0.449160 0.026078 0.563749 0.441472
C7    C     C_1   0.502643 0.751075 0.498829 -0.179329
C8    C     C_1   0.497588 0.248789 0.497857 -0.170608
C9    C     C_3   0.413405 0.968958 0.498463 -0.141467
C10   C     C_3   0.585503 0.030564 0.494370 -0.146148
C11   C     C_3   0.500986 0.916839 0.496982 -0.147202
C12   C     C_3   0.498071 0.082832 0.495962 -0.146764
C13   C     C_1   0.503009 0.826203 0.497740 0.088078
C14   C     C_1   0.496841 0.173600 0.496507 0.092798
C15   C     C_3   0.038783 0.551976 0.440603 0.456213
C16   C     C_3   0.961732 0.449005 0.557836 0.447232
C17   C     C_3   0.978907 0.473017 0.426355 -0.134923
C18   C     C_3   0.021065 0.528018 0.572465 -0.140796
C19   C     C_3   0.970879 0.580070 0.512940 0.428847
C20   C     C_3   0.029433 0.421258 0.485947 0.433607
C21   C     C_3   0.910249 0.501035 0.499118 -0.211849
C22   C     C_3   0.089821 0.499996 0.499871 -0.218715
C23   C     C_R   0.485995 0.500084 0.653974 0.977079
C24   C     C_R   0.513907 0.502056 0.346436 0.977925
C25   C     C_1   0.810132 0.500568 0.499932 0.194599
C26   C     C_1   0.189885 0.499875 0.499832 0.200894
C27   C     C_R   0.472374 0.491028 0.741478 -0.314213
C28   C     C_R   0.527147 0.513066 0.259663 -0.317051
C29   C     C_R   0.517862 0.425354 0.776648 0.388612
C30   C     C_R   0.567841 0.447051 0.212519 0.387162
C31   C     C_R   0.499218 0.408916 0.859329 0.357771
C32   C     C_R   0.580709 0.455421 0.128336 0.403271
C33   C     C_R   0.442343 0.463250 0.907352 -0.218512
C34   C     C_R   0.547187 0.527291 0.092649 -0.268048
C35   C     C_R   0.392920 0.525830 0.872727 0.481841
C36   C     C_R   0.515129 0.597245 0.139404 0.438600
C37   C     C_R   0.409425 0.542275 0.789259 -0.063371
C38   C     C_R   0.502097 0.589503 0.223985 -0.107488
C39   C     C_2   0.456267 0.471755 0.992087 0.563116
C40   C     C_2   0.526706 0.521425 0.008932 0.560746
N1    N     N_1   0.731990 0.500000 0.499970 -0.099739
N2    N     N_1   0.268010 0.500000 0.500030 -0.102807
O1    O     O_R   0.425540 0.623220 0.500000 -0.627875
O2    O     O_R   0.574460 0.376780 0.500000 -0.597968
O3    O     O_R   0.574480 0.623220 0.499990 -0.605078
O4    O     O_R   0.425520 0.376780 0.500010 -0.603584
O5    O     O_R   0.416730 0.500010 0.615810 -0.630111
O6    O     O_R   0.583270 0.499990 0.384190 -0.591709
O7    O     O_R   0.565670 0.500010 0.615790 -0.590510
O8    O     O_R   0.434330 0.499990 0.384210 -0.626838
Zn1   Zn    Zn3+2 0.400550 0.500000 0.500010 0.964706
Zn2   Zn    Zn3+2 0.599450 0.500000 0.499990 1.001957
O9    O     O_3   0.576442 0.373707 0.728901 -0.598230
C41   C     C_3   0.665986 0.399826 0.736947 -0.181982
H1    H     H_    0.685561 0.381339 0.796847 0.177125
H2    H     H_    0.676786 0.469613 0.727418 0.149761
H3    H     H_    0.711803 0.367098 0.690046 0.198604
O10   O     O_3   0.593904 0.373692 0.248899 -0.615519
C42   C     C_3   0.522142 0.313653 0.252986 -0.249132
H4    H     H_    0.506241 0.295154 0.191567 0.210578
H5    H     H_    0.460750 0.337804 0.289583 0.149593
H6    H     H_    0.542674 0.255397 0.283235 0.185379
O11   O     O_3   0.088339 0.600384 0.378476 -0.608029
C43   C     C_3   0.037725 0.668557 0.353722 -0.311818
H7    H     H_    0.963389 0.658825 0.365498 0.179788
H8    H     H_    0.054665 0.677456 0.287572 0.170409
H9    H     H_    0.057786 0.728157 0.383050 0.178158
O12   O     O_3   0.914384 0.397147 0.618365 -0.631725
C44   C     C_3   0.974005 0.343806 0.653848 -0.290707
H10   H     H_    0.947909 0.334161 0.718389 0.165230
H11   H     H_    0.044022 0.369771 0.651934 0.167096
H12   H     H_    0.975466 0.280563 0.624212 0.192203
O13   O     O_3   0.068007 0.339969 0.475134 -0.591455
C45   C     C_3   0.003616 0.279385 0.454669 -0.322981
H13   H     H_    0.006628 0.274406 0.387929 0.168250
H14   H     H_    0.933428 0.292558 0.481585 0.170318
H15   H     H_    0.021414 0.216276 0.477454 0.189262
O14   O     O_3   0.933011 0.661544 0.524964 -0.601090
C46   C     C_3   0.997791 0.721134 0.546854 -0.325966
H16   H     H_    0.068745 0.705234 0.524487 0.160185
H17   H     H_    0.990914 0.728542 0.613509 0.180995
H18   H     H_    0.983914 0.783914 0.520915 0.186763
C47   C     C_3   0.458718 0.661662 0.274610 -0.316739
C48   C     C_3   0.355599 0.656778 0.278778 -0.272210
C49   C     C_3   0.312140 0.727350 0.332139 -0.888437
H19   H     H_    0.237739 0.722996 0.333333 0.272952
H20   H     H_    0.335602 0.790766 0.307912 0.242469
H21   H     H_    0.329370 0.720923 0.395006 0.270981
H22   H     H_    0.334977 0.663151 0.217004 0.240273
H23   H     H_    0.330177 0.594211 0.303746 0.242559
H24   H     H_    0.479089 0.660765 0.336505 0.180400
H25   H     H_    0.483182 0.724179 0.249168 0.212734
C50   C     C_3   0.364254 0.617650 0.753676 -0.360973
C51   C     C_3   0.432179 0.690255 0.729731 -0.287137
C52   C     C_3   0.386143 0.765968 0.695631 -0.926287
H26   H     H_    0.353417 0.746496 0.641662 0.259840
H27   H     H_    0.334550 0.792204 0.742022 0.256798
H28   H     H_    0.437158 0.816573 0.677404 0.285702
H29   H     H_    0.463969 0.711375 0.783780 0.248185
H30   H     H_    0.486288 0.668465 0.683385 0.208821
H31   H     H_    0.329548 0.597386 0.701274 0.205473
H32   H     H_    0.310139 0.643689 0.797615 0.236990
O15   O     O_3   0.570678 0.574056 0.949266 -0.627096
C53   C     C_3   0.663638 0.556943 0.940181 -0.381421
H33   H     H_    0.695688 0.577847 0.994136 0.158448
H34   H     H_    0.696336 0.593522 0.887478 0.194145
H35   H     H_    0.676197 0.488312 0.927570 0.197417
O16   O     O_3   0.411042 0.415953 0.048057 -0.621848
C54   C     C_3   0.348743 0.460221 0.102610 -0.374709
H36   H     H_    0.282470 0.426579 0.106137 0.191987
H37   H     H_    0.338128 0.527849 0.086139 0.194039
H38   H     H_    0.371221 0.458580 0.163851 0.183398
O17   O     O_3   0.337043 0.577866 0.922426 -0.587457
C55   C     C_3   0.250455 0.539273 0.933546 -0.382656
H39   H     H_    0.251870 0.474957 0.961294 0.177328
H40   H     H_    0.220388 0.534799 0.875467 0.157335
H41   H     H_    0.205853 0.579269 0.975350 0.200158
O18   O     O_3   0.482894 0.667537 0.102493 -0.583425
C56   C     C_3   0.554571 0.726769 0.084595 -0.259033
H42   H     H_    0.604408 0.703463 0.035349 0.199927
H43   H     H_    0.589456 0.742530 0.138482 0.126260
H44   H     H_    0.526752 0.786638 0.063374 0.184854
O19   O     O_3   0.612606 0.388162 0.080117 -0.559501
C57   C     C_3   0.707001 0.384709 0.079446 -0.278101
H45   H     H_    0.725258 0.359142 0.137466 0.206180
H46   H     H_    0.740593 0.447825 0.066266 0.120060
H47   H     H_    0.733680 0.340560 0.030801 0.184590
O20   O     O_3   0.546172 0.346923 0.894915 -0.581582
C58   C     C_3   0.494486 0.270882 0.897960 -0.205422
H48   H     H_    0.484683 0.248188 0.836117 0.163287
H49   H     H_    0.428125 0.278577 0.934980 0.172958
H50   H     H_    0.531405 0.221046 0.927156 0.179749
O21   O     O_3   0.598550 0.936359 0.360876 -0.606625
C59   C     C_3   0.634427 0.999808 0.305755 -0.324939
H51   H     H_    0.700395 0.023568 0.321660 0.168228
H52   H     H_    0.588951 0.054318 0.300897 0.192859
H53   H     H_    0.646496 0.970748 0.244804 0.182317
O22   O     O_3   0.398784 0.065049 0.630488 -0.599491
C60   C     C_3   0.366375 0.003468 0.688640 -0.331222
H54   H     H_    0.421981 0.972177 0.715246 0.198859
H55   H     H_    0.322289 0.955105 0.663883 0.166044
H56   H     H_    0.324955 0.035952 0.738719 0.186068
O23   O     O_3   0.426806 0.061617 0.364155 -0.608851
C61   C     C_3   0.398842 0.997399 0.312672 -0.323907
H57   H     H_    0.326044 0.982802 0.328458 0.174855
H58   H     H_    0.437704 0.937610 0.313005 0.183514
H59   H     H_    0.407744 0.021991 0.249750 0.186231
O24   O     O_3   0.572179 0.938988 0.629236 -0.609708
C62   C     C_3   0.601896 0.003917 0.679164 -0.324831
H60   H     H_    0.563699 0.064071 0.678170 0.186931
H61   H     H_    0.674665 0.017709 0.662509 0.177019
H62   H     H_    0.593665 0.980577 0.742520 0.183471
C63   C     C_3   0.679749 0.071307 0.491940 -0.372267
C64   C     C_3   0.753509 0.004174 0.489259 -0.279419
C65   C     C_3   0.846533 0.046108 0.488920 -0.952147
H63   H     H_    0.861602 0.087918 0.435073 0.261574
H64   H     H_    0.849617 0.084574 0.544609 0.264168
H65   H     H_    0.898625 0.996321 0.486812 0.257891
H66   H     H_    0.741203 0.961111 0.542314 0.250607
H67   H     H_    0.753170 0.964248 0.434308 0.247752
H68   H     H_    0.691909 0.113200 0.437929 0.196637
H69   H     H_    0.681819 0.112175 0.546187 0.202969
C66   C     C_3   0.320417 0.926045 0.498434 -0.386860
C67   C     C_3   0.244651 0.991106 0.504888 -0.269077
C68   C     C_3   0.153286 0.947359 0.500314 -0.957187
H70   H     H_    0.152749 0.913594 0.441678 0.262829
H71   H     H_    0.138543 0.900911 0.550614 0.260373
H72   H     H_    0.099545 0.995674 0.505298 0.258335
H73   H     H_    0.242573 0.025933 0.563109 0.248473
H74   H     H_    0.256872 0.038441 0.455150 0.251004
H75   H     H_    0.319802 0.888670 0.441888 0.200955
H76   H     H_    0.309224 0.880133 0.549399 0.193921
C69   C     C_3   0.951599 0.437755 0.346406 -0.348587
C70   C     C_3   0.906357 0.503748 0.297281 -0.321755
C71   C     C_3   0.855589 0.461184 0.233080 -0.913596
H77   H     H_    0.902153 0.422408 0.191664 0.254784
H78   H     H_    0.800096 0.419711 0.262154 0.286746
H79   H     H_    0.825832 0.510614 0.197081 0.245744
H80   H     H_    0.857835 0.541850 0.337408 0.226306
H81   H     H_    0.958646 0.547092 0.266226 0.231197
H82   H     H_    0.012417 0.413450 0.309340 0.210678
H83   H     H_    0.903740 0.383628 0.361285 0.195336
C72   C     C_3   0.049251 0.556834 0.654096 -0.371520
C73   C     C_3   0.967459 0.571170 0.716943 -0.286484
C74   C     C_3   0.996356 0.608951 0.794620 -0.952217
H84   H     H_    0.043383 0.565677 0.820909 0.261137
H85   H     H_    0.030101 0.671910 0.782166 0.265172
H86   H     H_    0.936107 0.617600 0.839398 0.251966
H87   H     H_    0.919469 0.614819 0.692560 0.244098
H88   H     H_    0.931568 0.509735 0.731819 0.246586
H89   H     H_    0.092716 0.507821 0.676846 0.187889
H90   H     H_    0.090677 0.616114 0.644955 0.190472

loop_
_geom_bond_atom_site_label_1
_geom_bond_atom_site_label_2
_ccdc_geom_bond_type
C7    C13   T    
C16   C21   S    
C38   C47   S    
C65   H64   S    
C11   C13   S    
O13   C45   S    
C67   H74   S    
C66   C67   S    
O1    Zn1   S    
O20   C58   S    
C6    C9    S    
C53   H34   S    
C55   H39   S    
C52   H28   S    
O19   C57   S    
C71   H78   S    
C68   H70   S    
C69   C70   S    
C2    O4    A    
C5    O21   S    
C47   H25   S    
C33   C39   S    
C45   H14   S    
C34   C40   S    
C51   H29   S    
C67   C68   S    
C35   C37   A    
C5    C11   S    
C62   H61   S    
C6    C12   S    
C60   H56   S    
C23   O7    A    
C27   C29   A    
O23   C61   S    
C4    O24   S    
C17   C20   S    
O16   C54   S    
C44   H11   S    
C18   C19   S    
C9    C66   S    
O18   C56   S    
C3    C12   S    
C33   C35   A    
C70   C71   S    
C1    O1    A    
C15   C22   S    
C52   H26   S    
C2    O2    A    
O12   C44   S    
C45   H15   S    
C31   C33   A    
C16   O12   S    
C23   C27   S    
C66   H75   S    
N1    Zn2   S    
N2    Zn1   S    
C58   H50   S    
O2    Zn2   S    
C49   H20   S    
C69   H82   S    
C42   H4    S    
C68   H71   S    
C1    C7    S    
C72   H90   S    
C65   H65   S    
C32   O19   S    
C67   H73   S    
C44   H10   S    
C48   H23   S    
C31   O20   S    
C59   H53   S    
C61   H59   S    
C10   C63   S    
C5    C10   S    
C53   H33   S    
C17   C69   S    
C71   H79   S    
C56   H43   S    
C24   O8    A    
C39   O16   S    
C41   H2    S    
C42   H5    S    
C23   O5    A    
C45   H13   S    
C24   O6    A    
C43   H9    S    
C3    O23   S    
O24   C62   S    
C61   H58   S    
C62   H62   S    
C50   H31   S    
C39   C40   D    
C46   H17   S    
O14   C46   S    
C74   H86   S    
O5    Zn1   S    
O3    Zn2   S    
O10   C42   S    
C49   H19   S    
O4    Zn1   S    
C17   C21   S    
O11   C43   S    
C63   H68   S    
C43   H8    S    
C6    O22   S    
C19   O14   S    
C15   C19   S    
C72   C73   S    
C64   H67   S    
C3    C9    S    
C51   H30   S    
C55   H40   S    
C47   C48   S    
C28   C38   A    
C16   C20   S    
O7    Zn2   S    
O8    Zn1   S    
C37   C50   S    
C50   C51   S    
C48   C49   S    
C4    C11   S    
C66   H76   S    
C9    C11   S    
C64   C65   S    
C10   C12   S    
C57   H47   S    
C4    C6    S    
C20   C22   S    
C69   H83   S    
C68   H72   S    
O21   C59   S    
C73   H88   S    
C54   H38   S    
C48   H22   S    
C25   N1    T    
C36   C38   A    
C70   H81   S    
C65   H63   S    
C44   H12   S    
C36   O18   S    
C26   N2    T    
C57   H46   S    
O17   C55   S    
C49   H21   S    
C15   C17   S    
C21   C25   S    
C41   H1    S    
C42   H6    S    
C8    C14   T    
C19   C21   S    
C18   C22   S    
C2    C8    S    
C24   C28   S    
C12   C14   S    
C61   H57   S    
C3    C5    S    
C72   H89   S    
C50   H32   S    
C46   H18   S    
C59   H52   S    
C60   H54   S    
C52   H27   S    
O9    C41   S    
C59   H51   S    
C47   H24   S    
C63   H69   S    
C43   H7    S    
C54   H37   S    
C58   H48   S    
C64   H66   S    
C29   C31   A    
C71   H77   S    
C54   H36   S    
C40   O15   S    
C30   C32   A    
C60   H55   S    
C1    O3    A    
C74   H84   S    
C29   O9    S    
C18   C72   S    
C27   C37   A    
C30   O10   S    
C28   C30   A    
C56   H44   S    
C20   O13   S    
C35   O17   S    
C34   C36   A    
C51   C52   S    
C55   H41   S    
C74   H85   S    
O22   C60   S    
C46   H16   S    
O6    Zn2   S    
C16   C18   S    
C56   H42   S    
C22   C26   S    
O15   C53   S    
C15   O11   S    
C73   H87   S    
C73   C74   S    
C63   C64   S    
C62   H60   S    
C4    C10   S    
C70   H80   S    
C53   H35   S    
C32   C34   A    
C57   H45   S    
C58   H49   S    
C41   H3    S    
