data_mof_unit_62788.cif
_audit_creation_date              2012-12-11T16:04:14-0500
_audit_creation_method            fapswitch 2.2
_symmetry_space_group_name_H-M    P1
_symmetry_Int_Tables_number       1
_space_group_crystal_system       triclinic
_cell_length_a                    8.219604
_cell_length_b                    16.435037
_cell_length_c                    17.398642
_cell_angle_alpha                 95.003311
_cell_angle_beta                  95.924948
_cell_angle_gamma                 92.642274
_cell_volume                      2325.30621345

loop_
_atom_site_label
_atom_site_type_symbol
_atom_type_description
_atom_site_fract_x
_atom_site_fract_y
_atom_site_fract_z
_atom_type_partial_charge
Ba1   Ba    Ba6+2 0.150890 0.539190 0.463180 1.634054
Ba2   Ba    Ba6+2 0.659280 0.460800 0.536750 1.632795
C1    C     C_3   0.343488 0.745892 0.172181 -0.366093
C2    C     C_R   0.836210 0.761010 0.510259 0.030443
C3    C     C_R   0.889664 0.844746 0.516092 -0.128257
C4    C     C_3   0.891949 0.761706 0.294013 0.349633
C5    C     C_R   0.787325 0.903299 0.483141 0.245488
C6    C     C_R   0.630247 0.875708 0.447279 -0.168115
C7    C     C_R   0.578206 0.792577 0.442524 -0.003936
C8    C     C_R   0.919378 0.155447 0.484968 -0.128964
C9    C     C_R   0.972200 0.239300 0.491378 0.033067
C10   C     C_R   0.020877 0.097053 0.518761 0.245189
C11   C     C_R   0.123213 0.264648 0.531898 -0.293809
C12   C     C_3   0.365952 0.718691 0.253690 0.353023
C13   C     C_R   0.228694 0.208038 0.560809 -0.009991
C14   C     C_R   0.177255 0.124785 0.555402 -0.167427
C15   C     C_R   0.594956 0.534757 0.279277 -0.289861
C16   C     C_3   0.904137 0.847637 0.268369 -0.363454
C17   C     C_R   0.446639 0.491043 0.255250 0.065646
C18   C     C_R   0.387922 0.481133 0.176063 -0.117398
C19   C     C_R   0.479519 0.514030 0.121003 -0.007362
C20   C     C_R   0.632893 0.554920 0.145750 -0.134853
C21   C     C_R   0.691342 0.563868 0.224993 0.012149
C22   C     C_R   0.410605 0.517347 0.835688 -0.112772
C23   C     C_3   0.526521 0.708698 0.644293 0.307210
C24   C     C_R   0.357283 0.509331 0.756097 0.034273
C25   C     C_R   0.110531 0.433849 0.780085 0.015354
C26   C     C_R   0.162916 0.441322 0.860129 -0.131429
C27   C     C_R   0.314842 0.482456 0.888133 0.000688
C28   C     C_3   0.775911 0.362778 0.303633 0.312740
C29   C     C_1   0.370238 0.492731 0.970563 -0.002787
C30   C     C_1   0.419506 0.502373 0.039110 -0.000106
C31   C     C_R   0.211378 0.464966 0.728676 -0.281590
C32   C     C_3   0.751405 0.340900 0.216297 -0.393007
C33   C     C_3   0.029246 0.635837 0.696286 0.311574
C34   C     C_3   0.547634 0.800817 0.663901 -0.385173
C35   C     C_3   0.055720 0.657773 0.783613 -0.394288
C36   C     C_3   0.282901 0.293409 0.370367 0.310223
C37   C     C_3   0.267419 0.201291 0.349784 -0.385532
C38   C     C_3   0.912850 0.236433 0.704510 0.354060
C39   C     C_3   0.898908 0.150104 0.729114 -0.362747
C40   C     C_3   0.440255 0.280616 0.747192 0.358632
C41   C     C_3   0.465840 0.253610 0.828706 -0.365039
C42   C     C_R   0.683033 0.736016 0.471976 -0.294372
H1    H     H_    0.288132 0.661803 0.254641 0.093381
H2    H     H_    0.163659 0.314573 0.385306 0.008615
H3    H     H_    0.377143 0.307198 0.420861 0.069037
H4    H     H_    0.213382 0.758714 0.156444 0.147521
H5    H     H_    0.170337 0.185706 0.300716 0.125054
H6    H     H_    0.235027 0.169557 0.400124 0.062717
H7    H     H_    0.385685 0.179358 0.332907 0.127415
H8    H     H_    0.496633 0.705747 0.267180 -0.058794
H9    H     H_    0.645158 0.685967 0.629181 0.017731
H10   H     H_    0.432287 0.696063 0.593580 0.062119
H11   H     H_    0.644000 0.815552 0.713426 0.126902
H12   H     H_    0.655608 0.290465 0.201649 0.125581
H13   H     H_    0.584271 0.830776 0.613154 0.061028
H14   H     H_    0.430393 0.825131 0.679602 0.127163
H15   H     H_    0.422056 0.802067 0.169032 0.111202
H16   H     H_    0.868832 0.892234 0.314581 0.083221
H17   H     H_    0.833467 0.238499 0.649158 0.093153
H18   H     H_    0.042272 0.250393 0.695142 -0.062423
H19   H     H_    0.770312 0.133756 0.738480 0.152249
H20   H     H_    0.936998 0.106015 0.683221 0.083114
H21   H     H_    0.979472 0.145862 0.783771 0.108701
H22   H     H_    0.308000 0.290094 0.733524 -0.065227
H23   H     H_    0.712742 0.394476 0.186127 0.065012
H24   H     H_    0.511817 0.339436 0.746367 0.092083
H25   H     H_    0.597522 0.244283 0.844723 0.149581
H26   H     H_    0.974553 0.760293 0.348502 0.093023
H27   H     H_    0.393266 0.195487 0.831685 0.110475
H28   H     H_    0.801836 0.136273 0.453103 0.111680
H29   H     H_    0.548210 0.919095 0.423487 0.092457
H30   H     H_    0.008441 0.863696 0.546809 0.112193
H31   H     H_    0.259534 0.081362 0.578935 0.092019
H32   H     H_    0.641748 0.672202 0.468506 0.078411
H33   H     H_    0.163705 0.328624 0.536281 0.075241
H34   H     H_    0.867981 0.321207 0.195480 0.125772
H35   H     H_    0.523734 0.552377 0.856773 0.077570
H36   H     H_    0.707751 0.577810 0.103759 0.079399
H37   H     H_    0.084789 0.417064 0.900139 0.077513
H38   H     H_    0.763545 0.748045 0.305372 -0.061273
H39   H     H_    0.273373 0.446362 0.157329 0.086157
H40   H     H_    0.640822 0.541124 0.340184 0.071022
H41   H     H_    0.170407 0.459890 0.667218 0.063835
H42   H     H_    0.031736 0.863654 0.257138 0.149724
H43   H     H_    0.820531 0.851363 0.214561 0.109853
H44   H     H_    0.658116 0.379791 0.323856 0.007228
H45   H     H_    0.144501 0.615727 0.675534 0.003475
H46   H     H_    0.867531 0.415207 0.316508 0.067079
H47   H     H_    0.378704 0.696824 0.130067 0.074723
H48   H     H_    0.425289 0.301252 0.870730 0.072659
H49   H     H_    0.933364 0.585434 0.683664 0.073151
H50   H     H_    0.158256 0.704803 0.798154 0.129615
H51   H     H_    0.085403 0.603076 0.814014 0.065393
H52   H     H_    0.942540 0.682098 0.804357 0.125280
N1    N     N_2   0.833035 0.989427 0.485820 -0.230486
N2    N     N_2   0.975335 0.010894 0.515892 -0.230939
O1    O     O_2   0.124170 0.696240 0.537320 -0.456282
O2    O     O_2   0.771647 0.441690 0.774037 -0.489578
O3    O     O_3   0.861898 0.291466 0.762493 -0.598679
O4    O     O_3   0.874280 0.596090 0.538840 -0.490754
O5    O     O_3   0.430090 0.459160 0.409230 -0.490028
O6    O     O_2   0.641040 0.538740 0.685130 -0.457235
O7    O     O_3   0.477767 0.672391 0.708911 -0.641887
O8    O     O_2   0.565517 0.208076 0.551135 -0.486406
O9    O     O_3   0.494058 0.220552 0.694512 -0.596869
O10   O     O_3   0.350640 0.647210 0.399890 -0.489299
O11   O     O_2   0.240126 0.791292 0.448420 -0.484892
O12   O     O_3   0.327278 0.330610 0.305809 -0.635794
O13   O     O_3   0.981692 0.705395 0.661000 -0.634909
O14   O     O_3   0.318890 0.780650 0.306440 -0.599564
O15   O     O_2   0.169260 0.461210 0.314850 -0.461988
O16   O     O_3   0.932460 0.606800 0.361650 -0.490821
O17   O     O_2   0.029468 0.555218 0.224867 -0.490322
O18   O     O_3   0.939304 0.705907 0.235640 -0.599569
O19   O     O_2   0.686120 0.303710 0.462660 -0.459516
O20   O     O_3   0.936010 0.403900 0.461090 -0.492700
O21   O     O_3   0.459650 0.352790 0.600040 -0.482704
O22   O     O_3   0.829846 0.294293 0.338964 -0.633637
O23   O     O_3   0.380200 0.540830 0.590710 -0.477635
O24   O     O_3   0.877840 0.393190 0.638290 -0.488243
P1    P     P_3+3 0.954010 0.683680 0.560080 0.988569
P2    P     P_3+3 0.343360 0.437010 0.326580 0.985370
P3    P     P_3+3 0.898530 0.606717 0.260634 0.942997
P4    P     P_3+3 0.856290 0.316310 0.439860 0.987831
P5    P     P_3+3 0.905379 0.391160 0.739530 0.945963
P6    P     P_3+3 0.371553 0.753979 0.400658 0.953222
P7    P     P_3+3 0.461527 0.566119 0.687366 0.947246
P8    P     P_3+3 0.437211 0.246230 0.600355 0.951852

loop_
_geom_bond_atom_site_label_1
_geom_bond_atom_site_label_2
_ccdc_geom_bond_type
C37   H7    S    
C32   H12   S    
C4    H38   S    
C14   H31   S    
C17   C18   A    
C28   H46   S    
Ba1   O1    S    
Ba1   O10   S    
N1    N2    D    
Ba2   O20   S    
C23   O7    S    
C5    C6    A    
C25   C31   A    
C12   O14   S    
O15   P2    D    
C15   C21   A    
C26   C27   A    
C33   C35   S    
C23   H9    S    
C34   H14   S    
C36   C37   S    
O22   P4    S    
Ba2   O4    S    
C13   C14   A    
O2    P5    D    
C1    H4    S    
C3    H30   S    
O21   P8    S    
C38   H18   S    
C35   H51   S    
C1    H47   S    
Ba1   Ba2   S    
O24   P5    S    
C42   H32   S    
C31   H41   S    
C22   C27   A    
O11   P6    D    
O12   P2    S    
C38   O3    S    
C25   P5    S    
C12   H8    S    
C10   C14   A    
C6    C7    A    
C36   O12   S    
O19   P4    D    
Ba1   O5    S    
C10   N2    S    
C21   P3    S    
C33   H49   S    
C41   H25   S    
C19   C20   A    
C40   H24   S    
Ba1   O15   S    
O9    P8    S    
O5    P2    S    
Ba2   O19   S    
C12   H1    S    
Ba2   O24   S    
C4    C16   S    
C19   C30   S    
C11   H33   S    
C17   P2    S    
C7    P6    S    
C36   H2    S    
C28   C32   S    
O13   P1    S    
C9    P4    S    
C23   H10   S    
C34   H13   S    
C3    C5    A    
O16   P3    S    
O8    P8    D    
C39   H21   S    
C2    C42   A    
C38   H17   S    
C2    P1    S    
Ba1   P1    S    
O3    P5    S    
C24   C31   A    
C29   C30   T    
Ba2   O6    S    
C16   H42   S    
O10   P6    S    
C24   P7    S    
C4    O18   S    
C36   H3    S    
C1    C12   S    
C8    C10   A    
Ba2   P4    S    
C16   H16   S    
C38   C39   S    
C37   H5    S    
O6    P7    D    
C11   C13   A    
C22   H35   S    
C40   C41   S    
C39   H19   S    
C28   H44   S    
O4    P1    S    
C33   H45   S    
C33   O13   S    
O1    P1    D    
C40   O9    S    
Ba2   O23   S    
C4    H26   S    
C7    C42   A    
C41   H27   S    
C5    N1    S    
C26   H37   S    
C16   H43   S    
O23   P7    S    
C2    C3    A    
C32   H23   S    
O7    P7    S    
Ba2   O21   S    
C41   H48   S    
O17   P3    D    
O18   P3    S    
C15   H40   S    
Ba1   P2    S    
C20   H36   S    
C27   C29   S    
C34   H11   S    
C32   H34   S    
C9    C11   A    
C22   C24   A    
C13   P8    S    
C28   O22   S    
Ba2   O5    S    
C6    H29   S    
C15   C17   A    
C35   H50   S    
Ba1   O20   S    
Ba1   O23   S    
O14   P6    S    
C8    C9    A    
C23   C34   S    
C37   H6    S    
C18   C19   A    
C35   H52   S    
Ba1   O16   S    
C18   H39   S    
C25   C26   A    
C40   H22   S    
C20   C21   A    
O20   P4    S    
C39   H20   S    
Ba1   O4    S    
C1    H15   S    
C8    H28   S    
