data_mof_unit_12984.cif
_audit_creation_date              2012-12-11T17:00:22-0500
_audit_creation_method            fapswitch 2.2
_symmetry_space_group_name_H-M    P1
_symmetry_Int_Tables_number       1
_space_group_crystal_system       triclinic
_cell_length_a                    6.959603
_cell_length_b                    13.585518
_cell_length_c                    20.246784
_cell_angle_alpha                 103.035266
_cell_angle_beta                  90.646694
_cell_angle_gamma                 90.055536
_cell_volume                      1864.8691293

loop_
_atom_site_label
_atom_site_type_symbol
_atom_type_description
_atom_site_fract_x
_atom_site_fract_y
_atom_site_fract_z
_atom_type_partial_charge
O1    O     O_R   0.506770 0.599700 0.449550 -0.535881
O2    O     O_R   0.179980 0.595740 0.587960 -0.548372
O3    O     O_R   0.004580 0.400300 0.550450 -0.541232
C1    C     C_R   0.348724 0.617806 0.615042 0.681412
O4    O     O_R   0.177380 0.611700 0.452380 -0.539861
O5    O     O_R   0.001970 0.416370 0.413900 -0.527386
C2    C     C_R   0.345280 0.639193 0.436245 0.724024
O6    O     O_R   0.509390 0.583630 0.586100 -0.540999
O7    O     O_3   0.337530 0.435890 0.487530 -0.365788
V1    V     V_3+5 0.064660 0.511890 0.502310 1.434999
O8    O     O_R   0.671950 0.404260 0.412040 -0.533753
C3    C     C_R   0.839816 0.382114 0.384968 0.708781
O9    O     O_R   0.674540 0.388300 0.547620 -0.543544
C4    C     C_R   0.843992 0.361596 0.564148 0.684026
V2    V     V_3+5 0.564030 0.488110 0.497690 1.448569
O10   O     O_3   0.841030 0.564110 0.512470 -0.377552
C5    C     C_R   0.894715 0.110645 0.610543 -0.158532
H1    H     H_    0.890449 0.160672 0.517310 0.099061
H2    H     H_    0.917887 0.985631 0.693656 0.117767
H3    H     H_    0.914486 0.032302 0.584800 0.110103
C6    C     C_R   0.854873 0.284585 0.603973 -0.027305
C7    C     C_R   0.833304 0.316236 0.930697 -0.170152
C8    C     C_R   0.818349 0.392217 0.895146 -0.119272
C9    C     C_R   0.826658 0.369220 0.824597 -0.157706
C10   C     C_R   0.850470 0.268301 0.787451 0.076346
C11   C     C_R   0.866400 0.190763 0.824356 0.070357
C12   C     C_R   0.858913 0.241718 0.715087 0.071057
C13   C     C_R   0.884148 0.138686 0.681537 0.144296
C14   C     C_R   0.899031 0.064292 0.718907 -0.207237
C15   C     C_R   0.889972 0.089713 0.789108 -0.197019
C16   C     C_R   0.843663 0.313718 0.674588 -0.213306
C17   C     C_R   0.880828 0.183315 0.572017 -0.177857
C18   C     C_R   0.857570 0.215896 0.896067 -0.073583
H4    H     H_    0.824211 0.393125 0.696032 0.090721
H5    H     H_    0.825589 0.335684 0.985541 0.098115
H6    H     H_    0.813858 0.432378 0.800918 0.105743
H7    H     H_    0.799679 0.469785 0.922493 0.115734
H8    H     H_    0.901848 0.029114 0.815615 0.108599
C19   C     C_R   0.708738 0.247762 0.203881 0.011525
C20   C     C_R   0.866765 0.185065 0.183683 -0.093910
C21   C     C_R   0.019783 0.190458 0.230416 -0.198523
H9    H     H_    0.142981 0.142048 0.217513 0.122848
C22   C     C_R   0.010372 0.254099 0.295754 -0.116073
H10   H     H_    0.127008 0.252982 0.331316 0.138219
C23   C     C_R   0.848156 0.314820 0.316223 -0.158970
C24   C     C_R   0.700164 0.312379 0.268229 0.067887
C25   C     C_3   0.491521 0.290039 0.274241 0.355174
C26   C     C_3   0.502513 0.218453 0.203706 -0.487281
H11   H     H_    0.467813 0.248514 0.314932 0.057264
H12   H     H_    0.423127 0.237535 0.160601 0.172940
H13   H     H_    0.486299 0.137739 0.205771 0.143442
C27   C     C_R   0.501246 0.679578 0.730373 0.100439
C28   C     C_R   0.352519 0.683999 0.684145 -0.105796
C29   C     C_R   0.195932 0.747890 0.707701 -0.176327
H14   H     H_    0.076608 0.753182 0.674060 0.127295
C30   C     C_R   0.196823 0.810418 0.773475 -0.173448
H15   H     H_    0.079405 0.862339 0.788333 0.124744
C31   C     C_R   0.354606 0.811249 0.817605 -0.109245
C32   C     C_R   0.502813 0.742132 0.795261 0.099932
C33   C     C_3   0.713752 0.760150 0.793219 -0.397252
C34   C     C_3   0.711831 0.691843 0.722605 -0.408705
H16   H     H_    0.794512 0.727901 0.831018 0.171070
H17   H     H_    0.747522 0.840252 0.793607 0.167189
H18   H     H_    0.791013 0.619959 0.719591 0.166174
H19   H     H_    0.744613 0.732186 0.682011 0.168168
C35   C     C_R   0.260115 0.886760 0.388291 -0.158454
H20   H     H_    0.246062 0.834839 0.480584 0.102448
H21   H     H_    0.211043 0.007498 0.303251 0.117478
H22   H     H_    0.208389 0.961335 0.412341 0.109336
C36   C     C_R   0.348392 0.718377 0.397709 -0.044512
C37   C     C_R   0.433083 0.688827 0.073181 -0.157979
C38   C     C_R   0.478420 0.618246 0.110817 -0.124651
C39   C     C_R   0.461326 0.642633 0.181012 -0.176424
C40   C     C_R   0.389479 0.737531 0.215427 0.080994
C41   C     C_R   0.345273 0.810254 0.176554 0.073712
C42   C     C_R   0.362519 0.762960 0.287139 0.065516
C43   C     C_R   0.295778 0.861133 0.318411 0.149183
C44   C     C_R   0.260587 0.932297 0.279604 -0.213493
C45   C     C_R   0.284206 0.907296 0.209813 -0.208859
C46   C     C_R   0.392203 0.693151 0.328721 -0.220156
C47   C     C_R   0.282783 0.815233 0.427359 -0.176249
C48   C     C_R   0.369430 0.785171 0.105248 -0.081564
H23   H     H_    0.439133 0.616898 0.308700 0.123862
H24   H     H_    0.456041 0.669797 0.018931 0.101474
H25   H     H_    0.510489 0.586535 0.206998 0.108290
H26   H     H_    0.533263 0.545011 0.085611 0.113909
H27   H     H_    0.252545 0.964723 0.182024 0.119046
O11   O     O_R   0.203450 0.916320 0.913910 -0.541559
O12   O     O_R   0.535520 0.888300 0.047620 -0.538759
O13   O     O_R   0.710860 0.083650 0.086100 -0.535297
C49   C     C_R   0.368342 0.862632 0.065169 0.688666
O14   O     O_R   0.532860 0.904250 0.912040 -0.542206
O15   O     O_R   0.708190 0.099710 0.949550 -0.537530
C50   C     C_R   0.363924 0.882564 0.884821 0.698763
O16   O     O_R   0.206120 0.900260 0.050460 -0.540621
O17   O     O_3   0.375280 0.064080 0.012470 -0.370711
V3    V     V_3+5 0.648180 0.988110 0.997690 1.416303
O18   O     O_R   0.038220 0.111740 0.952370 -0.540117
C51   C     C_R   0.868733 0.138366 0.935823 0.688715
O19   O     O_R   0.040880 0.095790 0.087940 -0.549364
C52   C     C_R   0.873131 0.115967 0.115634 0.703915
V4    V     V_3+5 0.148800 0.011950 0.002300 1.404231
O20   O     O_3   0.871820 0.935920 0.987530 -0.371225
O21   O     O_3   0.378149 0.379712 0.285233 -0.539434
C53   C     C_3   0.316919 0.408597 0.225753 -0.229121
H28   H     H_    0.204380 0.356455 0.198656 0.153650
H29   H     H_    0.439470 0.414498 0.192138 0.125098
H30   H     H_    0.248635 0.483920 0.240374 0.151543

loop_
_geom_bond_atom_site_label_1
_geom_bond_atom_site_label_2
_ccdc_geom_bond_type
O17   V4    S    
C1    C28   S    
C39   C40   A    
C1    O6    A    
C2    C36   S    
C45   H27   S    
C25   H11   S    
C43   C44   A    
C7    H5    S    
C6    C16   A    
C9    H6    S    
C40   C42   A    
C33   H17   S    
C4    C6    S    
C13   C14   A    
H20   C47   S    
C27   C34   S    
O5    C3    A    
C35   H22   S    
V2    O10   S    
C5    H3    S    
C30   H15   S    
C15   H8    S    
C33   H16   S    
C21   H9    S    
C35   C43   A    
C36   C47   A    
C20   C52   S    
C29   H14   S    
O8    V2    S    
C26   H13   S    
C8    C9    A    
O1    V2    S    
O12   C49   A    
O7    V1    S    
O15   C51   A    
O13   V3    S    
O16   V4    S    
C37   C48   A    
C26   H12   S    
C32   C33   S    
O9    C4    A    
C21   C22   A    
C46   H23   S    
O19   V4    S    
O21   C53   S    
C53   H30   S    
O14   V3    S    
C29   C30   A    
H21   C44   S    
C6    C17   A    
O11   C50   A    
C40   C41   A    
C12   C16   A    
C42   C43   A    
C19   C20   A    
O4    C2    A    
C44   C45   A    
C3    C23   S    
C10   C11   A    
O18   V4    S    
C36   C46   A    
C48   C49   S    
O12   V3    S    
C33   C34   S    
C18   C51   S    
C34   H18   S    
O2    C1    A    
C22   H10   S    
O13   C52   A    
C14   C15   A    
C27   C32   A    
C8    H7    S    
C53   H29   S    
C11   C18   A    
O11   V4    S    
C25   C26   S    
O17   V3    S    
O14   C50   A    
C16   H4    S    
C9    C10   A    
C22   C23   A    
C39   H25   S    
V3    O20   S    
O3    C4    A    
C19   C24   A    
C20   C21   A    
C11   C15   A    
O6    V2    S    
O9    V2    S    
H1    C17   S    
O2    V1    S    
O15   V3    S    
C27   C28   A    
C37   H24   S    
C31   C50   S    
C7    C18   A    
C24   C25   S    
C25   O21   S    
O1    C2    A    
C5    C13   A    
C42   C46   A    
C38   C39   A    
O5    V1    S    
C38   H26   S    
O8    C3    A    
C41   C48   A    
C28   C29   A    
C10   C12   A    
C53   H28   S    
C31   C32   A    
O4    V1    S    
O3    V1    S    
V1    O10   S    
C35   C47   A    
O19   C52   A    
C30   C31   A    
C34   H19   S    
O7    V2    S    
V4    O20   S    
C49   O16   A    
C23   C24   A    
C37   C38   A    
O18   C51   A    
C12   C13   A    
C5    C17   A    
C7    C8    A    
C41   C45   A    
C19   C26   S    
H2    C14   S    
