data_mof_unit_46633.cif
_audit_creation_date              2012-10-26T19:02:34-0400
_audit_creation_method            fapswitch 2.2
_symmetry_space_group_name_H-M    P1
_symmetry_Int_Tables_number       1
_space_group_crystal_system       triclinic
_cell_length_a                    17.38579
_cell_length_b                    8.756393
_cell_length_c                    7.424439
_cell_angle_alpha                 102.46321
_cell_angle_beta                  91.224276
_cell_angle_gamma                 93.278088
_cell_volume                      1101.17311952

loop_
_atom_site_label
_atom_site_type_symbol
_atom_type_description
_atom_site_fract_x
_atom_site_fract_y
_atom_site_fract_z
_atom_type_partial_charge
C1    C     C_R   0.495934 0.200490 0.455221 0.530964
C2    C     C_R   0.780002 0.525448 0.628907 0.246394
C3    C     C_R   0.141152 0.491658 0.384510 -0.116844
C4    C     C_R   0.858860 0.508715 0.615525 -0.116818
C5    C     C_R   0.107539 0.531592 0.556369 0.001403
C6    C     C_R   0.892480 0.468735 0.443683 0.001402
C7    C     C_R   0.154059 0.558576 0.720471 0.249477
C8    C     C_R   0.845960 0.441617 0.279579 0.249468
C9    C     C_R   0.233477 0.546922 0.707022 -0.105729
C10   C     C_R   0.766534 0.453159 0.293009 -0.105746
C11   C     C_2   0.024403 0.549879 0.559113 -0.143126
C12   C     C_R   0.504066 0.799510 0.544779 0.530965
C13   C     C_2   0.975617 0.450466 0.440952 -0.143100
C14   C     C_1   0.432831 0.953424 0.284469 0.239598
C15   C     C_1   0.567174 0.046575 0.715525 0.239602
C16   C     C_2   0.484610 0.034873 0.436100 -0.070130
C17   C     C_2   0.515391 0.965127 0.563898 -0.070129
C18   C     C_R   0.351050 0.501158 0.523923 0.565529
C19   C     C_R   0.648950 0.498864 0.476079 0.565543
C20   C     C_R   0.267005 0.505769 0.534418 -0.000891
C21   C     C_R   0.732998 0.494346 0.465596 -0.000886
C22   C     C_R   0.220000 0.474819 0.371105 0.246403
Cu1   Cu    Cu3+1 0.508700 0.517250 0.683000 1.045572
Cu2   Cu    Cu3+1 0.491300 0.482750 0.317000 1.045565
H1    H     H_    0.730982 0.429746 0.167217 0.186621
H2    H     H_    0.789499 0.589750 0.898245 0.341106
H3    H     H_    0.068588 0.573767 0.888641 0.321453
H4    H     H_    0.931441 0.426658 0.111421 0.321366
H5    H     H_    0.269029 0.570224 0.832814 0.186625
H6    H     H_    0.996872 0.352923 0.342319 0.139000
H7    H     H_    0.003151 0.647428 0.657741 0.138921
H8    H     H_    0.894081 0.524790 0.741178 0.128456
H9    H     H_    0.105930 0.475682 0.258864 0.128534
H10   H     H_    0.439508 0.378716 0.957158 0.250378
H11   H     H_    0.560491 0.621284 0.042842 0.250383
H12   H     H_    0.210492 0.410662 0.101751 0.341180
N1    N     N_2   0.478180 0.456750 0.041980 -0.239464
N2    N     N_2   0.521820 0.543250 0.958020 -0.239462
N3    N     N_1   0.391665 0.889114 0.163846 -0.242832
N4    N     N_1   0.608343 0.110885 0.836146 -0.242846
O1    O     O_R   0.505650 0.286040 0.618880 -0.512705
O2    O     O_3   0.748285 0.571037 0.800139 -0.660232
O3    O     O_3   0.125137 0.595087 0.895438 -0.705409
O4    O     O_3   0.874891 0.405061 0.104629 -0.705222
O5    O     O_R   0.494350 0.713960 0.381120 -0.512702
O6    O     O_R   0.490960 0.256910 0.309800 -0.491477
O7    O     O_R   0.509040 0.743090 0.690200 -0.491468
O8    O     O_R   0.394600 0.516230 0.672450 -0.531678
O9    O     O_R   0.605400 0.483770 0.327550 -0.531680
O10   O     O_R   0.379910 0.487100 0.363380 -0.425552
O11   O     O_R   0.620090 0.512900 0.636620 -0.425547
O12   O     O_3   0.251706 0.429270 0.199850 -0.660233

loop_
_geom_bond_atom_site_label_1
_geom_bond_atom_site_label_2
_ccdc_geom_bond_type
C12   C17   S    
C2    C4    A    
Cu1   Cu2   S    
C15   C17   S    
N1    N2    D    
C7    O3    S    
H10   N1    S    
H12   O12   S    
C19   O9    A    
C9    C20   A    
Cu1   O11   S    
Cu1   O1    S    
C9    H5    S    
Cu2   O6    S    
C2    C21   A    
Cu2   N1    S    
C11   H7    S    
C1    C16   S    
C6    C13   S    
C11   C13   D    
H2    O2    S    
C4    H8    S    
C2    O2    S    
C12   O7    A    
Cu2   O5    S    
C10   H1    S    
C22   O12   S    
C19   C21   S    
C20   C22   A    
C5    C11   S    
C19   O11   A    
C7    C9    A    
C10   C21   A    
Cu2   O10   S    
C15   N4    T    
C14   C16   S    
C1    O6    A    
Cu1   O7    S    
C3    H9    S    
Cu1   N2    S    
H3    O3    S    
C13   H6    S    
H11   N2    S    
C18   O10   A    
C18   C20   S    
C4    C6    A    
C1    O1    A    
Cu2   O9    S    
C5    C7    A    
C16   C17   D    
C3    C22   A    
C6    C8    A    
Cu1   O8    S    
C14   N3    T    
H4    O4    S    
C8    C10   A    
C8    O4    S    
C12   O5    A    
C3    C5    A    
C18   O8    A    
