data_mof_unit_25856.cif
_audit_creation_date              2012-12-10T20:38:14-0500
_audit_creation_method            fapswitch 2.2
_symmetry_space_group_name_H-M    P1
_symmetry_Int_Tables_number       1
_space_group_crystal_system       triclinic
_cell_length_a                    9.856209
_cell_length_b                    10.6921
_cell_length_c                    16.644347
_cell_angle_alpha                 90.196987
_cell_angle_beta                  84.992094
_cell_angle_gamma                 89.623574
_cell_volume                      1747.29310042

loop_
_atom_site_label
_atom_site_type_symbol
_atom_type_description
_atom_site_fract_x
_atom_site_fract_y
_atom_site_fract_z
_atom_type_partial_charge
C1    C     C_R   0.499996 0.739980 0.496819 0.879579
C2    C     C_R   0.350911 0.413456 0.775213 -0.207106
C3    C     C_R   0.442627 0.327080 0.158951 -0.237991
C4    C     C_R   0.427604 0.379000 0.235458 -0.204189
C5    C     C_R   0.653342 0.468646 0.214405 -0.307068
C6    C     C_R   0.666874 0.421132 0.135647 0.563430
C7    C     C_R   0.559726 0.351420 0.107580 0.091045
C8    C     C_2   0.450089 0.352867 0.983251 -0.266743
C9    C     C_2   0.560900 0.325332 0.021155 -0.197104
C10   C     C_R   0.531712 0.451849 0.263104 -0.099317
C11   C     C_R   0.379373 0.937169 0.480232 0.038934
C12   C     C_R   0.480726 0.497423 0.653570 0.854479
C13   C     C_R   0.501209 0.871119 0.483386 -0.110994
C14   C     C_R   0.625876 0.934307 0.472573 -0.214180
C15   C     C_R   0.626345 0.063556 0.474684 -0.208191
C16   C     C_R   0.502336 0.128307 0.488442 -0.098182
C17   C     C_R   0.380185 0.064561 0.485795 0.034139
C18   C     C_3   0.248234 0.069827 0.538539 -0.101323
C19   C     C_3   0.245096 0.927729 0.530051 -0.092183
C20   C     C_R   0.921313 0.582648 0.547233 0.195692
C21   C     C_R   0.936132 0.426158 0.447889 0.143494
C22   C     C_R   0.080588 0.426424 0.448057 -0.195288
C23   C     C_R   0.500546 0.259900 0.498944 0.877488
C24   C     C_R   0.063813 0.582601 0.547179 0.198776
C25   C     C_3   0.057264 0.592443 0.636638 -0.490886
C26   C     C_3   0.903358 0.591034 0.636961 -0.510900
C27   C     C_R   0.519151 0.493367 0.346695 0.889501
C28   C     C_R   0.468035 0.472354 0.739707 -0.033524
C29   C     C_R   0.578695 0.493655 0.784944 -0.214998
C30   C     C_R   0.574806 0.452282 0.863862 -0.153586
C31   C     C_R   0.459869 0.388750 0.898428 0.200305
C32   C     C_R   0.346669 0.372604 0.854529 -0.165894
H1    H     H_    0.668448 0.541485 0.759213 0.145097
H2    H     H_    0.722553 0.884849 0.468264 0.174034
H3    H     H_    0.723153 0.111398 0.470942 0.171005
H4    H     H_    0.165420 0.120910 0.510809 0.169640
H5    H     H_    0.249911 0.874674 0.587178 0.173806
H6    H     H_    0.142096 0.365211 0.407531 0.143427
H7    H     H_    0.098947 0.508258 0.665016 0.210200
H8    H     H_    0.335425 0.359713 0.273621 0.160617
H9    H     H_    0.097401 0.683146 0.656784 0.201088
H10   H     H_    0.857555 0.505081 0.664766 0.214056
H11   H     H_    0.854066 0.680364 0.658256 0.202676
H12   H     H_    0.736802 0.519722 0.236937 0.164026
H13   H     H_    0.658592 0.311269 0.986693 0.190080
H14   H     H_    0.255961 0.326936 0.881320 0.135172
H15   H     H_    0.360597 0.271238 0.138944 0.157845
H16   H     H_    0.264640 0.395014 0.741025 0.144503
H17   H     H_    0.351762 0.367518 0.016895 0.164457
H18   H     H_    0.660689 0.472506 0.897959 0.137597
N1    N     N_R   0.857140 0.500860 0.500530 -0.106915
N2    N     N_R   0.142780 0.500820 0.500530 -0.114356
O1    O     O_R   0.385310 0.683210 0.499990 -0.622548
O2    O     O_R   0.614650 0.683240 0.500000 -0.619651
O3    O     O_R   0.371780 0.500000 0.615800 -0.623097
O4    O     O_R   0.601120 0.500040 0.615800 -0.613454
O5    O     O_R   0.385350 0.316760 0.500000 -0.630552
O6    O     O_R   0.614690 0.316790 0.500010 -0.600062
O7    O     O_R   0.398880 0.499960 0.384200 -0.621410
O8    O     O_R   0.628220 0.500000 0.384200 -0.597320
Zn1   Zn    Zn3+2 0.346870 0.499980 0.499990 0.927102
Zn2   Zn    Zn3+2 0.653130 0.500020 0.500010 0.960618
O9    O     O_3   0.785097 0.440740 0.086214 -0.624844
C33   C     C_3   0.788190 0.566528 0.060881 -0.362094
H19   H     H_    0.694016 0.593037 0.032362 0.163155
H20   H     H_    0.875415 0.578296 0.014786 0.198709
H21   H     H_    0.804002 0.630830 0.111819 0.171204
N3    N     N_3   0.263284 0.108763 0.621877 -0.456336
H22   H     H_    0.267964 0.206294 0.623747 0.206693
H23   H     H_    0.354564 0.073935 0.641016 0.189925
N4    N     N_3   0.135453 0.885698 0.482535 -0.460860
H24   H     H_    0.136674 0.936540 0.428827 0.182050
H25   H     H_    0.155246 0.792728 0.465792 0.209999
N5    N     N_3   0.872472 0.345732 0.393920 -0.393803
H26   H     H_    0.908816 0.369260 0.335062 0.170056
H27   H     H_    0.903729 0.254029 0.404310 0.151254

loop_
_geom_bond_atom_site_label_1
_geom_bond_atom_site_label_2
_ccdc_geom_bond_type
C10   C27   S    
O6    Zn2   S    
C23   O6    A    
C9    H13   S    
C19   N4    S    
C11   C19   S    
N5    H27   S    
C12   C28   S    
O8    Zn2   S    
C28   C29   A    
C20   N1    A    
C3    C7    A    
C24   N2    A    
C5    C6    A    
C18   N3    S    
C15   C16   A    
C22   H6    S    
C29   H1    S    
C2    C32   A    
C18   C19   S    
C1    O1    A    
C19   H5    S    
N3    H22   S    
O1    Zn1   S    
C4    H8    S    
C8    C9    D    
C30   H18   S    
C21   C22   A    
N1    Zn2   S    
C15   H3    S    
C26   H11   S    
O7    Zn1   S    
N5    H26   S    
C33   H21   S    
C20   C24   A    
C24   C25   S    
C25   H9    S    
N4    H25   S    
C16   C17   A    
O2    Zn2   S    
C2    H16   S    
C25   C26   S    
C21   N5    S    
C33   H20   S    
C6    O9    S    
C1    O2    A    
C29   C30   A    
C31   C32   A    
C17   C18   S    
C12   O4    A    
C5    H12   S    
C16   C23   S    
O4    Zn2   S    
C1    C13   S    
C4    C10   A    
C3    C4    A    
C21   N1    A    
C26   H10   S    
C22   N2    A    
C23   O5    A    
C11   C17   A    
C8    C31   S    
C32   H14   S    
N2    Zn1   S    
C14   H2    S    
O5    Zn1   S    
C6    C7    A    
C27   O8    A    
C33   H19   S    
N4    H24   S    
C27   O7    A    
C25   H7    S    
C11   C13   A    
C30   C31   A    
C20   C26   S    
O3    Zn1   S    
C3    H15   S    
C12   O3    A    
O9    C33   S    
C7    C9    S    
C5    C10   A    
N3    H23   S    
C14   C15   A    
C2    C28   A    
C13   C14   A    
C18   H4    S    
C8    H17   S    
