data_mof_unit_30893.cif
_audit_creation_date              2013-03-05T16:48:44-0500
_audit_creation_method            fapswitch 2.2
_symmetry_space_group_name_H-M    P1
_symmetry_Int_Tables_number       1
_space_group_crystal_system       triclinic
_cell_length_a                    27.5509
_cell_length_b                    9.029453
_cell_length_c                    8.109044
_cell_angle_alpha                 90.253542
_cell_angle_beta                  89.625143
_cell_angle_gamma                 90.487962
_cell_volume                      2017.14769267

loop_
_atom_site_label
_atom_site_type_symbol
_atom_site_description
_atom_site_fract_x
_atom_site_fract_y
_atom_site_fract_z
_atom_type_partial_charge
O1    O     O_R   0.500000 0.285350 0.636850 -0.619589
O2    O     O_R   0.500000 0.714650 0.363150 -0.617872
O3    O     O_R   0.500000 0.714650 0.636850 -0.607119
O4    O     O_R   0.500000 0.285350 0.363150 -0.616217
C1    C     C_R   0.500093 0.217835 0.499777 0.934280
C2    C     C_R   0.500294 0.782174 0.500215 0.929814
O5    O     O_R   0.428760 0.500000 0.636860 -0.593334
O6    O     O_R   0.571240 0.500000 0.363140 -0.627053
O7    O     O_R   0.571240 0.500000 0.636860 -0.604237
O8    O     O_R   0.428760 0.500000 0.363140 -0.634912
C3    C     C_R   0.405668 0.502060 0.500905 0.941582
C4    C     C_R   0.594253 0.496167 0.499966 0.932861
Zn1   Zn    Zn3+2 0.500000 0.500000 0.682780 0.986879
Zn2   Zn    Zn3+2 0.500000 0.500000 0.317220 0.972319
C5    C     C_R   0.178859 0.375663 0.638542 0.572159
C6    C     C_R   0.819779 0.593542 0.631971 0.569793
C7    C     C_R   0.173841 0.636610 0.602048 0.582951
C8    C     C_R   0.824337 0.331812 0.597140 0.590345
O9    O     O_2   0.205826 0.253730 0.663220 -0.557851
O10   O     O_2   0.792847 0.716648 0.651550 -0.552950
O11   O     O_2   0.193987 0.766309 0.554088 -0.549808
O12   O     O_2   0.803726 0.201741 0.552395 -0.544735
N1    N     N_R   0.200745 0.509353 0.604167 -0.330016
N2    N     N_R   0.797976 0.460069 0.596162 -0.319996
C9    C     C_R   0.282737 0.613426 0.657311 0.169698
C10   C     C_R   0.714963 0.363463 0.644729 0.181521
C11   C     C_R   0.272046 0.420750 0.446251 0.205271
C12   C     C_R   0.729117 0.550280 0.430223 0.217956
C13   C     C_R   0.332856 0.615484 0.624366 0.084846
C14   C     C_R   0.665121 0.367248 0.611967 0.074524
C15   C     C_R   0.322342 0.419845 0.416922 0.056758
C16   C     C_R   0.678649 0.565717 0.411259 0.060373
C17   C     C_R   0.252180 0.515119 0.568765 0.143596
C18   C     C_R   0.747100 0.456049 0.555061 0.129227
C19   C     C_R   0.101014 0.494634 0.655586 -0.075105
C20   C     C_R   0.897229 0.472699 0.652219 -0.072459
C21   C     C_R   0.128221 0.364723 0.646061 -0.048151
C22   C     C_R   0.870299 0.603379 0.643866 -0.103195
C23   C     C_R   0.124814 0.632135 0.646861 -0.050035
C24   C     C_R   0.873233 0.335561 0.641805 -0.079098
C25   C     C_R   0.104432 0.228452 0.631834 -0.306643
C26   C     C_R   0.894404 0.739448 0.632608 -0.186994
C27   C     C_R   0.099481 0.760361 0.687425 -0.301587
C28   C     C_R   0.898239 0.206822 0.680462 -0.261191
C29   C     C_R   0.352748 0.515660 0.508257 -0.197368
C30   C     C_R   0.646821 0.475374 0.504463 -0.208794
H1    H     H_    0.125333 0.129122 0.609855 0.189114
H2    H     H_    0.874212 0.839571 0.609409 0.206557
H3    H     H_    0.118761 0.864649 0.701581 0.179649
H4    H     H_    0.878714 0.102858 0.693268 0.184378
C31   C     C_R   0.974440 0.345160 0.680948 0.022795
C32   C     C_R   0.023595 0.620971 0.683306 0.012433
C33   C     C_R   0.972551 0.617112 0.661333 -0.041267
C34   C     C_R   0.025781 0.349017 0.663161 0.040408
C35   C     C_R   0.948222 0.478596 0.666495 -0.064990
C36   C     C_R   0.049984 0.487814 0.669236 -0.065406
C37   C     C_R   0.947948 0.213914 0.715862 0.554948
C38   C     C_R   0.049583 0.752317 0.721396 0.436291
C39   C     C_R   0.944852 0.745121 0.623896 0.477669
C40   C     C_R   0.053553 0.221488 0.624869 0.488608
C41   C     C_1   0.500231 0.064999 0.499679 -0.198528
C42   C     C_1   0.500324 0.935038 0.500284 -0.204242
N3    N     N_1   0.500000 0.500000 0.073640 -0.044141
N4    N     N_1   0.500000 0.500000 0.926360 -0.044716
N5    N     N_2   0.341591 0.319941 0.297213 -0.302494
H5    H     H_    0.365099 0.367470 0.213114 0.255088
C43   C     C_3   0.358800 0.181409 0.362984 -0.764896
H6    H     H_    0.390981 0.200315 0.442242 0.228105
H7    H     H_    0.369214 0.106580 0.259924 0.243079
H8    H     H_    0.329791 0.126264 0.436413 0.245895
N6    N     N_2   0.660498 0.679145 0.307070 -0.303156
H9    H     H_    0.629915 0.731881 0.350674 0.229299
C44   C     C_3   0.657202 0.638910 0.134808 -0.746294
H10   H     H_    0.629930 0.549283 0.118473 0.249146
H11   H     H_    0.692885 0.601566 0.086971 0.248779
H12   H     H_    0.645861 0.736556 0.062281 0.238069
N7    N     N_2   0.364156 0.714359 0.712270 -0.279676
H13   H     H_    0.355547 0.730282 0.834932 0.233111
C45   C     C_3   0.375582 0.850259 0.626207 -0.768913
H14   H     H_    0.342433 0.917980 0.613006 0.233552
H15   H     H_    0.390960 0.826070 0.502086 0.237833
H16   H     H_    0.402861 0.914837 0.697308 0.244121
N8    N     N_2   0.632944 0.260652 0.684135 -0.299818
H17   H     H_    0.641267 0.151923 0.657845 0.216780
C46   C     C_3   0.618838 0.286042 0.854193 -0.681531
H18   H     H_    0.641070 0.217828 0.937963 0.209134
H19   H     H_    0.580183 0.253679 0.870880 0.249448
H20   H     H_    0.622945 0.404497 0.888337 0.244986
N9    N     N_2   0.241069 0.321453 0.358082 -0.258392
H21   H     H_    0.254321 0.215826 0.343268 0.273054
C47   C     C_3   0.221244 0.379538 0.207946 -0.774164
H22   H     H_    0.191400 0.305882 0.164953 0.255251
H23   H     H_    0.249990 0.382096 0.111622 0.250399
H24   H     H_    0.206277 0.492080 0.228771 0.249396
N10   N     N_2   0.761845 0.640160 0.335395 -0.259045
H25   H     H_    0.748939 0.737280 0.286575 0.272463
C48   C     C_3   0.798091 0.565743 0.235529 -0.773536
H26   H     H_    0.834813 0.600176 0.276921 0.254990
H27   H     H_    0.794271 0.598552 0.104629 0.236829
H28   H     H_    0.794842 0.443199 0.244162 0.246411
N11   N     N_2   0.262722 0.712581 0.776771 -0.256291
H29   H     H_    0.279259 0.815054 0.785345 0.252809
C49   C     C_3   0.251542 0.647919 0.934915 -0.796325
H30   H     H_    0.235225 0.732940 0.017095 0.256548
H31   H     H_    0.285146 0.606057 0.992956 0.231661
H32   H     H_    0.224732 0.556713 0.919855 0.252630
N12   N     N_2   0.732814 0.270945 0.772566 -0.251539
H33   H     H_    0.716062 0.169656 0.789300 0.248827
C50   C     C_3   0.747535 0.344734 0.923165 -0.772293
H34   H     H_    0.783507 0.302602 0.960736 0.252655
H35   H     H_    0.720840 0.321655 0.023158 0.235123
H36   H     H_    0.750411 0.466502 0.906537 0.240183
O13   O     O_3   0.969843 0.101021 0.800415 -0.673248
H37   H     H_    0.944963 0.026048 0.831822 0.361628
O14   O     O_3   0.026525 0.865999 0.802947 -0.683545
H38   H     H_    0.050983 0.941349 0.836597 0.360079
O15   O     O_3   0.964915 0.870033 0.554165 -0.680042
H39   H     H_    0.992899 0.838388 0.485549 0.345097
O16   O     O_3   0.031050 0.097888 0.559559 -0.684107
H40   H     H_    0.055970 0.026965 0.520726 0.326843

loop_
_geom_bond_atom_site_label_1
_geom_bond_atom_site_label_2
_geom_bond_distance
_ccdc_geom_bond_type
O5    Zn1   2.000129 S    
N11   H29   1.030149 S    
N12   C50   1.447221 S    
C44   H10   1.107722 S    
N10   H25   1.030734 S    
O3    C2    1.266968 A    
C48   H26   1.109531 S    
C33   C39   1.425369 A    
C34   C40   1.420057 A    
C46   H18   1.109758 S    
C11   C17   1.416319 A    
C5    O9    1.349837 S    
C7    N1    1.372923 A    
C12   N10   1.430727 S    
O1    C1    1.265365 A    
C19   C21   1.399014 A    
C22   C26   1.394702 A    
C50   H35   1.110353 S    
O14   H38   0.992165 S    
C40   O16   1.377560 S    
C7    C23   1.396743 A    
C14   N8    1.427754 S    
O7    Zn1   1.995339 S    
C5    C21   1.398724 A    
C8    C24   1.397366 A    
C27   C38   1.401639 A    
C10   C18   1.412757 A    
N1    C17   1.444568 S    
N12   H33   1.030037 S    
C31   C37   1.415209 A    
N9    C47   1.440439 S    
C31   C34   1.421045 A    
O3    Zn1   1.975251 S    
C6    O10   1.349934 S    
N7    C45   1.445702 S    
C12   C18   1.419708 A    
C6    N2    1.372766 A    
O4    Zn2   1.975251 S    
C44   H11   1.109116 S    
O2    C2    1.265383 A    
C48   H27   1.109204 S    
O5    C3    1.276759 A    
C16   N6    1.426455 S    
C33   C35   1.414612 A    
C9    C13   1.404720 A    
C34   C36   1.415402 A    
C46   H19   1.109527 S    
C11   C15   1.404513 A    
C43   H6    1.110045 S    
C20   C24   1.401207 A    
C4    C30   1.462708 S    
O8    Zn2   1.995342 S    
C50   H36   1.110429 S    
C47   H22   1.110093 S    
C45   H15   1.110985 S    
C27   H3    1.083235 S    
C23   C27   1.394011 A    
N5    C43   1.446798 S    
N7    H13   1.030793 S    
C7    O11   1.349428 S    
C45   H14   1.109433 S    
C13   C29   1.411884 A    
C43   H7    1.110152 S    
C26   C39   1.391737 A    
C19   C23   1.400984 A    
C47   H23   1.108889 S    
N8    H17   1.031134 S    
C12   C16   1.408076 A    
C28   C37   1.401991 A    
O6    C4    1.282247 A    
C25   H1    1.083430 S    
C1    C41   1.380059 S    
C49   H31   1.111204 S    
C26   H2    1.083339 S    
C32   C38   1.414133 A    
N8    C46   1.448084 S    
C10   C14   1.401078 A    
C38   O14   1.376276 S    
C44   H12   1.110214 S    
C8    N2    1.372292 A    
C3    C29   1.464992 S    
O1    Zn1   1.972014 S    
C48   H28   1.111841 S    
C32   C33   1.418841 A    
N6    C44   1.445034 S    
O13   H37   0.992149 S    
N11   C49   1.441770 S    
C46   H20   1.108693 S    
C28   H4    1.083022 S    
C15   N5    1.425128 S    
O6    Zn2   2.000126 S    
C19   C36   1.410389 A    
C8    O12   1.349454 S    
C16   C30   1.410753 A    
C14   C30   1.410329 A    
C25   C40   1.404145 A    
O4    C1    1.266947 A    
C10   N12   1.426784 S    
C45   H16   1.110180 S    
C37   O13   1.376646 S    
O16   H40   0.991718 S    
N10   C48   1.449337 S    
C43   H8    1.109432 S    
C2    C42   1.380267 S    
C20   C22   1.401306 A    
N6    H9    1.031117 S    
C20   C35   1.410970 A    
C50   H34   1.109568 S    
C47   H24   1.111717 S    
C9    N11   1.427514 S    
Zn1   N4    1.975201 S    
Zn2   N3    1.975201 S    
C5    N1    1.373636 A    
C11   N9    1.425721 S    
C49   H32   1.108446 S    
C31   C35   1.415747 A    
C21   C25   1.393861 A    
C41   C42   1.173536 T    
O2    Zn2   1.972013 S    
O7    C4    1.275265 A    
N2    C18   1.442992 S    
O8    C3    1.282124 A    
N3    N4    1.194299 T    
C24   C28   1.394223 A    
C13   N7    1.427626 S    
C39   O15   1.374161 S    
N5    H5    1.029947 S    
C15   C29   1.410284 A    
C9    C17   1.414845 A    
C49   H30   1.110382 S    
N9    H21   1.030395 S    
O15   H39   0.991153 S    
C32   C36   1.414142 A    
C6    C22   1.397904 A    
