data_mof_unit_11781.cif
_audit_creation_date              2012-12-11T15:50:39-0500
_audit_creation_method            fapswitch 2.2
_symmetry_space_group_name_H-M    P1
_symmetry_Int_Tables_number       1
_space_group_crystal_system       triclinic
_cell_length_a                    6.927389
_cell_length_b                    14.536135
_cell_length_c                    16.125381
_cell_angle_alpha                 89.999977
_cell_angle_beta                  89.99997
_cell_angle_gamma                 90.347444
_cell_volume                      1623.75508036

loop_
_atom_site_label
_atom_site_type_symbol
_atom_type_description
_atom_site_fract_x
_atom_site_fract_y
_atom_site_fract_z
_atom_type_partial_charge
O1    O     O_R   0.638140 0.833910 0.163320 -0.533161
O2    O     O_R   0.361860 0.166090 0.836680 -0.533161
O3    O     O_R   0.361860 0.166090 0.663320 -0.533163
O4    O     O_R   0.638140 0.833910 0.336680 -0.533162
O5    O     O_R   0.138140 0.666090 0.336680 -0.542782
O6    O     O_R   0.861860 0.333910 0.663320 -0.542782
O7    O     O_R   0.861860 0.333910 0.836680 -0.542782
O8    O     O_R   0.138140 0.666090 0.163320 -0.542782
O9    O     O_R   0.308390 0.844930 0.336080 -0.536353
O10   O     O_R   0.691610 0.155070 0.663920 -0.536352
O11   O     O_R   0.691610 0.155070 0.836080 -0.536356
O12   O     O_R   0.308390 0.844930 0.163920 -0.536356
O13   O     O_R   0.808390 0.655070 0.163920 -0.544173
O14   O     O_R   0.191610 0.344930 0.836080 -0.544173
O15   O     O_R   0.191610 0.344930 0.663920 -0.544173
O16   O     O_R   0.808390 0.655070 0.336080 -0.544173
C1    C     C_R   0.477809 0.869079 0.363376 0.711697
C2    C     C_R   0.522191 0.130921 0.636624 0.711699
C3    C     C_R   0.522191 0.130921 0.863376 0.711688
C4    C     C_R   0.477809 0.869079 0.136624 0.711688
C5    C     C_R   0.976102 0.633075 0.134731 0.729440
C6    C     C_R   0.023898 0.366925 0.865269 0.729439
C7    C     C_R   0.023898 0.366925 0.634731 0.729442
C8    C     C_R   0.976102 0.633075 0.365269 0.729441
O17   O     O_3   0.471620 0.691320 0.250000 -0.382269
O18   O     O_3   0.528380 0.308680 0.750000 -0.382270
O19   O     O_3   0.971620 0.808680 0.250000 -0.360330
O20   O     O_3   0.028380 0.191320 0.750000 -0.360330
V1    V     V_3+5 0.196770 0.760880 0.250000 1.472911
V2    V     V_3+5 0.803230 0.239120 0.750000 1.472912
V3    V     V_3+5 0.696770 0.739120 0.250000 1.462289
V4    V     V_3+5 0.303230 0.260880 0.750000 1.462289
C9    C     C_R   0.828110 0.549604 0.489626 0.368429
C10   C     C_R   0.171890 0.450396 0.510374 0.368429
C11   C     C_R   0.171889 0.450396 0.989626 0.368430
C12   C     C_R   0.828111 0.549604 0.010374 0.368429
C13   C     C_R   0.350436 0.009498 0.058713 0.373925
C14   C     C_R   0.649564 0.990502 0.941287 0.373926
C15   C     C_R   0.649587 0.990514 0.558703 0.373922
C16   C     C_R   0.350413 0.009487 0.441296 0.373924
C17   C     C_R   0.847421 0.487386 0.555328 -0.188415
C18   C     C_R   0.152579 0.512614 0.444671 -0.188415
C19   C     C_R   0.152579 0.512613 0.055329 -0.188415
C20   C     C_R   0.847421 0.487387 0.944671 -0.188415
C21   C     C_R   0.360997 0.067987 0.989709 -0.139408
C22   C     C_R   0.639003 0.932013 0.010290 -0.139408
C23   C     C_R   0.639025 0.932025 0.489699 -0.139401
C24   C     C_R   0.360975 0.067975 0.510300 -0.139401
H1    H     H_    0.727780 0.479044 0.597963 0.149161
H2    H     H_    0.272220 0.520956 0.402037 0.149161
H3    H     H_    0.272220 0.520956 0.097963 0.149161
H4    H     H_    0.727780 0.479044 0.902036 0.149160
H5    H     H_    0.254671 0.122008 0.983878 0.167808
H6    H     H_    0.745329 0.877992 0.016121 0.167808
H7    H     H_    0.745370 0.878015 0.483861 0.167815
H8    H     H_    0.254631 0.121986 0.516138 0.167815
C25   C     C_R   0.016533 0.436107 0.566482 -0.200913
C26   C     C_R   0.983467 0.563893 0.433518 -0.200913
C27   C     C_R   0.983467 0.563893 0.066482 -0.200912
C28   C     C_R   0.016533 0.436107 0.933518 -0.200912
C29   C     C_R   0.510717 0.061228 0.931192 -0.226411
C30   C     C_R   0.489283 0.938772 0.068808 -0.226411
C31   C     C_R   0.489283 0.938773 0.431192 -0.226421
C32   C     C_R   0.510717 0.061228 0.568808 -0.226420
O21   O     O_3   0.658515 0.597768 0.484296 -0.638101
H9    H     H_    0.599959 0.581148 0.430301 0.297403
O22   O     O_3   0.341485 0.402232 0.515704 -0.638101
H10   H     H_    0.400041 0.418852 0.569698 0.297403
O23   O     O_3   0.341483 0.402231 0.984297 -0.638101
H11   H     H_    0.400041 0.418850 0.930302 0.297403
O24   O     O_3   0.658517 0.597769 0.015703 -0.638102
H12   H     H_    0.599959 0.581150 0.069697 0.297403
O25   O     O_3   0.205950 0.026152 0.115519 -0.628135
H13   H     H_    0.251017 0.006729 0.170994 0.283688
O26   O     O_3   0.794050 0.973848 0.884481 -0.628135
H14   H     H_    0.748983 0.993271 0.829006 0.283687
O27   O     O_3   0.794099 0.973873 0.615499 -0.628132
H15   H     H_    0.749028 0.993273 0.670979 0.283695
O28   O     O_3   0.205903 0.026129 0.384499 -0.628130
H16   H     H_    0.250974 0.006725 0.329020 0.283694

loop_
_geom_bond_atom_site_label_1
_geom_bond_atom_site_label_2
_ccdc_geom_bond_type
O17   V3    S    
O18   V4    S    
C9    C26   A    
O12   V1    S    
O19   V1    S    
O25   H13   S    
C10   C18   A    
C12   C27   A    
C2    C32   S    
C18   C26   A    
C13   C30   A    
C9    O21   S    
O15   V4    S    
O27   H15   S    
O16   V3    S    
C15   C32   A    
O11   C3    A    
C16   C31   A    
C22   C30   A    
O8    V1    S    
C15   O27   S    
O2    V4    S    
O10   C2    A    
C5    C27   S    
C6    C28   S    
C3    C29   S    
C24   C32   A    
O1    V3    S    
O3    C2    A    
C7    C25   S    
C16   C24   A    
O11   V2    S    
C10   C25   A    
C11   C19   A    
C12   O24   S    
O9    V1    S    
C14   C29   A    
C20   H4    S    
O15   C7    A    
C23   H7    S    
C21   H5    S    
O16   C8    A    
O7    V2    S    
O12   C4    A    
O3    V4    S    
C17   H1    S    
O5    V1    S    
C14   O26   S    
O17   V1    S    
O19   V3    S    
O22   H10   S    
O20   V4    S    
C11   C28   A    
O26   H14   S    
O10   V2    S    
C22   H6    S    
O8    C5    A    
C16   O28   S    
O13   C5    A    
C18   H2    S    
O4    C1    A    
O9    C1    A    
O6    V2    S    
O18   V2    S    
C12   C20   A    
C13   C21   A    
C15   C23   A    
C24   H8    S    
C13   O25   S    
O1    C4    A    
O2    C3    A    
O13   V3    S    
O14   V4    S    
C10   O22   S    
C19   C27   A    
O7    C6    A    
C9    C17   A    
O14   C6    A    
O20   V2    S    
C17   C25   A    
O24   H12   S    
C1    C31   S    
C23   C31   A    
C19   H3    S    
O5    C8    A    
C20   C28   A    
O6    C7    A    
C21   C29   A    
C4    C30   S    
O23   H11   S    
C14   C22   A    
O4    V3    S    
O28   H16   S    
C11   O23   S    
C8    C26   S    
O21   H9    S    
