data_mof_unit_11081.cif
_audit_creation_date              2012-12-11T18:11:32-0500
_audit_creation_method            fapswitch 2.2
_symmetry_space_group_name_H-M    P1
_symmetry_Int_Tables_number       1
_space_group_crystal_system       triclinic
_cell_length_a                    8.174502
_cell_length_b                    12.663179
_cell_length_c                    18.716458
_cell_angle_alpha                 99.454474
_cell_angle_beta                  90.931058
_cell_angle_gamma                 98.759819
_cell_volume                      1887.13505544

loop_
_atom_site_label
_atom_site_type_symbol
_atom_type_description
_atom_site_fract_x
_atom_site_fract_y
_atom_site_fract_z
_atom_type_partial_charge
Ba1   Ba    Ba6+2 0.852780 0.548340 0.465070 1.636764
Ba2   Ba    Ba6+2 0.337060 0.451750 0.534940 1.642845
C1    C     C_3   0.550102 0.860605 0.218908 -0.211116
C2    C     C_3   0.636348 0.818253 0.279376 0.350187
C3    C     C_3   0.461468 0.272733 0.314619 0.314836
C4    C     C_3   0.447600 0.237272 0.232787 -0.399706
C5    C     C_3   0.999056 0.193268 0.733131 0.340339
C6    C     C_3   0.056774 0.215216 0.813319 -0.182012
C7    C     C_3   0.548540 0.178889 0.703934 0.386799
C8    C     C_3   0.568929 0.089622 0.747086 -0.415909
C9    C     C_R   0.994556 0.440233 0.046945 0.010311
C10   C     C_R   0.902331 0.381209 0.094901 -0.092010
C11   C     C_R   0.766750 0.401624 0.952272 -0.104336
C12   C     C_3   0.128289 0.758278 0.265570 0.386279
C13   C     C_R   0.931700 0.445342 0.976114 0.018620
C14   C     C_R   0.708389 0.403631 0.882490 -0.103307
C15   C     C_R   0.811328 0.448931 0.832701 -0.037243
C16   C     C_R   0.974208 0.499920 0.855925 0.004116
C17   C     C_R   0.034444 0.498905 0.928061 0.018270
C18   C     C_R   0.756172 0.444782 0.760266 -0.022697
C19   C     C_R   0.864813 0.486548 0.711157 -0.285405
C20   C     C_R   0.021944 0.543557 0.733428 0.049448
C21   C     C_R   0.075962 0.553106 0.807353 -0.029559
C22   C     C_R   0.156948 0.492842 0.070250 0.021927
C23   C     C_3   0.111916 0.781580 0.188751 -0.388324
C24   C     C_R   0.216577 0.493524 0.142723 0.001963
C25   C     C_R   0.113732 0.442729 0.191950 -0.038362
C26   C     C_R   0.961183 0.381865 0.165236 -0.028575
C27   C     C_R   0.227693 0.614550 0.834585 -0.035877
C28   C     C_R   0.287463 0.613184 0.904478 -0.092436
C29   C     C_R   0.196632 0.551700 0.951503 0.009514
C30   C     C_R   0.260212 0.545251 0.021899 0.017849
C31   C     C_R   0.426149 0.586966 0.045116 -0.106846
C32   C     C_R   0.379640 0.544394 0.165779 -0.036233
C33   C     C_R   0.484257 0.586032 0.115150 -0.105844
C34   C     C_3   0.226179 0.786426 0.616832 0.283264
C35   C     C_R   0.433264 0.551745 0.238811 -0.009359
C36   C     C_R   0.325038 0.510255 0.288011 -0.293873
C37   C     C_R   0.167693 0.453862 0.265982 0.031833
C38   C     C_R   0.762262 0.184020 0.533605 -0.264493
C39   C     C_R   0.431120 0.807033 0.468550 -0.276252
C40   C     C_R   0.403855 0.984718 0.445212 -0.108834
C41   C     C_R   0.340091 0.875721 0.439848 -0.021615
C42   C     C_R   0.578907 0.848222 0.509166 0.077018
C43   C     C_R   0.642477 0.960812 0.518414 -0.049097
C44   C     C_R   0.554363 0.029046 0.484464 -0.059920
C45   C     C_3   0.221746 0.907092 0.629427 -0.343634
C46   C     C_R   0.617113 0.140435 0.491842 0.044820
C47   C     C_R   0.854950 0.117575 0.563947 -0.042743
C48   C     C_R   0.792564 0.007144 0.558679 -0.101852
C49   C     C_3   0.960476 0.216210 0.384779 0.290217
C50   C     C_3   0.918433 0.093656 0.369510 -0.398801
C51   C     C_3   0.723615 0.706292 0.683282 0.317923
C52   C     C_3   0.713094 0.737258 0.764946 -0.398057
H1    H     H_    0.725077 0.884935 0.310877 0.064308
H2    H     H_    0.319443 0.948304 0.670003 0.107089
H3    H     H_    0.243796 0.939079 0.578376 0.092759
H4    H     H_    0.099589 0.923651 0.649426 0.123402
H5    H     H_    0.854063 0.251179 0.408466 0.008072
H6    H     H_    0.067292 0.238858 0.424024 0.088377
H7    H     H_    0.796411 0.070091 0.339960 0.103281
H8    H     H_    0.911934 0.060873 0.420717 0.102509
H9    H     H_    0.015633 0.058676 0.336992 0.149733
H10   H     H_    0.850505 0.691639 0.670641 -0.000275
H11   H     H_    0.633659 0.631223 0.665233 0.069762
H12   H     H_    0.490668 0.930783 0.243059 0.082740
H13   H     H_    0.802075 0.811755 0.785248 0.108815
H14   H     H_    0.742581 0.671109 0.792636 0.056145
H15   H     H_    0.586062 0.752569 0.778340 0.121802
H16   H     H_    0.542356 0.793325 0.318207 -0.068216
H17   H     H_    0.451277 0.795197 0.193154 0.075860
H18   H     H_    0.339055 0.290337 0.333536 0.013047
H19   H     H_    0.554889 0.347453 0.327066 0.062249
H20   H     H_    0.353640 0.163167 0.218369 0.122638
H21   H     H_    0.409722 0.302573 0.206362 0.059285
H22   H     H_    0.569181 0.219895 0.212355 0.114397
H23   H     H_    0.156811 0.717491 0.149810 0.073817
H24   H     H_    0.956997 0.268648 0.721672 -0.028304
H25   H     H_    0.893723 0.126037 0.723916 -0.044737
H26   H     H_    0.141903 0.293994 0.824072 0.105134
H27   H     H_    0.947222 0.225012 0.846710 0.024845
H28   H     H_    0.672778 0.211061 0.686480 -0.106045
H29   H     H_    0.468055 0.143969 0.654755 0.079396
H30   H     H_    0.653398 0.122669 0.795266 0.105532
H31   H     H_    0.619879 0.023198 0.712650 0.085689
H32   H     H_    0.042388 0.682760 0.269425 0.099331
H33   H     H_    0.447749 0.056375 0.766218 0.146591
H34   H     H_    0.823230 0.479385 0.655162 0.067432
H35   H     H_    0.580873 0.368679 0.868376 0.104621
H36   H     H_    0.883917 0.334296 0.198385 0.096364
H37   H     H_    0.303356 0.664157 0.802152 0.088611
H38   H     H_    0.612517 0.619480 0.128983 0.103787
H39   H     H_    0.366749 0.517810 0.344039 0.074402
H40   H     H_    0.677302 0.366517 0.986764 0.068353
H41   H     H_    0.783794 0.331873 0.079529 0.056152
H42   H     H_    0.405054 0.663416 0.920601 0.054491
H43   H     H_    0.257156 0.745418 0.276135 -0.093850
H44   H     H_    0.516167 0.619472 0.009788 0.069504
H45   H     H_    0.330271 0.033928 0.420532 0.106468
H46   H     H_    0.865265 0.958829 0.584410 0.095019
H47   H     H_    0.809976 0.269452 0.537886 0.063034
H48   H     H_    0.380689 0.721905 0.463542 0.069075
H49   H     H_    0.980698 0.782973 0.174041 0.147599
H50   H     H_    0.185553 0.861319 0.184333 0.109795
H51   H     H_    0.351698 0.771517 0.602421 -0.004149
H52   H     H_    0.136615 0.749213 0.571298 0.083674
O1    O     O_2   0.873090 0.425890 0.325140 -0.458257
O2    O     O_3   0.687979 0.792376 0.650605 -0.644620
O3    O     O_3   0.088004 0.845882 0.314850 -0.602039
O4    O     O_2   0.316610 0.574140 0.674900 -0.462323
O5    O     O_3   0.067290 0.565720 0.585630 -0.500839
O6    O     O_3   0.530210 0.372990 0.631200 -0.468393
O7    O     O_3   0.187467 0.747067 0.681057 -0.644361
O8    O     O_3   0.611340 0.366290 0.463630 -0.477855
O9    O     O_3   0.108550 0.314140 0.595200 -0.459524
O10   O     O_2   0.197201 0.123114 0.552249 -0.487768
O11   O     O_3   0.126365 0.164612 0.688124 -0.571328
O12   O     O_3   0.122420 0.434370 0.414380 -0.498246
O13   O     O_3   0.578370 0.633800 0.536380 -0.489283
O14   O     O_2   0.341510 0.231850 0.465510 -0.471124
O15   O     O_3   0.509385 0.189050 0.346868 -0.650468
O16   O     O_2   0.415842 0.455807 0.756447 -0.478133
O17   O     O_3   0.472879 0.257692 0.747329 -0.578590
O18   O     O_3   0.659500 0.627100 0.368810 -0.466093
O19   O     O_2   0.767417 0.537065 0.244028 -0.490452
O20   O     O_3   0.997576 0.253167 0.319703 -0.642115
O21   O     O_3   0.725647 0.736196 0.249389 -0.603414
O22   O     O_2   0.848200 0.768190 0.534530 -0.475990
O23   O     O_3   0.081160 0.685950 0.404810 -0.488120
O24   O     O_2   0.000980 0.879711 0.449194 -0.481671
P1    P     P_3+3 0.041040 0.394770 0.336330 0.968195
P2    P     P_3+3 0.672880 0.754030 0.556100 0.970773
P3    P     P_3+3 0.128266 0.823813 0.402893 0.950628
P4    P     P_3+3 0.148670 0.605320 0.663680 0.972531
P5    P     P_3+3 0.068806 0.176012 0.599512 0.964187
P6    P     P_3+3 0.644434 0.612257 0.274505 0.950200
P7    P     P_3+3 0.523569 0.230012 0.441072 0.933643
P8    P     P_3+3 0.544016 0.385004 0.725004 0.974289
C53   C     C_3   0.662642 0.892033 0.158242 -0.184775
C54   C     C_3   0.797835 0.988574 0.184023 -0.407808
H53   H     H_    0.742831 0.058887 0.211095 0.145361
H54   H     H_    0.888154 0.966561 0.221613 0.159302
H55   H     H_    0.865443 0.012344 0.136717 0.115754
H56   H     H_    0.719512 0.821670 0.132681 0.132013
H57   H     H_    0.584156 0.913696 0.115500 0.102312
C55   C     C_R   0.139738 0.127114 0.837153 0.106792
C56   C     C_R   0.071883 0.016797 0.817565 -0.058613
C57   C     C_R   0.148383 0.937034 0.842140 -0.063413
C58   C     C_R   0.290282 0.966553 0.887958 -0.067294
C59   C     C_R   0.356274 0.075938 0.909234 -0.090522
C60   C     C_R   0.281855 0.155872 0.883852 -0.031508
H58   H     H_    0.960453 0.992155 0.783219 0.059578
H59   H     H_    0.097288 0.852237 0.826027 0.074599
H60   H     H_    0.348810 0.904671 0.907090 0.060372
H61   H     H_    0.465845 0.098843 0.944981 0.063205
H62   H     H_    0.334495 0.240218 0.901142 0.060979

loop_
_geom_bond_atom_site_label_1
_geom_bond_atom_site_label_2
_ccdc_geom_bond_type
C12   O3    S    
C8    H31   S    
C32   C35   A    
C5    O11   S    
C56   C57   A    
Ba1   O22   S    
Ba1   P2    S    
C17   C29   A    
C2    H16   S    
Ba2   O12   S    
C5    C6    S    
O10   P5    D    
C43   C44   A    
C13   C17   A    
O17   P8    S    
Ba2   O6    S    
C24   C25   A    
Ba2   P4    S    
O9    P5    S    
C46   P7    S    
C20   P4    S    
C23   H23   S    
C21   C27   A    
C35   C36   A    
C22   C24   A    
C16   C17   A    
C3    H18   S    
Ba1   O23   S    
C50   H7    S    
C40   C44   A    
C3    C4    S    
C51   H10   S    
Ba2   O9    S    
C52   H14   S    
Ba1   O8    S    
C18   P8    S    
C38   C47   A    
C3    O15   S    
C9    C22   A    
C15   C18   A    
O20   P1    S    
C39   H48   S    
C34   C45   S    
C32   C33   A    
Ba1   O13   S    
O8    P7    S    
O15   P7    S    
C41   P3    S    
C28   H42   S    
O12   P1    S    
C7    O17   S    
C38   H47   S    
C9    C13   A    
C24   C32   A    
C53   H57   S    
C31   H44   S    
C25   C37   A    
C14   C15   A    
C54   H55   S    
C10   H41   S    
C51   H11   S    
C7    C8    S    
C7    H28   S    
C33   H38   S    
C47   P5    S    
C19   H34   S    
C14   H35   S    
C19   C20   A    
C39   C41   A    
C34   O7    S    
O22   P2    D    
C4    H20   S    
C8    H33   S    
C44   C46   A    
Ba2   O5    S    
O18   P6    S    
O3    P3    S    
C16   C21   A    
O6    P8    S    
C4    H21   S    
C54   H53   S    
C12   H32   S    
O1    P1    D    
Ba2   O14   S    
C23   H49   S    
C52   H13   S    
C51   C52   S    
C34   H52   S    
C6    H27   S    
C1    H17   S    
C58   H60   S    
C22   C30   A    
C27   C28   A    
C45   H3    S    
C53   H56   S    
C29   C30   A    
C28   C29   A    
Ba2   O13   S    
C15   C16   A    
C35   P6    S    
O5    P4    S    
C60   H62   S    
O21   P6    S    
O16   P8    D    
Ba1   O1    S    
C5    H24   S    
O23   P3    S    
O19   P6    D    
C10   C26   A    
C59   H61   S    
C11   C13   A    
C2    H1    S    
C39   C42   A    
O4    P4    D    
O24   P3    D    
C49   H5    S    
C40   C41   A    
C1    C2    S    
O11   P5    S    
C27   H37   S    
C42   C43   A    
C12   H43   S    
C5    H25   S    
C55   C56   A    
C38   C46   A    
Ba2   O4    S    
C2    O21   S    
C34   H51   S    
C20   C21   A    
C49   O20   S    
C6    C55   S    
C54   H54   S    
Ba1   P1    S    
C50   H9    S    
O13   P2    S    
C53   C54   S    
C7    H29   S    
C23   H50   S    
C4    H22   S    
O14   P7    D    
C42   P2    S    
C48   H46   S    
C11   H40   S    
O7    P4    S    
C30   C31   A    
C56   H58   S    
Ba1   O18   S    
C49   C50   S    
C50   H8    S    
C40   H45   S    
Ba1   O5    S    
C45   H4    S    
Ba2   O8    S    
C51   O2    S    
C36   C37   A    
C52   H15   S    
C37   P1    S    
C43   C48   A    
Ba1   Ba2   S    
C36   H39   S    
C8    H30   S    
C31   C33   A    
Ba1   O12   S    
C12   C23   S    
C3    H19   S    
O2    P2    S    
C55   C60   A    
C1    H12   S    
C1    C53   S    
C18   C19   A    
C47   C48   A    
C57   H59   S    
C11   C14   A    
C25   C26   A    
C6    H26   S    
C59   C60   A    
C26   H36   S    
C49   H6    S    
C58   C59   A    
C57   C58   A    
C9    C10   A    
C45   H2    S    
