data_mof_unit_19789.cif
_audit_creation_date              2012-12-10T17:53:17-0500
_audit_creation_method            fapswitch 2.2
_symmetry_space_group_name_H-M    P1
_symmetry_Int_Tables_number       1
_space_group_crystal_system       triclinic
_cell_length_a                    23.276152
_cell_length_b                    10.727769
_cell_length_c                    9.945215
_cell_angle_alpha                 89.491506
_cell_angle_beta                  91.850658
_cell_angle_gamma                 93.362912
_cell_volume                      2477.70194395

loop_
_atom_site_label
_atom_site_type_symbol
_atom_type_description
_atom_site_fract_x
_atom_site_fract_y
_atom_site_fract_z
_atom_type_partial_charge
C1    C     C_R   0.504703 0.261478 0.501008 0.883760
C2    C     C_R   0.122451 0.495719 0.608973 0.509894
C3    C     C_R   0.232504 0.557472 0.454079 -0.132715
C4    C     C_R   0.389547 0.498724 0.498091 0.923199
C5    C     C_R   0.292239 0.577993 0.450822 0.092846
C6    C     C_R   0.327217 0.481203 0.494292 -0.057146
C7    C     C_R   0.302252 0.364697 0.535011 0.018147
C8    C     C_R   0.242583 0.346758 0.537967 -0.141380
C9    C     C_R   0.207993 0.443441 0.499711 0.258232
C10   C     C_R   0.764373 0.488484 0.402833 -0.103178
C11   C     C_R   0.705884 0.508519 0.396456 -0.220429
C12   C     C_R   0.959833 0.263064 0.351426 -0.217580
C13   C     C_R   0.672293 0.481278 0.508583 -0.030920
C14   C     C_R   0.697482 0.431803 0.626080 -0.230062
C15   C     C_R   0.755659 0.410062 0.631476 -0.095934
C16   C     C_R   0.503626 0.740092 0.499003 0.862379
C17   C     C_R   0.789336 0.439361 0.520392 0.309817
C18   C     C_R   0.577151 0.134879 0.706185 -0.184696
C19   C     C_R   0.607759 0.071364 0.806120 0.229403
C20   C     C_R   0.610073 0.942006 0.797753 -0.189010
C21   C     C_R   0.580785 0.876801 0.693519 -0.205452
C22   C     C_R   0.545503 0.938381 0.598565 0.083871
C23   C     C_R   0.019814 0.262695 0.345838 0.118960
C24   C     C_R   0.544681 0.069431 0.603439 0.064756
C25   C     C_R   0.513511 0.130527 0.500555 -0.154085
C26   C     C_R   0.491353 0.066254 0.388132 -0.206451
C27   C     C_R   0.489612 0.939802 0.384132 0.080314
C28   C     C_R   0.610604 0.497796 0.502166 0.845331
C29   C     C_R   0.512915 0.873789 0.494643 -0.150260
C30   C     C_R   0.431574 0.305508 0.126479 0.121271
C31   C     C_R   0.410310 0.203033 0.047924 0.067353
C32   C     C_R   0.412022 0.210327 0.909811 -0.269882
C33   C     C_R   0.435703 0.316511 0.850270 -0.157372
C34   C     C_R   0.054989 0.340629 0.433130 -0.024707
C35   C     C_R   0.468180 0.407902 0.924232 0.113171
C36   C     C_R   0.467403 0.405693 0.068671 0.118004
C37   C     C_R   0.530973 0.587565 0.073112 -0.126544
C38   C     C_R   0.530954 0.587425 0.930451 -0.106133
C39   C     C_R   0.882705 0.496484 0.619689 0.500593
C40   C     C_R   0.874054 0.346109 0.443166 0.512941
C41   C     C_R   0.933923 0.339936 0.441996 -0.031718
C42   C     C_R   0.968396 0.414608 0.531942 -0.021404
C43   C     C_R   0.942539 0.491660 0.623813 -0.005191
C44   C     C_3   0.639744 0.142694 0.918223 -0.439389
C45   C     C_R   0.028787 0.414684 0.528153 -0.063134
C46   C     C_3   0.598114 0.202693 0.010446 -0.814049
C47   C     C_3   0.317111 0.702877 0.401537 -0.433462
C48   C     C_3   0.340763 0.784815 0.517804 -0.841513
C49   C     C_R   0.062784 0.491318 0.617884 -0.008293
C50   C     C_R   0.036538 0.564135 0.712196 -0.158182
C51   C     C_R   0.976933 0.564643 0.714823 -0.162462
C52   C     C_R   0.115483 0.350255 0.427412 0.524339
H1    H     H_    0.933692 0.204120 0.282583 0.190089
H2    H     H_    0.390649 0.137651 0.848235 0.161167
H3    H     H_    0.426487 0.325305 0.745872 0.236021
H4    H     H_    0.556477 0.658965 0.878735 0.139002
H5    H     H_    0.061939 0.622949 0.782464 0.191033
H6    H     H_    0.957977 0.623750 0.787002 0.191129
H7    H     H_    0.204622 0.630891 0.423946 0.144794
H8    H     H_    0.223069 0.258389 0.572090 0.151399
H9    H     H_    0.790497 0.512298 0.317130 0.148552
H10   H     H_    0.573656 0.273299 0.954322 0.254067
H11   H     H_    0.567407 0.130506 0.052636 0.263348
H12   H     H_    0.687107 0.546246 0.304835 0.158847
H13   H     H_    0.622654 0.250183 0.094873 0.257256
H14   H     H_    0.666473 0.079858 0.980011 0.215710
H15   H     H_    0.669332 0.216292 0.874641 0.202140
H16   H     H_    0.428498 0.821075 0.294594 0.208753
H17   H     H_    0.492667 0.837487 0.212779 0.212895
H18   H     H_    0.029437 0.091446 0.269674 0.186551
H19   H     H_    0.029019 0.208068 0.154168 0.191633
H20   H     H_    0.401525 0.236950 0.305276 0.192176
H21   H     H_    0.360439 0.338945 0.224993 0.185142
H22   H     H_    0.398435 0.017399 0.079885 0.208913
H23   H     H_    0.672115 0.408313 0.713126 0.154906
H24   H     H_    0.337167 0.094313 0.070037 0.197789
H25   H     H_    0.306271 0.799621 0.589646 0.274544
H26   H     H_    0.377019 0.741571 0.571949 0.260437
H27   H     H_    0.356717 0.877114 0.478139 0.245835
H28   H     H_    0.351194 0.687965 0.329157 0.209386
H29   H     H_    0.283606 0.754155 0.345665 0.216654
H30   H     H_    0.326916 0.234411 0.668962 0.187060
H31   H     H_    0.327039 0.189917 0.506665 0.187808
H32   H     H_    0.774792 0.371714 0.722339 0.146896
H33   H     H_    0.473185 0.113698 0.302181 0.189885
H34   H     H_    0.581183 0.235463 0.708584 0.169025
H35   H     H_    0.635600 0.891362 0.870397 0.135318
H36   H     H_    0.588087 0.778736 0.686106 0.163966
H37   H     H_    0.556439 0.659191 0.127743 0.137914
N1    N     N_R   0.849947 0.425444 0.529207 -0.356736
N2    N     N_R   0.147200 0.428248 0.513014 -0.353925
N3    N     N_R   0.499460 0.498800 0.142780 -0.104695
N4    N     N_R   0.499440 0.498720 0.857170 -0.117879
N5    N     N_3   0.462340 0.882813 0.266718 -0.467408
N6    N     N_3   0.044262 0.183539 0.250282 -0.374862
N7    N     N_3   0.403137 0.319500 0.248916 -0.362010
N8    N     N_3   0.379537 0.098609 0.108722 -0.481461
N9    N     N_3   0.337576 0.264134 0.572070 -0.484470
O1    O     O_R   0.500000 0.316780 0.614690 -0.650203
O2    O     O_R   0.583850 0.500050 0.614640 -0.635521
O3    O     O_R   0.583840 0.500030 0.385310 -0.613599
O4    O     O_2   0.857450 0.573833 0.703094 -0.563489
O5    O     O_2   0.840130 0.274326 0.358543 -0.562945
O6    O     O_2   0.142664 0.284922 0.335947 -0.531502
O7    O     O_2   0.155762 0.567791 0.694649 -0.558001
O8    O     O_R   0.500000 0.316750 0.385360 -0.607048
O9    O     O_R   0.416160 0.499970 0.614690 -0.620015
O10   O     O_R   0.416150 0.499950 0.385360 -0.605978
O11   O     O_R   0.500000 0.683250 0.614640 -0.619715
O12   O     O_R   0.500000 0.683220 0.385310 -0.629923
Zn1   Zn    Zn3+2 0.500000 0.500020 0.653130 0.930582
Zn2   Zn    Zn3+2 0.500000 0.499980 0.346870 0.946912

loop_
_geom_bond_atom_site_label_1
_geom_bond_atom_site_label_2
_ccdc_geom_bond_type
C33   H3    S    
C22   C29   A    
C27   C29   A    
C41   C42   A    
C44   H14   S    
C35   C36   A    
C43   C51   A    
C9    N2    S    
C16   O12   A    
C7    C8    A    
O8    Zn2   S    
O3    Zn2   S    
C5    C47   S    
C12   C23   A    
C26   C27   A    
C12   C41   A    
C46   H10   S    
C18   C24   A    
C48   H27   S    
C7    N9    S    
O11   Zn1   S    
C30   C31   A    
H19   N6    S    
C10   C17   A    
C20   H35   S    
C18   C19   A    
C48   H26   S    
C30   N7    S    
C28   O3    A    
C27   N5    S    
C19   C20   A    
C8    C9    A    
H31   N9    S    
C13   C28   S    
C39   N1    A    
C12   H1    S    
C1    O8    A    
C28   O2    A    
C47   H29   S    
C21   H36   S    
C13   C14   A    
C1    C25   S    
H30   N9    S    
C1    O1    A    
C47   H28   S    
C32   H2    S    
C44   C46   S    
C16   O11   A    
H22   N8    S    
C35   N4    A    
C4    O9    A    
C44   H15   S    
C24   C25   A    
C46   H13   S    
C4    C6    S    
H17   N5    S    
C51   H6    S    
N3    Zn2   S    
C39   C43   A    
C25   C26   A    
H16   N5    S    
O10   Zn2   S    
C42   C45   A    
C48   H25   S    
C37   C38   A    
C3    C9    A    
C2    C49   A    
C4    O10   A    
C47   C48   S    
C45   C49   A    
C23   C34   A    
O1    Zn1   S    
C50   C51   A    
C34   C45   A    
C18   H34   S    
C6    C7    A    
N4    Zn1   S    
C40   C41   A    
C11   H12   S    
C22   C24   A    
C10   H9    S    
C42   C43   A    
C19   C44   S    
C39   O4    S    
C15   C17   A    
C52   O6    S    
C37   N3    A    
C50   H5    S    
O9    Zn1   S    
C31   C32   A    
C17   N1    S    
C3    C5    A    
C15   H32   S    
C30   C36   A    
C2    O7    S    
C34   C52   A    
C37   H37   S    
C46   H11   S    
C32   C33   A    
H18   N6    S    
H24   N8    S    
C14   H23   S    
C40   O5    S    
C11   C13   A    
C36   N3    A    
C5    C6    A    
C26   H33   S    
C38   N4    A    
C33   C35   A    
C23   N6    S    
C31   N8    S    
C2    N2    A    
O12   Zn2   S    
C10   C11   A    
H20   N7    S    
C38   H4    S    
C20   C21   A    
C16   C29   S    
O2    Zn1   S    
C49   C50   A    
C14   C15   A    
C52   N2    A    
H21   N7    S    
C40   N1    A    
C21   C22   A    
C8    H8    S    
C3    H7    S    
