data_mof_unit_20469.cif
_audit_creation_date              2012-12-11T15:50:26-0500
_audit_creation_method            fapswitch 2.2
_symmetry_space_group_name_H-M    P1
_symmetry_Int_Tables_number       1
_space_group_crystal_system       triclinic
_cell_length_a                    19.621084
_cell_length_b                    11.522888
_cell_length_c                    18.716787
_cell_angle_alpha                 89.999887
_cell_angle_beta                  91.815353
_cell_angle_gamma                 90.000181
_cell_volume                      4229.58358528

loop_
_atom_site_label
_atom_site_type_symbol
_atom_type_description
_atom_site_fract_x
_atom_site_fract_y
_atom_site_fract_z
_atom_type_partial_charge
C1    C     C_R   0.274975 0.039097 0.853531 0.578259
C2    C     C_R   0.725018 0.039078 0.146460 0.577506
C3    C     C_R   0.774979 0.539084 0.853538 0.577508
C4    C     C_R   0.225021 0.539086 0.146466 0.578255
C5    C     C_3   0.520787 0.735034 0.965703 -0.101464
C6    C     C_3   0.479162 0.735032 0.034320 -0.101372
C7    C     C_3   0.020838 0.235033 0.965680 -0.101372
C8    C     C_3   0.979213 0.235033 0.034297 -0.101464
C9    C     C_R   0.239775 0.582629 0.076135 0.034616
C10   C     C_R   0.760225 0.582618 0.923872 0.034747
C11   C     C_R   0.739773 0.082612 0.076127 0.034747
C12   C     C_R   0.260221 0.082638 0.923862 0.034614
C13   C     C_R   0.298701 0.548239 0.042985 0.017233
C14   C     C_R   0.701299 0.548221 0.957026 0.017048
C15   C     C_R   0.798699 0.048218 0.042973 0.017049
C16   C     C_R   0.201296 0.048244 0.957014 0.017231
C17   C     C_R   0.305052 0.560694 0.969586 0.022387
C18   C     C_R   0.694952 0.560677 0.030426 0.022531
C19   C     C_R   0.805047 0.060675 0.969573 0.022531
C20   C     C_R   0.194946 0.060696 0.030414 0.022388
C21   C     C_R   0.196909 0.651698 0.961571 -0.108424
C22   C     C_R   0.803094 0.651680 0.038433 -0.108341
C23   C     C_R   0.696905 0.151680 0.961566 -0.108340
C24   C     C_R   0.303090 0.151697 0.038429 -0.108425
C25   C     C_R   0.188412 0.638532 0.033697 0.083026
C26   C     C_R   0.811590 0.638518 0.966307 0.083212
C27   C     C_R   0.688409 0.138515 0.033692 0.083213
C28   C     C_R   0.311585 0.138536 0.966302 0.083025
C29   C     C_3   0.328597 0.431018 0.042609 -0.006211
C30   C     C_3   0.671413 0.430989 0.957425 -0.006613
C31   C     C_3   0.828586 0.930987 0.042575 -0.006613
C32   C     C_3   0.171401 0.931021 0.957389 -0.006211
C33   C     C_3   0.338263 0.447457 0.962717 0.008391
C34   C     C_3   0.661747 0.447439 0.037314 0.008510
C35   C     C_3   0.838252 0.947438 0.962685 0.008509
C36   C     C_3   0.161736 0.947457 0.037282 0.008390
C37   C     C_R   0.252833 0.606833 0.926772 0.011097
C38   C     C_R   0.747170 0.606822 0.073233 0.011003
C39   C     C_R   0.752829 0.106822 0.926766 0.011006
C40   C     C_R   0.247166 0.106833 0.073227 0.011095
C41   C     C_R   0.497001 0.842670 0.419528 0.026546
C42   C     C_R   0.476293 0.832947 0.568021 0.034959
C43   C     C_R   0.023695 0.332946 0.431974 0.034968
C44   C     C_R   0.002995 0.342675 0.580469 0.026534
C45   C     C_R   0.445052 0.818223 0.861918 0.572823
C46   C     C_R   0.554920 0.818226 0.138083 0.572966
C47   C     C_R   0.945080 0.318225 0.861917 0.572970
C48   C     C_R   0.054948 0.318223 0.138082 0.572817
C49   C     C_R   0.463579 0.750823 0.449470 0.030655
C50   C     C_R   0.451967 0.746243 0.521680 -0.001623
C51   C     C_R   0.048028 0.246256 0.478318 -0.001624
C52   C     C_R   0.036431 0.250838 0.550530 0.030652
C53   C     C_R   0.499021 0.936898 0.536873 -0.147237
C54   C     C_R   0.509448 0.941770 0.462704 -0.147274
C55   C     C_R   0.990534 0.441763 0.537290 -0.147280
C56   C     C_R   0.000959 0.436888 0.463120 -0.147237
C57   C     C_3   0.483168 0.628048 0.446034 -0.008364
C58   C     C_3   0.463802 0.618452 0.522122 -0.012044
C59   C     C_3   0.036207 0.118462 0.477881 -0.012040
C60   C     C_3   0.016848 0.128060 0.553972 -0.008373
C61   C     C_R   0.219773 0.496649 0.440157 0.006633
C62   C     C_R   0.779283 0.505546 0.562378 0.005046
C63   C     C_R   0.720716 0.005543 0.437622 0.005039
C64   C     C_R   0.280228 0.996648 0.559843 0.006631
C65   C     C_R   0.172888 0.560373 0.475450 -0.002955
C66   C     C_R   0.826071 0.570029 0.527107 -0.016798
C67   C     C_R   0.673927 0.070027 0.472893 -0.016789
C68   C     C_R   0.327114 0.060372 0.524549 -0.002959
C69   C     C_R   0.178854 0.585295 0.547975 0.010248
C70   C     C_R   0.818454 0.595324 0.455037 -0.007002
C71   C     C_R   0.681545 0.095323 0.544963 -0.006992
C72   C     C_R   0.321147 0.085294 0.452024 0.010250
C73   C     C_R   0.290467 0.494874 0.552388 0.073840
C74   C     C_R   0.705502 0.509439 0.455001 0.095402
C75   C     C_R   0.794498 0.009441 0.544998 0.095412
C76   C     C_R   0.209534 0.994873 0.447613 0.073836
C77   C     C_R   0.281637 0.470445 0.478467 -0.117108
C78   C     C_R   0.716420 0.482809 0.527304 -0.104558
C79   C     C_R   0.783579 0.982810 0.472695 -0.104554
C80   C     C_R   0.218364 0.970443 0.521533 -0.117108
C81   C     C_3   0.164876 0.683650 0.456461 -0.016324
C82   C     C_3   0.836566 0.693202 0.546829 -0.005166
C83   C     C_3   0.663434 0.193200 0.453171 -0.005164
C84   C     C_3   0.335126 0.183649 0.543538 -0.016325
C85   C     C_3   0.157259 0.706837 0.533158 -0.245086
C86   C     C_3   0.839405 0.717467 0.469346 -0.240723
C87   C     C_3   0.660596 0.217467 0.530654 -0.240721
C88   C     C_3   0.342745 0.206836 0.466841 -0.245087
C89   C     C_R   0.262118 0.642012 0.852600 0.566554
C90   C     C_R   0.737883 0.642010 0.147401 0.567347
C91   C     C_R   0.762117 0.142010 0.852598 0.567349
C92   C     C_R   0.237882 0.142013 0.147399 0.566552
C93   C     C_R   0.239815 0.560011 0.585942 0.067496
C94   C     C_R   0.757064 0.568793 0.418390 0.063770
C95   C     C_R   0.742936 0.068793 0.581610 0.063767
C96   C     C_R   0.260186 0.060011 0.414058 0.067496
C97   C     C_R   0.289890 0.995212 0.639128 0.567581
C98   C     C_R   0.710047 0.996589 0.360390 0.564446
C99   C     C_R   0.789953 0.496590 0.639609 0.564445
C100  C     C_R   0.210111 0.495212 0.360872 0.567584
C101  C     C_R   0.462682 0.822889 0.644283 0.564253
C102  C     C_R   0.531666 0.824852 0.352264 0.551298
C103  C     C_R   0.968333 0.324853 0.647735 0.551298
C104  C     C_R   0.037308 0.322889 0.355713 0.564252
C105  C     C_R   0.258233 0.632777 0.647477 0.548906
C106  C     C_R   0.740861 0.635161 0.353994 0.552744
C107  C     C_R   0.759139 0.135161 0.646005 0.552743
C108  C     C_R   0.241766 0.132777 0.352524 0.548908
C109  C     C_3   0.479573 0.925281 0.035403 0.139684
C110  C     C_3   0.520375 0.925280 0.964619 0.139826
C111  C     C_3   0.979624 0.425280 0.035381 0.139826
C112  C     C_3   0.020427 0.425281 0.964597 0.139685
C113  C     C_3   0.432752 0.830041 0.003449 0.029958
C114  C     C_3   0.567194 0.830044 0.996572 0.030113
C115  C     C_3   0.932805 0.330042 0.003428 0.030115
C116  C     C_3   0.067248 0.330042 0.996551 0.029954
C117  C     C_3   0.473502 0.828701 0.934915 0.013529
C118  C     C_3   0.526446 0.828703 0.065103 0.013582
C119  C     C_3   0.973554 0.328703 0.934897 0.013583
C120  C     C_3   0.026498 0.328702 0.065085 0.013528
Cr1   Cr    Cr6+3 0.229640 0.835880 0.747370 1.087775
Cr2   Cr    Cr6+3 0.770360 0.835880 0.252630 1.084036
Cr3   Cr    Cr6+3 0.729640 0.335880 0.747370 1.084037
Cr4   Cr    Cr6+3 0.270360 0.335880 0.252630 1.087777
Cr5   Cr    Cr6+3 0.387390 0.989720 0.750850 1.099909
Cr6   Cr    Cr6+3 0.612610 0.989720 0.249150 1.098444
Cr7   Cr    Cr6+3 0.887390 0.489720 0.750850 1.098445
Cr8   Cr    Cr6+3 0.112610 0.489720 0.249150 1.099908
Cr9   Cr    Cr6+3 0.385770 0.677220 0.749340 1.121819
Cr10  Cr    Cr6+3 0.614230 0.677220 0.250660 1.119321
Cr11  Cr    Cr6+3 0.885770 0.177220 0.749340 1.119319
Cr12  Cr    Cr6+3 0.114230 0.177220 0.250660 1.121819
H1    H     H_    0.085441 0.075455 0.476764 0.171565
H2    H     H_    0.961307 0.125155 0.557713 0.191443
H3    H     H_    0.538712 0.625148 0.442303 0.191429
H4    H     H_    0.414570 0.575431 0.523233 0.171562
H5    H     H_    0.324935 0.439852 0.450849 0.160190
H6    H     H_    0.674481 0.449955 0.556789 0.175900
H7    H     H_    0.825517 0.949956 0.443209 0.175903
H8    H     H_    0.175067 0.939849 0.549151 0.160193
H9    H     H_    0.196444 0.767254 0.551499 0.172103
H10   H     H_    0.798280 0.775889 0.452173 0.165178
H11   H     H_    0.701723 0.275888 0.547826 0.165176
H12   H     H_    0.303561 0.267255 0.448499 0.172108
H13   H     H_    0.104191 0.725431 0.549076 0.153300
H14   H     H_    0.891197 0.737788 0.450277 0.155507
H15   H     H_    0.608804 0.237792 0.549724 0.155505
H16   H     H_    0.395813 0.225426 0.450924 0.153296
H17   H     H_    0.308438 0.387583 0.927420 0.161710
H18   H     H_    0.691583 0.387576 0.072610 0.161402
H19   H     H_    0.808417 0.887575 0.927389 0.161401
H20   H     H_    0.191561 0.887583 0.072578 0.161711
O1    O     O_R   0.214300 0.709080 0.827500 -0.505777
O2    O     O_R   0.785700 0.709080 0.172500 -0.505931
O3    O     O_R   0.714300 0.209080 0.827500 -0.505931
O4    O     O_R   0.285700 0.209080 0.172500 -0.505779
O5    O     O_R   0.445900 0.919370 0.676500 -0.526181
O6    O     O_R   0.554100 0.919370 0.323500 -0.524180
O7    O     O_R   0.945900 0.419370 0.676500 -0.524178
O8    O     O_R   0.054100 0.419370 0.323500 -0.526182
O9    O     O_R   0.456660 0.717710 0.669820 -0.453370
O10   O     O_R   0.543340 0.717710 0.330180 -0.479911
O11   O     O_R   0.956660 0.217710 0.669820 -0.479921
O12   O     O_R   0.043340 0.217710 0.330180 -0.453375
O13   O     O_R   0.320590 0.625770 0.672930 -0.477835
O14   O     O_R   0.679410 0.625770 0.327070 -0.472869
O15   O     O_R   0.820590 0.125770 0.672930 -0.472868
O16   O     O_R   0.179410 0.125770 0.327070 -0.477831
O17   O     O_3   0.334270 0.834280 0.749190 -0.365413
O18   O     O_3   0.665730 0.834280 0.250810 -0.360643
O19   O     O_3   0.834270 0.334280 0.749190 -0.360640
O20   O     O_3   0.165730 0.334280 0.250810 -0.365412
O21   O     O_R   0.236190 0.958390 0.823150 -0.485596
O22   O     O_R   0.763810 0.958390 0.176850 -0.487714
O23   O     O_R   0.736190 0.458390 0.823150 -0.487715
O24   O     O_R   0.263810 0.458390 0.176850 -0.485596
O25   O     O_R   0.332090 0.075280 0.831290 -0.470460
O26   O     O_R   0.667910 0.075280 0.168710 -0.470799
O27   O     O_R   0.832090 0.575280 0.831290 -0.470800
O28   O     O_R   0.167910 0.575280 0.168710 -0.470461
O29   O     O_R   0.446280 0.918040 0.826620 -0.461499
O30   O     O_R   0.553720 0.918040 0.173380 -0.462271
O31   O     O_R   0.946280 0.418040 0.826620 -0.462269
O32   O     O_R   0.053720 0.418040 0.173380 -0.461504
O33   O     O_R   0.457080 0.716270 0.831760 -0.469451
O34   O     O_R   0.542920 0.716270 0.168240 -0.468333
O35   O     O_R   0.957080 0.216270 0.831760 -0.468332
O36   O     O_R   0.042920 0.216270 0.168240 -0.469453
O37   O     O_R   0.320980 0.624440 0.823040 -0.478755
O38   O     O_R   0.679020 0.624440 0.176960 -0.478697
O39   O     O_R   0.820980 0.124440 0.823040 -0.478697
O40   O     O_R   0.179020 0.124440 0.176960 -0.478755
O41   O     O_R   0.213880 0.710510 0.665560 -0.529672
O42   O     O_R   0.786120 0.710510 0.334440 -0.529560
O43   O     O_R   0.713880 0.210510 0.665560 -0.529559
O44   O     O_R   0.286120 0.210510 0.334440 -0.529672
O45   O     O_R   0.235800 0.959720 0.673040 -0.468272
O46   O     O_R   0.764200 0.959720 0.326960 -0.479543
O47   O     O_R   0.735800 0.459720 0.673040 -0.479542
O48   O     O_R   0.264200 0.459720 0.326960 -0.468272
O49   O     O_R   0.331670 0.076720 0.669350 -0.475506
O50   O     O_R   0.668330 0.076720 0.330650 -0.479361
O51   O     O_R   0.831670 0.576720 0.669350 -0.479365
O52   O     O_R   0.168330 0.576720 0.330650 -0.475504
I1    I     I_    0.329792 0.834117 0.025207 -0.458574
I2    I     I_    0.670164 0.834101 0.974850 -0.458623
I3    I     I_    0.829835 0.334099 0.025147 -0.458617
I4    I     I_    0.170207 0.334119 0.974790 -0.458586
H21   H     H_    0.512247 0.011289 0.569845 0.143295
H22   H     H_    0.533057 0.018350 0.440987 0.137697
H23   H     H_    0.966918 0.518335 0.559007 0.137699
H24   H     H_    0.987723 0.511266 0.430147 0.143300
I5    I     I_    0.425403 0.534224 0.365856 -0.228457
I6    I     I_    0.547607 0.555805 0.589233 -0.275997
I7    I     I_    0.952400 0.055792 0.410781 -0.276008
I8    I     I_    0.074616 0.034250 0.634152 -0.228437
I9    I     I_    0.376075 0.422600 0.616090 -0.278807
I10   I     I_    0.613138 0.446660 0.404236 -0.309356
I11   I     I_    0.886864 0.946667 0.595759 -0.309356
I12   I     I_    0.123925 0.922601 0.383913 -0.278806
H25   H     H_    0.116762 0.694966 0.424590 0.183668
H26   H     H_    0.886185 0.704228 0.576169 0.176186
H27   H     H_    0.613815 0.204226 0.423831 0.176185
H28   H     H_    0.383240 0.194966 0.575409 0.183663
I13   I     I_    0.266348 0.746975 0.418975 -0.329750
I14   I     I_    0.741185 0.762360 0.592952 -0.296270
I15   I     I_    0.758817 0.262357 0.407048 -0.296271
I16   I     I_    0.233654 0.246974 0.581021 -0.329755
I17   I     I_    0.439164 0.043786 0.113512 -0.181975
I18   I     I_    0.560810 0.043785 0.886530 -0.181377
I19   I     I_    0.939188 0.543781 0.113470 -0.181383
I20   I     I_    0.060834 0.543789 0.886488 -0.181973
H29   H     H_    0.542280 0.659880 0.937201 0.217250
H30   H     H_    0.457684 0.659874 0.062830 0.217465
H31   H     H_    0.042316 0.159875 0.937170 0.217465
H32   H     H_    0.957720 0.159879 0.062799 0.217250
H33   H     H_    0.157878 0.698297 0.932456 0.203020
H34   H     H_    0.842127 0.698272 0.067547 0.203136
H35   H     H_    0.657874 0.198274 0.932453 0.203135
H36   H     H_    0.342123 0.198294 0.067544 0.203021
I21   I     I_    0.088911 0.688763 0.062935 -0.180843
I22   I     I_    0.911096 0.688742 0.937064 -0.181494
I23   I     I_    0.588903 0.188741 0.062936 -0.181495
I24   I     I_    0.411088 0.188765 0.937064 -0.180842
H37   H     H_    0.788587 0.868080 0.054261 0.134120
H38   H     H_    0.211401 0.868110 0.945706 0.133607
H39   H     H_    0.288598 0.368106 0.054292 0.133602
H40   H     H_    0.711412 0.368082 0.945738 0.134123
I25   I     I_    0.407906 0.410632 0.121574 -0.154383
I26   I     I_    0.592080 0.410524 0.878506 -0.159372
I27   I     I_    0.907918 0.910524 0.121494 -0.159372
I28   I     I_    0.092093 0.910632 0.878425 -0.154387
I29   I     I_    0.432483 0.492248 0.925399 -0.200689
I30   I     I_    0.567518 0.492231 0.074633 -0.200544
I31   I     I_    0.932482 0.992233 0.925368 -0.200547
I32   I     I_    0.067517 0.992246 0.074601 -0.200687

loop_
_geom_bond_atom_site_label_1
_geom_bond_atom_site_label_2
_ccdc_geom_bond_type
C21   H33   S    
C55   C56   A    
C67   C83   S    
C115  I3    S    
C5    C114  S    
C23   C39   A    
C111  I19   S    
C58   I6    S    
C14   C18   A    
C79   H7    S    
C111  C112  S    
Cr8   O32   S    
C73   C93   A    
C73   I9    S    
Cr3   O43   S    
C102  O6    A    
C107  O43   A    
C32   I28   S    
C34   H18   S    
C75   C95   A    
C7    C8    S    
C48   C120  S    
C63   C79   A    
C53   C54   A    
Cr6   O50   S    
C105  O41   A    
C82   I14   S    
Cr8   O8    S    
C36   I32   S    
C30   H40   S    
C29   H39   S    
C106  O14   A    
C98   O46   A    
C13   C29   S    
C70   C94   A    
C77   H5    S    
C75   I11   S    
C48   O36   A    
C63   C98   S    
Cr9   O33   S    
C42   C53   A    
C5    C6    S    
C20   C40   A    
C59   I7    S    
C71   C95   A    
Cr1   O17   S    
Cr7   O19   S    
C22   C38   A    
C53   H21   S    
C29   C33   S    
Cr9   O17   S    
C49   C57   S    
C41   C102  S    
C46   C118  S    
C21   C37   A    
Cr8   O52   S    
C4    O24   A    
C39   C91   S    
C49   C50   A    
C9    C13   A    
C43   C104  S    
C3    O27   A    
Cr10  O38   S    
C52   C60   S    
C8    C115  S    
C93   C105  S    
C109  I17   S    
C41   C49   A    
Cr1   O21   S    
Cr7   O31   S    
C12   C16   A    
C61   C77   A    
Cr2   O18   S    
Cr9   O37   S    
C45   O33   A    
Cr3   O19   S    
C60   H2    S    
C76   C80   A    
Cr8   O28   S    
C111  C115  S    
Cr11  O11   S    
C90   O2    A    
Cr5   O17   S    
C110  C114  S    
C74   C78   A    
C24   H36   S    
C68   C72   A    
Cr12  O40   S    
C96   C108  S    
C83   H27   S    
Cr10  O10   S    
C47   C119  S    
C32   C36   S    
C108  O16   A    
Cr11  O15   S    
C59   C60   S    
C5    H29   S    
C95   C107  S    
C35   I31   S    
C25   I21   S    
C64   C80   A    
Cr12  O36   S    
C108  O44   A    
C1    C12   S    
C1    O25   A    
C4    O28   A    
C92   O40   A    
C2    C11   S    
C86   H14   S    
C110  C117  S    
Cr1   O41   S    
C72   C88   S    
C44   C103  S    
C62   C78   A    
C109  C118  S    
C107  O15   A    
C23   C27   A    
Cr6   O6    S    
C88   H16   S    
C7    H31   S    
C30   C34   S    
C9    C25   A    
C51   C52   A    
C68   C84   S    
C97   O45   A    
C47   O31   A    
C10   C14   A    
C85   H9    S    
C37   C89   S    
C48   O32   A    
C62   C66   A    
C36   H20   S    
C20   C36   S    
C83   I15   S    
C58   H4    S    
Cr2   O22   S    
Cr8   O20   S    
C91   O39   A    
C15   C31   S    
C59   H1    S    
C84   I16   S    
Cr2   O46   S    
C116  C120  S    
C115  C119  S    
C5    C117  S    
C111  C120  S    
C29   I25   S    
C7    C116  S    
C15   C19   A    
Cr12  O12   S    
C6    C113  S    
C91   O3    A    
Cr2   O42   S    
Cr6   O18   S    
Cr5   O49   S    
C7    C119  S    
C76   C96   A    
C66   C82   S    
C23   H35   S    
C38   C90   S    
Cr10  O14   S    
C44   C52   A    
C89   O1    A    
C63   C67   A    
Cr4   O20   S    
C18   C38   A    
C11   C27   A    
C16   C20   A    
C1    O21   A    
C74   I10   S    
Cr11  O19   S    
C26   I22   S    
C106  O42   A    
C104  O8    A    
C50   C58   S    
C31   I27   S    
C17   C33   S    
Cr5   O29   S    
C17   C37   A    
C40   C92   S    
C30   I26   S    
C18   C34   S    
Cr1   O45   S    
C81   I13   S    
C87   H15   S    
C42   C50   A    
C70   C86   S    
C71   C87   S    
C100  O48   A    
Cr11  O39   S    
C3    O23   A    
C64   C97   S    
C57   I5    S    
Cr2   O2    S    
C11   C15   A    
Cr4   O4    S    
C8    H32   S    
Cr5   O25   S    
Cr5   O5    S    
C31   C35   S    
Cr6   O30   S    
C61   C100  S    
C110  I18   S    
C47   O35   A    
C92   O4    A    
C42   C101  S    
C64   C68   A    
C112  C116  S    
Cr3   O47   S    
C69   C85   S    
C102  O10   A    
C86   H10   S    
C24   C28   A    
C90   O38   A    
C113  C117  S    
C45   C117  S    
C8    C120  S    
C21   C25   A    
C114  C118  S    
C103  O7    A    
C2    O26   A    
C99   O51   A    
Cr7   O7    S    
C103  O11   A    
C98   O50   A    
C57   H3    S    
C45   O29   A    
Cr12  O16   S    
C85   H13   S    
C27   I23   S    
C83   C87   S    
C104  O12   A    
C112  C119  S    
Cr3   O23   S    
Cr10  O34   S    
C56   H24   S    
Cr4   O24   S    
C109  C113  S    
C16   C32   S    
C81   H25   S    
Cr4   O48   S    
C69   C93   A    
C112  I20   S    
Cr9   O13   S    
C34   I30   S    
C32   H38   S    
Cr7   O27   S    
C46   O30   A    
C101  O9    A    
C60   I8    S    
C82   H26   S    
Cr1   O1    S    
C101  O5    A    
C113  I1    S    
C3    C10   S    
C80   H8    S    
C109  C110  S    
C78   H6    S    
C84   H28   S    
C82   C86   S    
C62   C99   S    
C100  O52   A    
C44   C55   A    
C43   C51   A    
C57   C58   S    
C66   C70   A    
C84   C88   S    
C75   C79   A    
Cr10  O18   S    
C116  I4    S    
C65   C69   A    
Cr9   O9    S    
C46   O34   A    
C10   C26   A    
C24   C40   A    
C33   H17   S    
C105  O13   A    
Cr6   O26   S    
C67   C71   A    
C74   C94   A    
C61   C65   A    
C6    H30   S    
Cr4   O44   S    
C81   C85   S    
C41   C54   A    
C35   H19   S    
C94   C106  S    
C2    O22   A    
Cr12  O20   S    
C55   H23   S    
C13   C17   A    
C72   C96   A    
C114  I2    S    
C43   C56   A    
C54   H22   S    
C51   C59   S    
C12   C28   A    
C73   C77   A    
C19   C39   A    
C97   O49   A    
C22   C26   A    
C99   O47   A    
C33   I29   S    
C89   O37   A    
C65   C81   S    
C31   H37   S    
C19   C35   S    
C28   I24   S    
C87   H11   S    
C4    C9    S    
C76   I12   S    
Cr7   O51   S    
C88   H12   S    
C14   C30   S    
Cr3   O3    S    
C6    C118  S    
C22   H34   S    
Cr11  O35   S    
