data_mof_unit_15119.cif
_audit_creation_date              2012-12-10T17:02:12-0500
_audit_creation_method            fapswitch 2.2
_symmetry_space_group_name_H-M    P1
_symmetry_Int_Tables_number       1
_space_group_crystal_system       triclinic
_cell_length_a                    10.729542
_cell_length_b                    10.746006
_cell_length_c                    10.03107
_cell_angle_alpha                 88.501134
_cell_angle_beta                  89.84692
_cell_angle_gamma                 92.228279
_cell_volume                      1155.30172928

loop_
_atom_site_label
_atom_site_type_symbol
_atom_type_description
_atom_site_fract_x
_atom_site_fract_y
_atom_site_fract_z
_atom_type_partial_charge
C1    C     C_R   0.501747 0.262553 0.501568 0.853352
C2    C     C_2   0.485232 0.130728 0.506962 -0.274512
C3    C     C_2   0.574611 0.571046 0.922976 0.681502
C4    C     C_R   0.260131 0.487289 0.500886 0.878656
C5    C     C_2   0.586515 0.554277 0.071684 -0.070092
C6    C     C_R   0.499679 0.737035 0.497926 0.866584
C7    C     C_R   0.739411 0.499106 0.499833 0.960023
C8    C     C_R   0.104303 0.273072 0.644997 0.038636
C9    C     C_R   0.025859 0.191709 0.722576 0.709486
C10   C     C_R   0.898430 0.203572 0.721062 -0.203461
C11   C     C_R   0.847297 0.296787 0.644157 -0.238808
C12   C     C_R   0.054647 0.378580 0.575110 0.029214
C13   C     C_R   0.923513 0.387638 0.574438 -0.011718
C14   C     C_3   0.234907 0.234597 0.629065 -0.772459
C15   C     C_3   0.338272 0.877218 0.320468 -0.842169
C16   C     C_R   0.126196 0.473203 0.500947 -0.146381
C17   C     C_R   0.068720 0.564383 0.424038 -0.249941
C18   C     C_R   0.941953 0.570413 0.423025 0.633632
C19   C     C_R   0.870452 0.485245 0.499900 -0.208498
C20   C     C_2   0.440513 0.934673 0.405413 0.002293
C21   C     C_2   0.511434 0.868632 0.490194 0.494322
C22   C     C_2   0.460698 0.068276 0.396665 -0.088629
F1    F     F_    0.650369 0.658235 0.860093 -0.603144
F2    F     F_    0.387246 0.487167 0.095698 -0.581346
F3    F     F_    0.072498 0.096098 0.795729 -0.639901
F4    F     F_    0.888778 0.663101 0.350984 -0.632771
F5    F     F_    0.607834 0.921397 0.559824 -0.641922
H1    H     H_    0.122976 0.634559 0.366970 0.189087
H2    H     H_    0.294016 0.285145 0.701501 0.273389
H3    H     H_    0.282210 0.950269 0.271803 0.266506
H4    H     H_    0.378788 0.821814 0.240435 0.281537
H5    H     H_    0.274143 0.817070 0.383481 0.227192
H6    H     H_    0.482533 0.085493 0.605169 0.209092
H7    H     H_    0.458837 0.424513 0.898649 0.184838
H8    H     H_    0.670853 0.591538 0.117757 0.161544
H9    H     H_    0.838279 0.137273 0.776312 0.205814
H10   H     H_    0.746928 0.294791 0.639776 0.190606
H11   H     H_    0.449923 0.115249 0.300314 0.191239
H12   H     H_    0.244805 0.133394 0.649488 0.267724
H13   H     H_    0.262880 0.249851 0.523641 0.204123
N1    N     N_2   0.501340 0.501330 0.852150 -0.221015
N2    N     N_2   0.501380 0.501360 0.147810 0.117675
O1    O     O_R   0.499980 0.319060 0.613040 -0.657115
O2    O     O_R   0.500020 0.319100 0.386900 -0.600719
O3    O     O_R   0.316750 0.499980 0.613090 -0.612748
O4    O     O_R   0.316790 0.500020 0.386950 -0.559277
O5    O     O_R   0.499980 0.680900 0.613100 -0.540256
O6    O     O_R   0.500020 0.680940 0.386960 -0.632709
O7    O     O_R   0.683210 0.499980 0.613050 -0.589344
O8    O     O_R   0.683250 0.500020 0.386910 -0.604393
Zn1   Zn    Zn3+2 0.499970 0.499970 0.650990 1.032669
Zn2   Zn    Zn3+2 0.500030 0.500030 0.349010 1.072591

loop_
_geom_bond_atom_site_label_1
_geom_bond_atom_site_label_2
_ccdc_geom_bond_type
C2    C22   D    
O8    Zn2   S    
C5    N2    D    
C15   H4    S    
N1    Zn1   S    
F2    N2    S    
C9    C10   A    
C1    O2    A    
C3    F1    S    
C18   F4    S    
C8    C12   A    
O2    Zn2   S    
C17   C18   A    
C21   F5    S    
C3    C5    S    
C9    F3    S    
C15   H5    S    
C4    O4    A    
C12   C13   A    
C11   C13   A    
O1    Zn1   S    
C16   C17   A    
H7    N1    S    
C6    O6    A    
C5    H8    S    
C2    H6    S    
C4    C16   S    
C20   C22   S    
C1    C2    S    
C7    C19   S    
C4    O3    A    
C15   C20   S    
C8    C14   S    
C10   C11   A    
O3    Zn1   S    
C14   H2    S    
C14   H13   S    
C22   H11   S    
O4    Zn2   S    
O6    Zn2   S    
C20   C21   D    
C7    O7    A    
C15   H3    S    
C18   C19   A    
C6    O5    A    
C11   H10   S    
C13   C19   A    
C3    N1    D    
C10   H9    S    
C17   H1    S    
C14   H12   S    
C6    C21   S    
C1    O1    A    
O5    Zn1   S    
C12   C16   A    
C7    O8    A    
N2    Zn2   S    
C8    C9    A    
O7    Zn1   S    
