data_mof_unit_47386.cif
_audit_creation_date              2012-12-10T18:05:55-0500
_audit_creation_method            fapswitch 2.2
_symmetry_space_group_name_H-M    P1
_symmetry_Int_Tables_number       1
_space_group_crystal_system       triclinic
_cell_length_a                    12.60868
_cell_length_b                    13.137119
_cell_length_c                    15.002006
_cell_angle_alpha                 90.747716
_cell_angle_beta                  102.050169
_cell_angle_gamma                 82.230115
_cell_volume                      2407.59572119

loop_
_atom_site_label
_atom_site_type_symbol
_atom_type_description
_atom_site_fract_x
_atom_site_fract_y
_atom_site_fract_z
_atom_type_partial_charge
C1    C     C_R   0.438897 0.691081 0.486011 0.845875
C2    C     C_R   0.596438 0.457461 0.107529 0.091612
C3    C     C_R   0.303949 0.565815 0.012410 0.111362
C4    C     C_R   0.305157 0.567085 0.919378 -0.260595
C5    C     C_R   0.401560 0.533570 0.889389 0.091675
C6    C     C_R   0.498800 0.497801 0.952220 0.069261
C7    C     C_R   0.596290 0.464437 0.921777 0.132966
C8    C     C_R   0.692151 0.427265 0.983413 -0.215506
C9    C     C_R   0.692269 0.423081 0.075526 -0.225797
C10   C     C_R   0.402394 0.534720 0.797074 -0.243546
C11   C     C_R   0.499571 0.502087 0.767990 -0.066214
C12   C     C_R   0.499753 0.501275 0.672555 0.887449
C13   C     C_R   0.596239 0.467904 0.829711 -0.265105
C14   C     C_R   0.702374 0.063428 0.435728 -0.201447
C15   C     C_R   0.596574 0.200019 0.501410 -0.047080
C16   C     C_R   0.300022 0.838405 0.499207 -0.192103
C17   C     C_R   0.271415 0.943281 0.507604 -0.148063
C18   C     C_R   0.345037 0.010426 0.498625 -0.191365
C19   C     C_R   0.447248 0.973396 0.476464 0.084792
C20   C     C_R   0.467893 0.869271 0.453955 0.083021
C21   C     C_R   0.529724 0.036124 0.475867 0.077400
C22   C     C_R   0.622520 0.999572 0.439008 0.174021
C23   C     C_R   0.561010 0.308819 0.509204 0.864433
C24   C     C_R   0.633130 0.900643 0.404619 -0.251081
C25   C     C_R   0.556777 0.836105 0.411916 -0.197425
C26   C     C_R   0.523233 0.133892 0.512611 -0.257590
C27   C     C_R   0.688392 0.164365 0.465405 -0.202285
C28   C     C_R   0.399743 0.800690 0.475447 -0.107932
C29   C     C_R   0.093732 0.335869 0.384618 -0.314622
C30   C     C_R   0.796800 0.634850 0.603534 0.024946
C31   C     C_R   0.900351 0.665263 0.624282 -0.253880
C32   C     C_R   0.983644 0.613456 0.586302 -0.201789
C33   C     C_R   0.963455 0.530049 0.527565 0.020611
C34   C     C_R   0.500273 0.498140 0.327034 0.895602
C35   C     C_R   0.856890 0.501285 0.509914 0.231233
C36   C     C_R   0.043684 0.474876 0.484870 -0.012762
C37   C     C_R   0.016603 0.390614 0.428132 0.198040
C38   C     C_R   0.912504 0.362222 0.414697 -0.310558
C39   C     C_R   0.833578 0.418215 0.453797 -0.208797
C40   C     C_R   0.150207 0.499709 0.495560 -0.050764
C41   C     C_R   0.197327 0.364658 0.397791 0.010748
C42   C     C_R   0.596115 0.455230 0.200569 0.047434
C43   C     C_R   0.500589 0.494177 0.230628 -0.082302
C44   C     C_R   0.404054 0.529874 0.168835 -0.295073
C45   C     C_R   0.401365 0.530157 0.075626 0.097516
C46   C     C_R   0.498786 0.495216 0.045207 -0.005568
H1    H     H_    0.701473 0.872476 0.373490 0.151578
H2    H     H_    0.772992 0.036639 0.406968 0.134598
H3    H     H_    0.458763 0.162400 0.547466 0.150572
H4    H     H_    0.245780 0.786656 0.514157 0.149859
H5    H     H_    0.318711 0.090919 0.507089 0.135255
H6    H     H_    0.193893 0.972343 0.524999 0.142168
H7    H     H_    0.567393 0.760329 0.383263 0.174316
H8    H     H_    0.258929 0.322460 0.365947 0.138877
H9    H     H_    0.891018 0.298000 0.371721 0.150788
H10   H     H_    0.074172 0.271465 0.341256 0.143169
H11   H     H_    0.331602 0.559101 0.194281 0.186618
H12   H     H_    0.179063 0.561097 0.538101 0.119740
H13   H     H_    0.731521 0.675411 0.632209 0.144111
H14   H     H_    0.062369 0.640175 0.604249 0.130759
H15   H     H_    0.915878 0.729137 0.669245 0.149396
H16   H     H_    0.753633 0.396736 0.437067 0.227449
H17   H     H_    0.230781 0.594080 0.870306 0.142657
H18   H     H_    0.328001 0.561701 0.747890 0.148034
H19   H     H_    0.670669 0.441724 0.805776 0.157427
H20   H     H_    0.767041 0.401060 0.960340 0.145122
H21   H     H_    0.768390 0.393418 0.120894 0.143478
H22   H     H_    0.745886 0.215301 0.456038 0.148204
N1    N     N_R   0.222190 0.444670 0.452360 -0.103558
N2    N     N_R   0.776970 0.554790 0.547140 -0.135182
O1    O     O_R   0.366740 0.627160 0.477250 -0.618694
O2    O     O_R   0.544830 0.662520 0.507680 -0.621544
O3    O     O_R   0.410940 0.482340 0.616930 -0.620149
O4    O     O_R   0.589030 0.517700 0.647360 -0.620957
O5    O     O_R   0.455170 0.337480 0.492320 -0.615784
O6    O     O_R   0.633260 0.372840 0.522750 -0.640232
O7    O     O_R   0.410970 0.482300 0.352640 -0.625168
O8    O     O_R   0.589060 0.517660 0.383070 -0.617060
Zn1   Zn    Zn3+2 0.381090 0.476390 0.479680 0.939006
Zn2   Zn    Zn3+2 0.618910 0.523610 0.520320 0.931377
N3    N     N_3   0.691201 0.411526 0.265055 -0.468576
H23   H     H_    0.755336 0.453219 0.261835 0.200900
H24   H     H_    0.712136 0.334972 0.248329 0.170567
N4    N     N_3   0.204403 0.600427 0.042808 -0.463655
H25   H     H_    0.176915 0.535677 0.065272 0.180884
H26   H     H_    0.143256 0.632347 0.988484 0.182905

loop_
_geom_bond_atom_site_label_1
_geom_bond_atom_site_label_2
_ccdc_geom_bond_type
C16   C28   A    
C21   C26   A    
C8    H20   S    
C12   O4    A    
C31   H15   S    
C19   C20   A    
C23   O6    A    
O1    Zn1   S    
N3    H23   S    
C7    C8    A    
C13   H19   S    
C45   C46   A    
C2    C46   A    
C4    H17   S    
C1    O1    A    
C36   C37   A    
C19   C21   A    
C16   H4    S    
C34   O7    A    
C5    C6    A    
O8    Zn2   S    
C20   C25   A    
C33   C36   A    
C18   C19   A    
C27   H22   S    
C30   N2    A    
C38   H9    S    
C35   N2    A    
C8    C9    A    
C1    C28   S    
C14   C27   A    
C15   C23   S    
O4    Zn2   S    
C21   C22   A    
C42   N3    S    
C17   H6    S    
N3    H24   S    
C18   H5    S    
O7    Zn1   S    
C38   C39   A    
C1    O2    A    
C40   H12   S    
C40   N1    A    
N2    Zn2   S    
C36   C40   A    
C24   C25   A    
C26   H3    S    
C23   O5    A    
C16   C17   A    
C15   C26   A    
C14   H2    S    
C20   C28   A    
C3    C45   A    
C35   C39   A    
C43   C44   A    
C9    H21   S    
C37   C38   A    
C15   C27   A    
C31   C32   A    
C44   H11   S    
C30   H13   S    
C17   C18   A    
O3    Zn1   S    
N4    H25   S    
C22   C24   A    
N1    Zn1   S    
C42   C43   A    
C32   H14   S    
C3    C4    A    
C44   C45   A    
C41   N1    A    
C39   H16   S    
C6    C46   A    
C29   C41   A    
C24   H1    S    
C10   H18   S    
C34   C43   S    
O6    Zn2   S    
C25   H7    S    
C4    C5    A    
C11   C12   S    
C6    C7    A    
C29   H10   S    
C32   C33   A    
C14   C22   A    
C5    C10   A    
O2    Zn2   S    
C34   O8    A    
C11   C13   A    
C30   C31   A    
C2    C42   A    
C33   C35   A    
C41   H8    S    
C10   C11   A    
C7    C13   A    
C29   C37   A    
C3    N4    S    
N4    H26   S    
C12   O3    A    
C2    C9    A    
O5    Zn1   S    
