data_mof_unit_48897.cif
_audit_creation_date              2012-12-10T19:04:14-0500
_audit_creation_method            fapswitch 2.2
_symmetry_space_group_name_H-M    P1
_symmetry_Int_Tables_number       1
_space_group_crystal_system       triclinic
_cell_length_a                    10.663438
_cell_length_b                    10.850838
_cell_length_c                    9.582366
_cell_angle_alpha                 89.572911
_cell_angle_beta                  89.111024
_cell_angle_gamma                 89.932757
_cell_volume                      1108.58423268

loop_
_atom_site_label
_atom_site_type_symbol
_atom_type_description
_atom_site_fract_x
_atom_site_fract_y
_atom_site_fract_z
_atom_type_partial_charge
C1    C     C_R   0.499083 0.262384 0.500338 0.819374
C2    C     C_3   0.962409 0.495308 0.366539 -0.236184
C3    C     C_3   0.042871 0.399520 0.443062 0.528834
C4    C     C_3   0.122170 0.502537 0.504248 -0.103283
C5    C     C_R   0.447308 0.062210 0.615082 0.051183
C6    C     C_R   0.490247 0.129065 0.498642 -0.132447
C7    C     C_R   0.513634 0.065137 0.373470 -0.212212
C8    C     C_R   0.511554 0.936588 0.372190 -0.218178
C9    C     C_R   0.485977 0.870500 0.496154 -0.138736
C10   C     C_R   0.444453 0.935579 0.613100 0.031622
C11   C     C_3   0.473080 0.922906 0.764110 0.294238
C12   C     C_R   0.259319 0.501258 0.501233 0.835217
C13   C     C_3   0.480335 0.064295 0.766500 0.288498
C14   C     C_R   0.581716 0.573004 0.071977 0.138783
C15   C     C_R   0.412085 0.437262 0.076322 -0.100631
C16   C     C_R   0.411334 0.438202 0.927634 -0.048309
C17   C     C_R   0.583518 0.570672 0.924979 0.124197
C18   C     C_3   0.724581 0.567238 0.921991 0.346510
C19   C     C_3   0.721182 0.572752 0.081105 -0.546710
C20   C     C_R   0.497373 0.737471 0.499363 0.798518
C21   C     C_R   0.740369 0.499041 0.498985 0.801789
C22   C     C_3   0.034903 0.506158 0.632996 0.019715
C23   C     C_3   0.955817 0.400519 0.572815 -0.237882
C24   C     C_3   0.876756 0.498588 0.497306 -0.032831
C25   C     C_3   0.953168 0.603809 0.559568 -0.153750
C26   C     C_3   0.041745 0.600017 0.429818 -0.266835
Cu1   Cu    Cu3+1 0.499990 0.499980 0.640670 0.984400
Cu2   Cu    Cu3+1 0.500010 0.500020 0.359330 0.933988
H1    H     H_    0.917265 0.318879 0.629144 0.132522
H2    H     H_    0.563970 0.874188 0.780530 0.006315
H3    H     H_    0.576098 0.102567 0.782686 0.000826
H4    H     H_    0.343467 0.383011 0.133681 0.160019
H5    H     H_    0.342033 0.384848 0.873564 0.182458
H6    H     H_    0.763595 0.653048 0.874463 0.070951
H7    H     H_    0.756766 0.490109 0.135442 0.215927
H8    H     H_    0.757110 0.661252 0.122221 0.157369
H9    H     H_    0.912170 0.687936 0.607369 0.120210
H10   H     H_    0.078540 0.682261 0.373119 0.148721
H11   H     H_    0.932679 0.488891 0.256993 0.148638
H12   H     H_    0.540084 0.113711 0.278380 0.150107
H13   H     H_    0.537008 0.889622 0.276469 0.152580
N1    N     N_R   0.500800 0.500930 0.147930 -0.175687
N2    N     N_R   0.500800 0.500890 0.852020 -0.180588
O1    O     O_R   0.500000 0.319640 0.618810 -0.568273
O2    O     O_R   0.500010 0.319680 0.381230 -0.587371
O3    O     O_R   0.316850 0.499950 0.618770 -0.585481
O4    O     O_R   0.316860 0.499990 0.381190 -0.580324
O5    O     O_R   0.499990 0.680320 0.618770 -0.579051
O6    O     O_R   0.500000 0.680360 0.381190 -0.585640
O7    O     O_R   0.683140 0.500010 0.618810 -0.534271
O8    O     O_R   0.683150 0.500050 0.381230 -0.600417
O9    O     O_3   0.383031 0.118935 0.846499 -0.517788
C27   C     C_3   0.423752 0.134850 0.984514 -0.285023
H14   H     H_    0.499716 0.204092 0.988325 0.133742
H15   H     H_    0.457735 0.047900 0.032070 0.150649
H16   H     H_    0.343573 0.167861 0.049171 0.180640
O10   O     O_3   0.781036 0.461164 0.859833 -0.531844
C28   C     C_3   0.754214 0.347158 0.926265 -0.265086
H17   H     H_    0.757607 0.273724 0.846393 0.157965
H18   H     H_    0.660528 0.343193 0.977030 0.153066
H19   H     H_    0.827447 0.325862 0.003918 0.141168
C29   C     C_R   0.071747 0.518076 0.782637 0.174210
C30   C     C_R   0.098410 0.634760 0.837028 -0.113871
C31   C     C_R   0.124654 0.647553 0.978340 -0.151169
C32   C     C_R   0.127985 0.543889 0.065033 -0.134416
C33   C     C_R   0.101375 0.427447 0.011894 -0.191183
C34   C     C_R   0.073686 0.414294 0.870892 -0.091861
H20   H     H_    0.097283 0.715948 0.770653 0.136998
H21   H     H_    0.142915 0.737749 0.020607 0.138535
H22   H     H_    0.153292 0.553615 0.172846 0.165518
H23   H     H_    0.104061 0.347201 0.079451 0.159173
H24   H     H_    0.053883 0.323407 0.831102 0.127361
O11   O     O_3   0.098737 0.294590 0.382059 -0.583187
C35   C     C_3   0.004189 0.213713 0.338229 -0.363310
H25   H     H_    0.941409 0.258470 0.261220 0.144580
H26   H     H_    0.948723 0.177346 0.428664 0.161992
H27   H     H_    0.049394 0.133988 0.285857 0.194120
O12   O     O_3   0.366418 0.875837 0.836238 -0.520104
C36   C     C_3   0.399557 0.818166 0.963065 -0.261063
H28   H     H_    0.498248 0.832733 0.995783 0.096376
H29   H     H_    0.381288 0.718192 0.954751 0.187056
H30   H     H_    0.337798 0.854028 0.047690 0.168339

loop_
_geom_bond_atom_site_label_1
_geom_bond_atom_site_label_2
_ccdc_geom_bond_type
Cu1   O5    S    
Cu2   O4    S    
O11   C35   S    
C3    C23   S    
C7    C8    A    
C27   H14   S    
C29   C30   A    
C35   H26   S    
C29   C34   A    
C23   H1    S    
C34   H24   S    
C19   H8    S    
C5    C6    A    
Cu2   O8    S    
C28   H18   S    
C15   C16   A    
C18   C19   S    
C1    O1    A    
C25   H9    S    
Cu1   O1    S    
C11   H2    S    
C8    C9    A    
C35   H27   S    
C7    H12   S    
C4    C12   S    
C9    C10   A    
C5    C13   S    
Cu1   O7    S    
C14   N1    A    
C28   H19   S    
C33   C34   A    
C14   C17   A    
C12   O4    A    
C2    H11   S    
C21   O7    A    
C27   H15   S    
C9    C20   S    
Cu2   O2    S    
C35   H25   S    
C1    C6    S    
C15   H4    S    
C8    H13   S    
C12   O3    A    
C36   H29   S    
O12   C36   S    
C26   H10   S    
C25   C26   S    
C22   C25   S    
C30   C31   A    
C17   N2    A    
C20   O6    A    
C11   O12   S    
C16   H5    S    
C22   C29   S    
C13   O9    S    
C4    C22   S    
Cu2   O6    S    
C18   O10   S    
C33   H23   S    
C23   C24   S    
C17   C18   S    
C2    C26   S    
C31   H21   S    
C24   C25   S    
C18   H6    S    
C16   N2    A    
C20   O5    A    
Cu1   O3    S    
C2    C24   S    
C3    C4    S    
C21   O8    A    
O9    C27   S    
C27   H16   S    
C30   H20   S    
C14   C19   S    
C13   H3    S    
C15   N1    A    
C36   H30   S    
C4    C26   S    
C6    C7    A    
C31   C32   A    
C2    C3    S    
C28   H17   S    
C5    C10   A    
C19   H7    S    
C11   C13   S    
C1    O2    A    
O10   C28   S    
Cu2   N1    S    
C3    O11   S    
C10   C11   S    
C36   H28   S    
Cu1   N2    S    
C32   C33   A    
C21   C24   S    
Cu1   Cu2   S    
C22   C23   S    
C32   H22   S    
