data_mof_unit_26187.cif
_audit_creation_date              2012-12-10T18:43:48-0500
_audit_creation_method            fapswitch 2.2
_symmetry_space_group_name_H-M    P1
_symmetry_Int_Tables_number       1
_space_group_crystal_system       triclinic
_cell_length_a                    10.954053
_cell_length_b                    10.731897
_cell_length_c                    9.85204
_cell_angle_alpha                 90.406056
_cell_angle_beta                  102.226147
_cell_angle_gamma                 91.01481
_cell_volume                      1131.66833229

loop_
_atom_site_label
_atom_site_type_symbol
_atom_type_description
_atom_site_fract_x
_atom_site_fract_y
_atom_site_fract_z
_atom_type_partial_charge
C1    C     C_R   0.507906 0.260346 0.501958 0.905612
C2    C     C_R   0.503323 0.740322 0.499603 0.807317
C3    C     C_R   0.261616 0.519678 0.444723 0.832060
C4    C     C_R   0.740182 0.515436 0.557751 0.807551
C5    C     C_R   0.603384 0.465143 0.095990 -0.050581
C6    C     C_R   0.396349 0.531012 0.904699 -0.096976
C7    C     C_R   0.602655 0.463446 0.952092 -0.098519
C8    C     C_R   0.395866 0.530535 0.047627 -0.082123
C9    C     C_2   0.134631 0.577063 0.417324 0.171776
C10   C     C_2   0.873821 0.559150 0.598121 0.179142
C11   C     C_2   0.074983 0.597243 0.523737 0.325993
C12   C     C_2   0.934620 0.601213 0.500384 0.348819
C13   C     C_R   0.512055 0.066301 0.378071 -0.275512
C14   C     C_R   0.536716 0.935261 0.625092 -0.264056
C15   C     C_R   0.520496 0.938778 0.372930 0.195472
C16   C     C_R   0.550804 0.062846 0.632022 0.166628
C17   C     C_R   0.515398 0.873221 0.497088 -0.108522
C18   C     C_R   0.522991 0.128355 0.505505 -0.115576
H1    H     H_    0.685952 0.436589 0.169213 0.152769
H2    H     H_    0.313157 0.553357 0.832691 0.206880
H3    H     H_    0.683302 0.430256 0.917091 0.129570
H4    H     H_    0.311716 0.552955 0.081465 0.129897
H5    H     H_    0.505147 0.117458 0.282275 0.178395
H6    H     H_    0.548748 0.884081 0.721309 0.172864
N1    N     N_R   0.499970 0.499970 0.857200 -0.083858
N2    N     N_R   0.500030 0.500030 0.142800 -0.078360
O1    O     O_R   0.499990 0.316750 0.614620 -0.605134
O2    O     O_R   0.500010 0.683250 0.385380 -0.621507
O3    O     O_R   0.499990 0.316780 0.385290 -0.618389
O4    O     O_R   0.500010 0.683220 0.614710 -0.644621
O5    O     O_R   0.317810 0.500000 0.571850 -0.572065
O6    O     O_R   0.682190 0.500000 0.428150 -0.586762
O7    O     O_R   0.317810 0.500030 0.342520 -0.616088
O8    O     O_R   0.682190 0.499970 0.657480 -0.644883
Zn1   Zn    Zn3+2 0.500000 0.499980 0.653120 0.939204
Zn2   Zn    Zn3+2 0.500000 0.500020 0.346880 0.955725
O9    O     O_3   0.865304 0.657709 0.383914 -0.625765
C19   C     C_3   0.887749 0.788572 0.396585 0.074612
H7    H     H_    0.848264 0.830125 0.294432 0.165143
H8    H     H_    0.988215 0.811678 0.425663 0.142714
C20   C     C_3   0.827842 0.851494 0.505147 -0.448901
H9    H     H_    0.731704 0.818016 0.491001 0.227275
H10   H     H_    0.873478 0.825131 0.610519 0.205072
C21   C     C_3   0.836652 0.993399 0.497643 -0.921138
H11   H     H_    0.935884 0.024712 0.515151 0.254966
H12   H     H_    0.794584 0.035891 0.579399 0.271712
H13   H     H_    0.787134 0.026895 0.394923 0.260425
O10   O     O_3   0.144241 0.600782 0.658674 -0.631019
C22   C     C_3   0.148890 0.724238 0.712324 0.097614
H14   H     H_    0.164397 0.719460 0.827280 0.152619
H15   H     H_    0.060464 0.772435 0.677053 0.142507
C23   C     C_3   0.254129 0.803576 0.675242 -0.388250
H16   H     H_    0.344664 0.774146 0.739130 0.242089
H17   H     H_    0.255471 0.791600 0.563666 0.209531
C24   C     C_3   0.236018 0.941356 0.704000 -0.982009
H18   H     H_    0.143328 0.971917 0.646355 0.262687
H19   H     H_    0.307755 0.998873 0.668538 0.292971
H20   H     H_    0.243424 0.957816 0.816900 0.266351
O11   O     O_3   0.930347 0.579559 0.738709 -0.633077
C25   C     C_3   0.851315 0.648752 0.808865 0.117825
H21   H     H_    0.811630 0.583872 0.875625 0.186754
H22   H     H_    0.773526 0.695625 0.737089 0.132344
C26   C     C_3   0.919813 0.752035 0.903526 -0.384006
H23   H     H_    0.992479 0.710281 0.984447 0.253652
H24   H     H_    0.964330 0.819958 0.844519 0.205577
C27   C     C_3   0.827075 0.822954 0.970465 -0.965671
H25   H     H_    0.795661 0.764026 0.049272 0.279747
H26   H     H_    0.743959 0.849476 0.891291 0.253846
H27   H     H_    0.870735 0.910607 0.019889 0.260035
O12   O     O_3   0.083005 0.623785 0.286365 -0.625459
C28   C     C_3   0.165862 0.712272 0.242492 0.096543
H28   H     H_    0.176166 0.683486 0.137667 0.150558
H29   H     H_    0.261130 0.719205 0.308996 0.125229
C29   C     C_3   0.113713 0.844234 0.235537 -0.408437
H30   H     H_    0.012353 0.837910 0.196611 0.255622
H31   H     H_    0.135085 0.887493 0.340752 0.205149
C30   C     C_3   0.167095 0.931828 0.140883 -0.961341
H32   H     H_    0.175309 0.884573 0.042709 0.257350
H33   H     H_    0.258840 0.969225 0.197191 0.287255
H34   H     H_    0.104549 0.012370 0.114401 0.269574
C31   C     C_3   0.562675 0.884901 0.245835 -0.355695
C32   C     C_3   0.456824 0.855766 0.122175 -0.888961
H35   H     H_    0.495000 0.810611 0.038628 0.250008
H36   H     H_    0.387681 0.790998 0.151964 0.275870
H37   H     H_    0.411968 0.943134 0.080067 0.250890
H38   H     H_    0.626422 0.953152 0.210233 0.184098
H39   H     H_    0.620775 0.801593 0.270055 0.245613
C33   C     C_3   0.607007 0.120818 0.773289 -0.392781
C34   C     C_3   0.510249 0.134600 0.863064 -0.828915
H40   H     H_    0.554612 0.179544 0.963707 0.240613
H41   H     H_    0.431563 0.192580 0.810782 0.285530
H42   H     H_    0.473541 0.041484 0.884484 0.250161
H43   H     H_    0.682417 0.060413 0.828750 0.191018
H44   H     H_    0.655466 0.211064 0.764895 0.220136

loop_
_geom_bond_atom_site_label_1
_geom_bond_atom_site_label_2
_ccdc_geom_bond_type
C27   H26   S    
C24   H18   S    
C26   H24   S    
C8    N2    A    
C20   H9    S    
C31   C32   S    
C15   C31   S    
C30   H32   S    
C21   H11   S    
O3    Zn2   S    
C1    C18   S    
C29   H31   S    
C13   C18   A    
C25   C26   S    
O6    Zn2   S    
C19   H7    S    
C27   H27   S    
C3    O7    A    
O7    Zn2   S    
C13   H5    S    
C25   H22   S    
O8    Zn1   S    
C14   H6    S    
C12   O9    S    
C21   H12   S    
C22   H15   S    
C29   C30   S    
C8    H4    S    
O12   C28   S    
C34   H41   S    
C31   H38   S    
C21   H13   S    
C1    O1    A    
C27   H25   S    
C26   C27   S    
O11   C25   S    
C2    C17   S    
C20   H10   S    
C14   C17   A    
C11   O10   S    
C23   H17   S    
C33   H44   S    
C30   H33   S    
C4    O8    A    
C29   H30   S    
C9    O12   S    
C19   C20   S    
C28   H29   S    
C6    C8    A    
O1    Zn1   S    
C7    H3    S    
C26   H23   S    
C25   H21   S    
O9    C19   S    
C3    C9    S    
C22   C23   S    
C1    O3    A    
C31   H39   S    
C34   H42   S    
C3    O5    A    
C9    C11   D    
C4    O6    A    
C10   C12   D    
N1    Zn1   S    
O4    Zn1   S    
N2    Zn2   S    
O10   C22   S    
C32   H35   S    
C32   H36   S    
C24   H19   S    
C20   C21   S    
C14   C16   A    
C4    C10   S    
C23   H16   S    
C5    C7    A    
C30   H34   S    
C15   C17   A    
C33   H43   S    
C28   C29   S    
C11   C12   S    
C23   C24   S    
C5    H1    S    
C32   H37   S    
C6    H2    S    
C7    N1    A    
C2    O4    A    
C13   C15   A    
C10   O11   S    
C28   H28   S    
C19   H8    S    
O5    Zn1   S    
C5    N2    A    
C6    N1    A    
C33   C34   S    
O2    Zn2   S    
C16   C18   A    
C22   H14   S    
C24   H20   S    
C16   C33   S    
C2    O2    A    
C34   H40   S    
