data_mof_unit_42226.cif
_audit_creation_date              2012-12-10T18:12:37-0500
_audit_creation_method            fapswitch 2.2
_symmetry_space_group_name_H-M    P1
_symmetry_Int_Tables_number       1
_space_group_crystal_system       triclinic
_cell_length_a                    12.663399
_cell_length_b                    13.054642
_cell_length_c                    15.710452
_cell_angle_alpha                 91.408619
_cell_angle_beta                  102.279765
_cell_angle_gamma                 81.695267
_cell_volume                      2511.10750455

loop_
_atom_site_label
_atom_site_type_symbol
_atom_type_description
_atom_site_fract_x
_atom_site_fract_y
_atom_site_fract_z
_atom_type_partial_charge
C1    C     C_R   0.438122 0.691869 0.489746 0.872175
C2    C     C_3   0.501037 0.500584 0.916425 -0.102596
C3    C     C_3   0.423400 0.443149 0.012612 0.364632
C4    C     C_3   0.496903 0.500544 0.083059 -0.097207
C5    C     C_3   0.524259 0.403259 0.974319 0.383685
C6    C     C_3   0.599016 0.459148 0.046176 -0.283024
C7    C     C_1   0.502649 0.500871 0.825874 0.047723
C8    C     C_1   0.496176 0.500272 0.173784 0.057373
C9    C     C_R   0.700730 0.058845 0.437397 -0.170293
C10   C     C_R   0.596857 0.198298 0.501283 -0.051440
C11   C     C_R   0.301473 0.846007 0.512081 0.135486
C12   C     C_R   0.500806 0.500393 0.661539 0.890619
C13   C     C_R   0.271769 0.953279 0.511638 0.435965
C14   C     C_R   0.342456 0.017527 0.493857 -0.283010
C15   C     C_R   0.442993 0.975869 0.473019 0.023380
C16   C     C_R   0.461207 0.870277 0.453659 -0.007060
C17   C     C_R   0.526567 0.035957 0.472079 0.086550
C18   C     C_R   0.617661 0.996791 0.435482 0.084529
C19   C     C_R   0.622826 0.896698 0.399158 0.163002
C20   C     C_R   0.545198 0.834490 0.409156 -0.182565
C21   C     C_R   0.523186 0.133102 0.510580 -0.201723
C22   C     C_R   0.688786 0.160323 0.468178 -0.178212
C23   C     C_R   0.561217 0.308440 0.508721 0.863853
C24   C     C_R   0.396786 0.803187 0.481549 -0.227611
C25   C     C_R   0.082147 0.381222 0.349559 0.331015
C26   C     C_R   0.801254 0.629539 0.604670 0.246862
C27   C     C_R   0.903440 0.663428 0.618513 0.304494
C28   C     C_R   0.978404 0.619384 0.570851 -0.247062
C29   C     C_R   0.957882 0.534148 0.516110 -0.013993
C30   C     C_R   0.852078 0.507024 0.499403 0.129106
C31   C     C_R   0.037725 0.478603 0.474765 -0.078687
C32   C     C_R   0.004953 0.416136 0.401230 -0.003988
C33   C     C_R   0.897549 0.390535 0.384085 0.180785
C34   C     C_R   0.499101 0.499854 0.338407 0.875407
C35   C     C_R   0.825208 0.432039 0.436320 -0.245448
C36   C     C_R   0.150111 0.481191 0.505828 0.255389
C37   C     C_R   0.190012 0.398049 0.378336 -0.094981
C38   C     C_3   0.473837 0.598024 0.025022 0.144661
C39   C     C_3   0.573897 0.556817 0.987602 0.171777
C40   C     C_1   0.502537 0.500867 0.750621 -0.166672
C41   C     C_1   0.496983 0.499997 0.249195 -0.157389
C42   C     C_3   0.400898 0.540744 0.954838 0.071150
H1    H     H_    0.460518 0.162084 0.545698 0.156368
H2    H     H_    0.316593 0.099919 0.496048 0.181922
H3    H     H_    0.550859 0.757877 0.381022 0.176522
H4    H     H_    0.249039 0.374411 0.338452 0.201470
H5    H     H_    0.051176 0.655011 0.575960 0.199714
H6    H     H_    0.748231 0.404079 0.426139 0.204019
H7    H     H_    0.679665 0.425199 0.085259 0.200834
H8    H     H_    0.748387 0.210136 0.463001 0.159101
H9    H     H_    0.773691 0.030804 0.413744 0.156861
N1    N     N_R   0.222180 0.444680 0.455580 -0.151888
N2    N     N_R   0.776980 0.554790 0.543960 -0.155340
O1    O     O_R   0.366730 0.627160 0.478790 -0.622414
O2    O     O_R   0.544830 0.662520 0.507160 -0.592324
O3    O     O_R   0.410960 0.482330 0.609040 -0.624495
O4    O     O_R   0.589060 0.517690 0.637410 -0.582841
O5    O     O_R   0.455170 0.337480 0.492840 -0.605322
O6    O     O_R   0.633270 0.372840 0.521210 -0.622451
O7    O     O_R   0.410940 0.482310 0.362590 -0.597173
O8    O     O_R   0.589040 0.517670 0.390960 -0.643568
Zn1   Zn    Zn3+2 0.381080 0.476390 0.481050 0.944645
Zn2   Zn    Zn3+2 0.618920 0.523610 0.518950 0.949169
N3    N     N_2   0.655192 0.615797 0.969738 -0.279393
H10   H     H_    0.624482 0.671923 0.922444 0.227607
C43   C     C_3   0.727104 0.650692 0.045604 -0.699744
H11   H     H_    0.788606 0.691284 0.024669 0.247221
H12   H     H_    0.771077 0.583735 0.087131 0.257087
H13   H     H_    0.680190 0.704977 0.084129 0.228055
N4    N     N_2   0.238515 0.784832 0.549404 -0.265345
H14   H     H_    0.211301 0.723418 0.513297 0.241052
C44   C     C_3   0.276977 0.765630 0.641930 -0.710455
H15   H     H_    0.355096 0.711876 0.654378 0.195037
H16   H     H_    0.215195 0.730957 0.667928 0.251569
H17   H     H_    0.289425 0.839269 0.677112 0.273348
Cl1   Cl    Cl    0.149157 0.009395 0.540341 -0.585343
N5    N     N_2   0.862604 0.318023 0.318687 -0.260156
H18   H     H_    0.781666 0.334352 0.287292 0.225972
C45   C     C_3   0.896168 0.209665 0.342659 -0.642135
H19   H     H_    0.946199 0.171629 0.297718 0.290754
H20   H     H_    0.823330 0.169677 0.336107 0.195732
H21   H     H_    0.944749 0.199349 0.410598 0.249315
Cl2   Cl    Cl    0.048922 0.329633 0.244005 -0.558510
N6    N     N_2   0.188748 0.512509 0.592362 -0.328137
H22   H     H_    0.240917 0.566642 0.600096 0.251930
C46   C     C_3   0.209406 0.432170 0.657991 -0.621486
H23   H     H_    0.237356 0.465466 0.723244 0.242239
H24   H     H_    0.273263 0.369368 0.645373 0.252915
H25   H     H_    0.133270 0.399210 0.657962 0.244192
N7    N     N_2   0.723438 0.670452 0.654394 -0.253245
H26   H     H_    0.745544 0.648767 0.719142 0.236642
C47   C     C_3   0.678866 0.779009 0.641205 -0.625590
H27   H     H_    0.590547 0.789184 0.641912 0.220305
H28   H     H_    0.688992 0.808254 0.578030 0.243711
H29   H     H_    0.719305 0.826167 0.694803 0.259129
N8    N     N_2   0.446400 0.701219 0.057353 -0.297638
H30   H     H_    0.493157 0.715017 0.117577 0.234766
C48   C     C_3   0.433532 0.785302 0.996130 -0.735161
H31   H     H_    0.391476 0.856216 0.021648 0.263045
H32   H     H_    0.383654 0.767422 0.931986 0.243625
H33   H     H_    0.514373 0.801204 0.987693 0.238567
Cl3   Cl    Cl    0.941041 0.759880 0.694623 -0.612946
Cl4   Cl    Cl    0.557941 0.274608 0.938309 -0.510175
Cl5   Cl    Cl    0.326822 0.364631 0.032154 -0.504161
N9    N     N_2   0.296015 0.581758 0.901266 -0.291816
H34   H     H_    0.301475 0.630543 0.852273 0.222889
C49   C     C_3   0.211574 0.620791 0.947624 -0.611012
H35   H     H_    0.132695 0.639479 0.900311 0.251726
H36   H     H_    0.231135 0.692241 0.983510 0.242562
H37   H     H_    0.201975 0.562011 0.994106 0.276762
N10   N     N_2   0.704458 0.856582 0.352421 -0.312777
H38   H     H_    0.730957 0.909884 0.317552 0.232080
C50   C     C_3   0.791438 0.782643 0.400471 -0.749080
H39   H     H_    0.848755 0.752863 0.358086 0.245348
H40   H     H_    0.757688 0.716023 0.421615 0.249296
H41   H     H_    0.837056 0.820025 0.458370 0.260361

loop_
_geom_bond_atom_site_label_1
_geom_bond_atom_site_label_2
_ccdc_geom_bond_type
C3    Cl5   S    
O5    Zn1   S    
C23   O5    A    
C43   H12   S    
C5    Cl4   S    
C28   H5    S    
C11   C13   A    
C19   C20   A    
C9    H9    S    
C4    C8    S    
C11   N4    S    
C3    C42   S    
N5    H18   S    
C10   C22   A    
C23   O6    A    
C39   N3    S    
N9    C49   S    
C26   C27   A    
C30   C35   A    
C28   C29   A    
N6    C46   S    
C38   C42   S    
C31   C36   A    
C5    C6    S    
C46   H24   S    
C9    C22   A    
C43   H13   S    
C15   C16   A    
C11   C24   A    
O7    Zn1   S    
C18   C19   A    
O8    Zn2   S    
C25   C37   A    
C21   H1    S    
C2    C39   S    
C2    C7    S    
N8    C48   S    
C7    C40   T    
N4    H14   S    
C20   H3    S    
C36   N1    A    
C16   C20   A    
C22   H8    S    
C50   H41   S    
C25   C32   A    
C43   H11   S    
C16   C24   A    
C13   C14   A    
C34   O7    A    
C49   H36   S    
C34   C41   S    
C44   H17   S    
C35   H6    S    
O4    Zn2   S    
N5    C45   S    
C10   C21   A    
C30   N2    A    
N6    H22   S    
C44   H16   S    
C45   H20   S    
C37   N1    A    
C46   H23   S    
O1    Zn1   S    
C34   O8    A    
C17   C21   A    
O2    Zn2   S    
N3    C43   S    
C12   C40   S    
C1    O1    A    
C29   C30   A    
N7    C47   S    
C31   C32   A    
C13   Cl1   S    
C49   H35   S    
N8    H30   S    
C47   H28   S    
C17   C18   A    
N10   C50   S    
C8    C41   T    
C12   O3    A    
C12   O4    A    
C4    C6    S    
C4    C38   S    
C48   H32   S    
C49   H37   S    
O3    Zn1   S    
C2    C5    S    
C3    C4    S    
C26   N2    A    
C14   H2    S    
C50   H39   S    
C15   C17   A    
N10   H38   S    
C14   C15   A    
C36   N6    S    
C44   H15   S    
C3    C5    S    
C46   H25   S    
C45   H21   S    
C19   N10   S    
C10   C23   S    
C26   N7    S    
C48   H33   S    
N9    H34   S    
C27   Cl3   S    
O6    Zn2   S    
C32   C33   A    
C1    O2    A    
C29   C31   A    
N1    Zn1   S    
N3    H10   S    
N2    Zn2   S    
C33   N5    S    
N7    H26   S    
C38   C39   S    
C2    C42   S    
C47   H27   S    
C33   C35   A    
C47   H29   S    
C6    H7    S    
C42   N9    S    
C45   H19   S    
C9    C18   A    
C1    C24   S    
C48   H31   S    
C38   N8    S    
C27   C28   A    
C25   Cl2   S    
C6    C39   S    
N4    C44   S    
C37   H4    S    
C50   H40   S    
