data_mof_unit_60492.cif
_audit_creation_date              2012-12-10T17:04:15-0500
_audit_creation_method            fapswitch 2.2
_symmetry_space_group_name_H-M    P1
_symmetry_Int_Tables_number       1
_space_group_crystal_system       triclinic
_cell_length_a                    15.145596
_cell_length_b                    15.123977
_cell_length_c                    16.020583
_cell_angle_alpha                 89.571691
_cell_angle_beta                  90.18577
_cell_angle_gamma                 90.174647
_cell_volume                      3669.56250378

loop_
_atom_site_label
_atom_site_type_symbol
_atom_type_description
_atom_site_fract_x
_atom_site_fract_y
_atom_site_fract_z
_atom_type_partial_charge
C1    C     C_R   0.259841 0.485271 0.488416 0.500894
C2    C     C_R   0.978955 0.459318 0.488256 0.013768
C3    C     C_R   0.019280 0.538329 0.517294 0.014795
C4    C     C_R   0.739470 0.515572 0.512874 0.534126
C5    C     C_R   0.111544 0.545230 0.517376 -0.112160
C6    C     C_R   0.123742 0.400435 0.455412 -0.128979
C7    C     C_R   0.032465 0.391289 0.456805 -0.127860
C8    C     C_R   0.524059 0.163953 0.512853 -0.037788
C9    C     C_R   0.479230 0.835422 0.481839 0.002397
C10   C     C_R   0.384683 0.965101 0.473013 0.152999
C11   C     C_R   0.395971 0.873165 0.470444 -0.155915
C12   C     C_1   0.478191 0.519781 0.886747 -0.036968
C13   C     C_R   0.553165 0.888188 0.496868 0.398833
C14   C     C_R   0.543743 0.980078 0.502749 -0.029625
C15   C     C_R   0.459301 0.018898 0.489575 -0.068427
C16   C     C_R   0.513900 0.259912 0.512545 0.541516
C17   C     C_R   0.451418 0.111077 0.492883 -0.197136
C18   C     C_R   0.606430 0.125249 0.528741 0.390459
C19   C     C_R   0.616612 0.034077 0.522757 0.446886
C20   C     C_R   0.486403 0.739737 0.486308 0.542849
C21   C     C_R   0.512835 0.488526 0.277306 0.499916
C22   C     C_R   0.487318 0.511339 0.722706 0.500829
C23   C     C_1   0.522506 0.479707 0.113313 -0.039075
C24   C     C_1   0.518159 0.483665 0.188227 0.020627
C25   C     C_2   0.527346 0.475294 0.023783 -0.116900
C26   C     C_2   0.473443 0.524174 0.976282 -0.117737
C27   C     C_3   0.228611 0.954591 0.424029 -0.299068
C28   C     C_3   0.022851 0.752748 0.505581 -0.289792
C29   C     C_3   0.795151 0.666296 0.660216 -0.284154
C30   C     C_3   0.819984 0.369575 0.375767 -0.283873
C31   C     C_1   0.482335 0.515940 0.811817 0.024013
C32   C     C_R   0.163660 0.476952 0.486437 0.013119
C33   C     C_R   0.835144 0.522423 0.517166 0.045028
C34   C     C_R   0.967176 0.609109 0.545791 0.155039
C35   C     C_R   0.874867 0.600946 0.546001 0.097947
C36   C     C_R   0.886252 0.451174 0.489506 0.097736
F1    F     F_    0.678077 0.176016 0.546597 -0.571585
F2    F     F_    0.697945 0.999227 0.536600 -0.521915
F3    F     F_    0.632817 0.849048 0.509889 -0.570568
H1    H     H_    0.425303 0.567865 0.004402 0.139421
H2    H     H_    0.204179 0.902056 0.467007 0.133024
H3    H     H_    0.251666 0.925224 0.364618 0.159851
H4    H     H_    0.978754 0.717918 0.623552 0.283013
H5    H     H_    0.059444 0.810654 0.530384 0.144826
H6    H     H_    0.958895 0.775782 0.479203 0.188853
H7    H     H_    0.062978 0.722805 0.455266 0.141169
H8    H     H_    0.771733 0.690404 0.534435 0.305623
H9    H     H_    0.761562 0.728309 0.678547 0.185117
H10   H     H_    0.853183 0.656453 0.701813 0.150815
H11   H     H_    0.748356 0.610237 0.668571 0.142564
H12   H     H_    0.339977 0.829733 0.460942 0.124987
H13   H     H_    0.870560 0.314200 0.485574 0.278512
H14   H     H_    0.880530 0.369926 0.336820 0.133249
H15   H     H_    0.778377 0.427270 0.358509 0.162439
H16   H     H_    0.781830 0.308391 0.362716 0.167644
H17   H     H_    0.575489 0.431596 0.995680 0.142970
H18   H     H_    0.143522 0.604143 0.541012 0.167648
H19   H     H_    0.163209 0.346848 0.431213 0.140575
H20   H     H_    0.004845 0.330838 0.432225 0.123199
H21   H     H_    0.388724 0.142798 0.480283 0.168954
H22   H     H_    0.279276 0.042251 0.512827 0.251584
H23   H     H_    0.172925 0.999758 0.409430 0.153511
N1    N     N_2   0.299172 0.004204 0.463192 -0.508504
N2    N     N_2   0.007721 0.689481 0.572227 -0.516461
N3    N     N_2   0.822692 0.673123 0.574033 -0.503364
N4    N     N_2   0.842952 0.372038 0.463444 -0.483619
O1    O     O_3   0.500000 0.500000 0.500000 -0.455507
O2    O     O_R   0.461330 0.435620 0.316920 -0.534428
O3    O     O_R   0.434750 0.558200 0.677930 -0.532933
O4    O     O_R   0.559650 0.545720 0.316320 -0.539149
O5    O     O_R   0.544270 0.460460 0.688830 -0.539748
O6    O     O_R   0.559890 0.307360 0.561630 -0.470471
O7    O     O_R   0.434610 0.697530 0.534530 -0.552536
O8    O     O_R   0.307380 0.433810 0.444990 -0.545110
O9    O     O_R   0.698130 0.561300 0.458860 -0.552312
O10   O     O_R   0.296270 0.542620 0.535390 -0.549002
O11   O     O_R   0.698230 0.462280 0.560770 -0.505387
O12   O     O_R   0.461480 0.296280 0.460320 -0.555366
O13   O     O_R   0.544020 0.698820 0.443520 -0.493926
Zn1   Zn    Zn3+2 0.574310 0.433680 0.576480 0.996500
Zn2   Zn    Zn3+2 0.433700 0.417860 0.431740 0.940306
Zn3   Zn    Zn3+2 0.574160 0.575160 0.430870 0.966527
Zn4   Zn    Zn3+2 0.417840 0.573310 0.560900 0.940690

loop_
_geom_bond_atom_site_label_1
_geom_bond_atom_site_label_2
_ccdc_geom_bond_type
C6    C32   A    
O1    Zn4   S    
C6    H19   S    
C10   N1    S    
C16   O6    A    
C25   H17   S    
C29   H10   S    
C30   H15   S    
C28   H7    S    
O2    Zn2   S    
C27   H23   S    
C18   F1    S    
C18   C19   A    
C10   C15   A    
C36   N4    S    
C35   N3    S    
C33   C36   A    
C34   C35   A    
H22   N1    S    
C9    C13   A    
C4    O9    A    
C2    C7    A    
C23   C24   T    
C22   O3    A    
O12   Zn2   S    
C5    C32   A    
C8    C16   S    
C13   C14   A    
O10   Zn4   S    
C7    H20   S    
O5    Zn1   S    
H4    N2    S    
C29   H11   S    
C30   H14   S    
C28   H6    S    
C22   C31   S    
C29   H9    S    
C3    C34   A    
C25   C26   D    
C28   H5    S    
C1    C32   S    
C8    C18   A    
C12   C26   S    
O3    Zn4   S    
C19   F2    S    
C27   H2    S    
C9    C20   S    
C34   N2    S    
C9    C11   A    
C30   N4    S    
C27   N1    S    
C29   N3    S    
C28   N2    S    
O1    Zn2   S    
C12   C31   T    
C1    O8    A    
O8    Zn2   S    
C22   O5    A    
H13   N4    S    
O11   Zn1   S    
C2    C36   A    
C15   C17   A    
C4    C33   S    
C20   O13   A    
C1    O10   A    
C14   C19   A    
O1    Zn1   S    
C3    C5    A    
O13   Zn3   S    
O9    Zn3   S    
C6    C7    A    
C30   H16   S    
C8    C17   A    
C5    H18   S    
C21   O4    A    
C2    C3    A    
C4    O11   A    
C21   O2    A    
C27   H3    S    
C26   H1    S    
C33   C35   A    
H8    N3    S    
C20   O7    A    
C16   O12   A    
C23   C25   S    
O4    Zn3   S    
C13   F3    S    
C11   H12   S    
C10   C11   A    
C17   H21   S    
O1    Zn3   S    
O6    Zn1   S    
C21   C24   S    
C14   C15   A    
O7    Zn4   S    
