data_mof_unit_50614.cif
_audit_creation_date              2012-10-26T20:20:40-0400
_audit_creation_method            fapswitch 2.2
_symmetry_space_group_name_H-M    P1
_symmetry_Int_Tables_number       1
_space_group_crystal_system       triclinic
_cell_length_a                    8.715731
_cell_length_b                    10.752455
_cell_length_c                    9.636294
_cell_angle_alpha                 89.637435
_cell_angle_beta                  97.756467
_cell_angle_gamma                 92.142469
_cell_volume                      894.181417481

loop_
_atom_site_label
_atom_site_type_symbol
_atom_type_description
_atom_site_fract_x
_atom_site_fract_y
_atom_site_fract_z
_atom_type_partial_charge
C1    C     C_R   0.502534 0.262855 0.500567 0.512582
C2    C     C_R   0.382094 0.063399 0.550607 -0.095721
C3    C     C_R   0.494629 0.871082 0.498642 -0.036051
C4    C     C_R   0.505372 0.128918 0.501358 -0.036050
C5    C     C_R   0.394757 0.427168 0.062121 0.116088
C6    C     C_R   0.605243 0.572832 0.937879 0.116090
C7    C     C_R   0.395047 0.426805 0.913679 0.112711
C8    C     C_R   0.604953 0.573194 0.086321 0.112712
C9    C     C_2   0.761532 0.134148 0.403705 0.267895
C10   C     C_2   0.238470 0.865852 0.596298 0.267904
C11   C     C_2   0.283097 0.344342 0.123718 0.322849
C12   C     C_R   0.497466 0.737145 0.499433 0.512581
C13   C     C_2   0.716901 0.655659 0.876282 0.322850
C14   C     C_2   0.285549 0.341231 0.827464 0.294494
C15   C     C_2   0.714452 0.658768 0.172535 0.294492
C16   C     C_R   0.204172 0.498306 0.464147 0.549650
C17   C     C_R   0.795828 0.501694 0.535853 0.549650
C18   C     C_2   0.038062 0.492537 0.445193 -0.116816
C19   C     C_2   0.961938 0.507463 0.554807 -0.116815
C20   C     C_R   0.625580 0.066259 0.450480 0.001248
C21   C     C_R   0.374421 0.933741 0.549521 0.001247
C22   C     C_R   0.617907 0.936601 0.449394 -0.095721
Cu1   Cu    Cu3+1 0.500000 0.500020 0.640660 0.993413
Cu2   Cu    Cu3+1 0.500000 0.499980 0.359340 0.993408
H1    H     H_    0.978231 0.473557 0.340810 0.208903
H2    H     H_    0.672821 0.738280 0.221920 0.113374
H3    H     H_    0.021769 0.526443 0.659189 0.208904
H4    H     H_    0.710298 0.885793 0.413720 0.168855
H5    H     H_    0.289702 0.114207 0.586280 0.168856
H6    H     H_    0.776096 0.234299 0.414597 0.130959
H7    H     H_    0.223897 0.765702 0.585390 0.130953
H8    H     H_    0.320840 0.259373 0.176366 0.108811
H9    H     H_    0.679158 0.740629 0.823636 0.108811
H10   H     H_    0.327182 0.261716 0.778084 0.113372
N1    N     N_R   0.500040 0.500030 0.852080 -0.289276
N2    N     N_R   0.499960 0.499970 0.147920 -0.289277
O1    O     O_R   0.499990 0.319660 0.618740 -0.517892
O2    O     O_2   0.139668 0.921389 0.646948 -0.472601
O3    O     O_2   0.146205 0.368631 0.111225 -0.419655
O4    O     O_2   0.853793 0.631371 0.888773 -0.419654
O5    O     O_2   0.146251 0.355226 0.817630 -0.459566
O6    O     O_2   0.853749 0.644772 0.182369 -0.459569
O7    O     O_R   0.500010 0.680340 0.381260 -0.517894
O8    O     O_R   0.499990 0.319630 0.381170 -0.537506
O9    O     O_R   0.500010 0.680370 0.618830 -0.537502
O10   O     O_R   0.274840 0.500010 0.591370 -0.504346
O11   O     O_R   0.725160 0.499990 0.408630 -0.504348
O12   O     O_R   0.274830 0.499980 0.353800 -0.452400
O13   O     O_R   0.725170 0.500020 0.646200 -0.452399
O14   O     O_2   0.860347 0.078608 0.353075 -0.472605

loop_
_geom_bond_atom_site_label_1
_geom_bond_atom_site_label_2
_ccdc_geom_bond_type
C14   H10   S    
C2    C4    A    
Cu1   Cu2   S    
C13   H9    S    
Cu1   O9    S    
C8    C15   S    
C19   H3    S    
C3    C22   A    
C1    O8    A    
C1    O1    A    
C10   O2    D    
C1    C4    S    
C16   O12   A    
C2    C21   A    
Cu1   O10   S    
C22   H4    S    
C6    C13   S    
C11   O3    D    
Cu2   N2    S    
C18   H1    S    
C9    H6    S    
C14   O5    D    
C17   C19   S    
C20   C22   A    
C11   H8    S    
C5    C11   S    
C12   O7    A    
Cu1   N1    S    
C2    H5    S    
C10   C21   S    
Cu2   O8    S    
C3    C21   A    
Cu1   O13   S    
C16   O10   A    
Cu2   O12   S    
C5    N2    A    
C6    N1    A    
C16   C18   S    
C18   C19   D    
C8    N2    A    
C17   O13   A    
C5    C7    A    
Cu2   O7    S    
C13   O4    D    
C6    C8    A    
C3    C12   S    
C9    C20   S    
Cu1   O1    S    
Cu2   O11   S    
C7    N1    A    
C10   H7    S    
C7    C14   S    
C9    O14   D    
C17   O11   A    
C15   O6    D    
C12   O9    A    
C15   H2    S    
C4    C20   A    
