data_mof_unit_47658.cif
_audit_creation_date              2012-12-10T16:52:03-0500
_audit_creation_method            fapswitch 2.2
_symmetry_space_group_name_H-M    P1
_symmetry_Int_Tables_number       1
_space_group_crystal_system       triclinic
_cell_length_a                    7.840796
_cell_length_b                    8.537462
_cell_length_c                    14.885734
_cell_angle_alpha                 91.742926
_cell_angle_beta                  85.217509
_cell_angle_gamma                 93.506414
_cell_volume                      990.809159452

loop_
_atom_site_label
_atom_site_type_symbol
_atom_type_description
_atom_site_fract_x
_atom_site_fract_y
_atom_site_fract_z
_atom_type_partial_charge
C1    C     C_R   0.545441 0.794411 0.498778 0.964430
C2    C     C_R   0.547241 0.631020 0.812335 -0.209383
C3    C     C_R   0.497706 0.506140 0.232336 -0.099320
C4    C     C_R   0.502840 0.491681 0.767488 -0.110315
C5    C     C_R   0.542686 0.646174 0.186920 -0.060344
C6    C     C_R   0.465353 0.349758 0.812299 -0.060894
C7    C     C_R   0.548921 0.643123 0.092518 0.046071
C8    C     C_R   0.469002 0.350718 0.906402 0.048160
C9    C     C_R   0.509457 0.499130 0.046441 0.062086
C10   C     C_R   0.510898 0.494232 0.952465 0.061994
C11   C     C_R   0.465315 0.360433 0.094392 0.125165
C12   C     C_R   0.454668 0.205654 0.502684 0.945955
C13   C     C_R   0.550920 0.633840 0.904774 0.119705
C14   C     C_R   0.589806 0.780166 0.043104 -0.180221
C15   C     C_R   0.426825 0.213973 0.955963 -0.178789
C16   C     C_2   0.577040 0.794374 0.238531 0.856935
C17   C     C_2   0.420706 0.203658 0.760547 0.862023
C18   C     C_R   0.591128 0.775153 0.949994 -0.188155
C19   C     C_R   0.425639 0.219012 0.049130 -0.192447
C20   C     C_2   0.569453 0.958126 0.499394 -0.307142
C21   C     C_2   0.430907 0.042130 0.505227 -0.359824
C22   C     C_R   0.500726 0.497341 0.672408 0.887173
C23   C     C_R   0.499121 0.501797 0.327543 0.880673
C24   C     C_R   0.459923 0.365265 0.187304 -0.211140
Cl1   Cl    Cl    0.039176 0.321082 0.401176 -0.462199
Cl2   Cl    Cl    0.960858 0.678872 0.598868 -0.475498
H1    H     H_    0.427268 0.259213 0.225090 0.158732
H2    H     H_    0.252391 0.086287 0.684051 0.352926
H3    H     H_    0.576972 0.737780 0.774808 0.184790
H4    H     H_    0.619386 0.892390 0.075680 0.173284
H5    H     H_    0.391766 0.102786 0.923699 0.175537
H6    H     H_    0.621864 0.882391 0.913334 0.182493
H7    H     H_    0.391527 0.112465 0.085959 0.165728
H8    H     H_    0.700485 0.008869 0.493784 0.218799
H9    H     H_    0.299883 0.991361 0.510776 0.218334
H10   H     H_    0.478770 0.969580 0.316007 0.338438
N1    N     N_2   0.950330 0.457950 0.475660 0.139657
N2    N     N_2   0.049670 0.542050 0.524340 0.141869
O1    O     O_R   0.389250 0.738570 0.505970 -0.601025
O2    O     O_R   0.441958 0.864094 0.288593 -0.785245
O3    O     O_2   0.513455 0.093346 0.758650 -0.640085
O4    O     O_R   0.271978 0.192823 0.714615 -0.765698
O5    O     O_R   0.610750 0.261430 0.494030 -0.607851
O6    O     O_R   0.678390 0.711620 0.490370 -0.582639
O7    O     O_R   0.321610 0.288380 0.509630 -0.570828
O8    O     O_R   0.355420 0.513510 0.639950 -0.573767
O9    O     O_R   0.644580 0.486490 0.360050 -0.599315
O10   O     O_R   0.644560 0.486560 0.624350 -0.584858
O11   O     O_R   0.355440 0.513440 0.375650 -0.563823
O12   O     O_2   0.722204 0.856061 0.235848 -0.590093
Zn1   Zn    Zn3+2 0.306940 0.517990 0.510420 1.131452
Zn2   Zn    Zn3+2 0.693060 0.482010 0.489580 1.118491

loop_
_geom_bond_atom_site_label_1
_geom_bond_atom_site_label_2
_ccdc_geom_bond_type
O1    Zn1   S    
C15   H5    S    
O9    Zn2   S    
C21   H9    S    
C8    C15   A    
C4    C22   S    
C9    C10   A    
C14   C18   A    
C1    O6    A    
C2    C4    A    
N1    Zn2   S    
C24   H1    S    
H10   O2    S    
C3    C5    A    
C20   H8    S    
O6    Zn2   S    
C15   C19   A    
C9    C11   A    
C11   C19   A    
C3    C24   A    
N1    N2    D    
C13   C18   A    
C14   H4    S    
C2    H3    S    
C12   C21   S    
C1    C20   S    
C2    C13   A    
C22   O8    A    
C16   O2    S    
C22   O10   A    
C12   O5    A    
C17   O3    D    
O5    Zn2   S    
C23   O11   A    
C4    C6    A    
C18   H6    S    
O7    Zn1   S    
C7    C9    A    
C11   C24   A    
O10   Zn2   S    
C23   O9    A    
C20   C21   D    
C8    C10   A    
C19   H7    S    
H2    O4    S    
C5    C7    A    
C6    C17   S    
C1    O1    A    
C17   O4    S    
Cl2   N2    S    
C5    C16   S    
C6    C8    A    
N2    Zn1   S    
Cl1   N1    S    
C3    C23   S    
O8    Zn1   S    
C7    C14   A    
C16   O12   D    
C12   O7    A    
O11   Zn1   S    
C10   C13   A    
