data_mof_unit_67874.cif
_audit_creation_date              2013-03-05T15:41:51-0500
_audit_creation_method            fapswitch 2.2
_symmetry_space_group_name_H-M    P1
_symmetry_Int_Tables_number       1
_space_group_crystal_system       triclinic
_cell_length_a                    7.936632
_cell_length_b                    8.787582
_cell_length_c                    10.595244
_cell_angle_alpha                 93.982055
_cell_angle_beta                  84.581461
_cell_angle_gamma                 90.588614
_cell_volume                      733.86948111

loop_
_atom_site_label
_atom_site_type_symbol
_atom_site_description
_atom_site_fract_x
_atom_site_fract_y
_atom_site_fract_z
_atom_type_partial_charge
O1    O     O_R   0.389250 0.738570 0.508410 -0.599836
O2    O     O_R   0.610750 0.261430 0.491590 -0.599855
O3    O     O_R   0.678390 0.711620 0.486450 -0.595043
O4    O     O_R   0.321610 0.288380 0.513550 -0.595019
C1    C     C_R   0.541933 0.793036 0.497816 0.912257
C2    C     C_R   0.458077 0.206965 0.502191 0.912335
O5    O     O_R   0.355460 0.513510 0.697030 -0.598994
O6    O     O_R   0.644540 0.486490 0.302970 -0.598999
O7    O     O_R   0.644600 0.486560 0.675070 -0.612053
O8    O     O_R   0.355400 0.513440 0.324930 -0.612036
C3    C     C_R   0.500348 0.505911 0.742395 0.924322
C4    C     C_R   0.499660 0.494123 0.257604 0.924329
Zn1   Zn    Zn3+2 0.306940 0.517990 0.514670 1.080633
Zn2   Zn    Zn3+2 0.693060 0.482010 0.485330 1.080622
N1    N     N_2   0.950320 0.457950 0.465730 0.025645
N2    N     N_2   0.049680 0.542050 0.534270 0.025640
C5    C     C_3   0.376015 0.593392 0.976839 0.184247
C6    C     C_3   0.624029 0.406708 0.023158 0.184283
C7    C     C_3   0.526473 0.639056 0.052726 0.148538
C8    C     C_3   0.473571 0.361043 0.947278 0.148504
C9    C     C_3   0.500971 0.493145 0.122354 -0.168520
C10   C     C_3   0.499066 0.506946 0.877645 -0.168541
C11   C     C_3   0.349913 0.446776 0.048025 -0.254866
C12   C     C_3   0.650128 0.553322 0.951970 -0.254834
H1    H     H_    0.224799 0.401880 0.082349 0.220452
H2    H     H_    0.775228 0.598217 0.917598 0.220437
C13   C     C_2   0.564398 0.951136 0.484480 -0.048659
C14   C     C_2   0.435671 0.048882 0.515555 -0.048754
I1    I     I_    0.568950 0.864019 0.130511 -0.207742
I2    I     I_    0.431164 0.136033 0.869597 -0.207691
I3    I     I_    0.172436 0.746179 0.964614 -0.175400
I4    I     I_    0.827630 0.253917 0.035299 -0.175398
I5    I     I_    0.059153 0.317278 0.318279 -0.107211
I6    I     I_    0.940787 0.682936 0.681572 -0.107187
I7    I     I_    0.812883 0.999563 0.398825 -0.127756
I8    I     I_    0.187453 0.000479 0.601381 -0.127848

loop_
_geom_bond_atom_site_label_1
_geom_bond_atom_site_label_2
_geom_bond_distance
_ccdc_geom_bond_type
O7    Zn2   2.008512 S    
C6    C9    1.531645 S    
C3    C10   1.431484 S    
C5    C10   1.531635 S    
C8    C11   1.541386 S    
O6    C4    1.291572 A    
C13   I7    2.142991 S    
C11   H1    1.103453 S    
C7    C12   1.541430 S    
C8    I2    2.124384 S    
O5    C3    1.291597 A    
O7    C3    1.296690 A    
C5    C11   1.540039 S    
O3    Zn2   2.021415 S    
O8    C4    1.296718 A    
C6    C12   1.540044 S    
C10   C12   1.532105 S    
C7    C9    1.525484 S    
C5    I3    2.130321 S    
C12   H2    1.103486 S    
C6    C8    1.536227 S    
C9    C11   1.532083 S    
O2    Zn2   2.042564 S    
O1    C1    1.296140 A    
O1    Zn1   2.042564 S    
N1    N2    1.310360 D    
C7    I1    2.124484 S    
O5    Zn1   2.008592 S    
C6    I4    2.130319 S    
C14   I8    2.141712 S    
O4    C2    1.295672 A    
Zn1   N2    2.044353 S    
C13   C14   1.343579 D    
Zn2   N1    2.044353 S    
C5    C7    1.536263 S    
O6    Zn2   2.008590 S    
N2    I6    2.052885 S    
C1    C13   1.413991 S    
C4    C9    1.431490 S    
N1    I5    2.052751 S    
C2    C14   1.413846 S    
O2    C2    1.296059 A    
O4    Zn1   2.021415 S    
C8    C10   1.525445 S    
O3    C1    1.295609 A    
O8    Zn1   2.008512 S    
