data_mof_unit_38444.cif
_audit_creation_date              2012-12-10T17:31:17-0500
_audit_creation_method            fapswitch 2.2
_symmetry_space_group_name_H-M    P1
_symmetry_Int_Tables_number       1
_space_group_crystal_system       triclinic
_cell_length_a                    18.95001
_cell_length_b                    18.584417
_cell_length_c                    12.39876
_cell_angle_alpha                 90.403028
_cell_angle_beta                  130.046172
_cell_angle_gamma                 89.84084
_cell_volume                      3342.60318088

loop_
_atom_site_label
_atom_site_type_symbol
_atom_type_description
_atom_site_fract_x
_atom_site_fract_y
_atom_site_fract_z
_atom_type_partial_charge
C1    C     C_R   0.612273 0.898161 0.652704 0.762374
C2    C     C_R   0.612420 0.101750 0.652829 0.770190
C3    C     C_R   0.112305 0.398184 0.652746 0.762357
C4    C     C_R   0.112424 0.601750 0.652831 0.770232
C5    C     C_R   0.238298 0.784625 0.022378 0.075426
C6    C     C_R   0.242305 0.222012 0.034006 0.068775
C7    C     C_R   0.738331 0.284550 0.022516 0.075509
C8    C     C_R   0.742229 0.721957 0.033905 0.068782
C9    C     C_R   0.651747 0.289743 0.990226 0.169723
C10   C     C_R   0.658691 0.722870 0.011499 0.160463
C11   C     C_R   0.151701 0.789843 0.990038 0.169774
C12   C     C_R   0.158683 0.222787 0.011361 0.160464
C13   C     C_R   0.573572 0.259406 0.865783 -0.256619
C14   C     C_R   0.580758 0.755514 0.892042 -0.247591
C15   C     C_R   0.073523 0.759535 0.865545 -0.256513
C16   C     C_R   0.080748 0.255380 0.891816 -0.247504
C17   C     C_R   0.581392 0.219424 0.778881 -0.215598
C18   C     C_R   0.585662 0.790632 0.798800 -0.202423
C19   C     C_R   0.081360 0.719530 0.778679 -0.215899
C20   C     C_R   0.085714 0.290563 0.798693 -0.202429
C21   C     C_R   0.315374 0.815196 0.148681 -0.246188
C22   C     C_R   0.318275 0.186725 0.153580 -0.256690
C23   C     C_R   0.815403 0.315151 0.148777 -0.246223
C24   C     C_R   0.818201 0.686638 0.153409 -0.256702
C25   C     C_R   0.221512 0.858971 0.204038 -0.194359
C26   C     C_R   0.228728 0.151847 0.221453 -0.198565
C27   C     C_R   0.721549 0.358936 0.204146 -0.194330
C28   C     C_R   0.728815 0.651985 0.221683 -0.198597
C29   C     C_R   0.679819 0.158950 0.740876 -0.097353
C30   C     C_R   0.678680 0.840621 0.741257 -0.104043
C31   C     C_R   0.179829 0.658954 0.740862 -0.097314
C32   C     C_R   0.178802 0.340718 0.741425 -0.104011
C33   C     C_R   0.663908 0.936699 0.276177 -0.298229
C34   C     C_R   0.163883 0.436669 0.276145 -0.298136
C35   C     C_R   0.345180 0.019449 0.626388 0.072519
C36   C     C_R   0.845184 0.519468 0.626387 0.072442
C37   C     C_R   0.311110 0.031317 0.696404 -0.253800
C38   C     C_R   0.811111 0.531346 0.696398 -0.253825
C39   C     C_R   0.384184 0.098910 0.342645 0.787921
C40   C     C_R   0.383226 0.901905 0.340940 0.791514
C41   C     C_R   0.884183 0.598911 0.342645 0.787931
C42   C     C_R   0.883234 0.401900 0.340955 0.791558
C43   C     C_R   0.367939 0.022586 0.841597 -0.175478
C44   C     C_R   0.867929 0.522602 0.841588 -0.175547
C45   C     C_R   0.459492 0.999592 0.918791 -0.035515
C46   C     C_R   0.959469 0.499579 0.918777 -0.035479
C47   C     C_R   0.493437 0.988615 0.843964 0.250720
C48   C     C_R   0.993410 0.488591 0.843947 0.250838
C49   C     C_R   0.519314 0.987210 0.068298 -0.035352
C50   C     C_R   0.019295 0.487194 0.068284 -0.035412
C51   C     C_R   0.600540 0.947327 0.130503 0.129008
C52   C     C_R   0.100514 0.447300 0.130473 0.128981
C53   C     C_R   0.622240 0.923669 0.048634 -0.276437
C54   C     C_R   0.122207 0.423647 0.048584 -0.276527
C55   C     C_R   0.586563 0.961953 0.926456 0.169512
C56   C     C_R   0.086537 0.461958 0.926440 0.169500
C57   C     C_R   0.502499 0.011157 0.159369 0.026911
C58   C     C_R   0.002496 0.511156 0.159368 0.026885
C59   C     C_R   0.646694 0.965485 0.360655 0.078592
C60   C     C_R   0.146682 0.465467 0.360637 0.078594
C61   C     C_R   0.644356 0.325952 0.082366 -0.195868
C62   C     C_R   0.653293 0.689287 0.107054 -0.194471
C63   C     C_R   0.144307 0.826032 0.082193 -0.195887
C64   C     C_R   0.153204 0.189114 0.106759 -0.194448
C65   C     C_R   0.306742 0.854872 0.235336 -0.049431
C66   C     C_R   0.310598 0.148994 0.242502 -0.046771
C67   C     C_R   0.806767 0.354849 0.235403 -0.049436
C68   C     C_R   0.810603 0.649004 0.242506 -0.046802
C69   C     C_R   0.762244 0.158768 0.762687 -0.187455
C70   C     C_R   0.757673 0.835278 0.754213 -0.192922
C71   C     C_R   0.262277 0.658731 0.762748 -0.187416
C72   C     C_R   0.257900 0.335530 0.754640 -0.192905
C73   C     C_R   0.334216 0.704190 0.862197 -0.152601
C74   C     C_R   0.329523 0.290337 0.853884 -0.149098
C75   C     C_R   0.834191 0.204209 0.862171 -0.152587
C76   C     C_R   0.829214 0.789975 0.853273 -0.149089
C77   C     C_R   0.327088 0.747336 0.946751 -0.184735
C78   C     C_R   0.325480 0.252219 0.945809 -0.184758
C79   C     C_R   0.827091 0.247306 0.946809 -0.184702
C80   C     C_R   0.825218 0.751916 0.945299 -0.184753
C81   C     C_R   0.745442 0.247594 0.929364 0.075120
C82   C     C_R   0.746930 0.756405 0.936530 0.076223
C83   C     C_R   0.245421 0.747654 0.929250 0.075160
C84   C     C_R   0.247078 0.256542 0.936766 0.076225
C85   C     C_R   0.667997 0.208592 0.814920 0.080853
C86   C     C_R   0.669783 0.796452 0.824873 0.077333
C87   C     C_R   0.167979 0.708652 0.814802 0.080874
C88   C     C_R   0.169892 0.296504 0.824971 0.077360
Cu1   Cu    Cu3+1 0.526340 0.000000 0.421010 0.929760
Cu2   Cu    Cu3+1 0.026340 0.500000 0.421010 0.929776
Cu3   Cu    Cu3+1 0.473640 0.000000 0.578990 0.918670
Cu4   Cu    Cu3+1 0.973640 0.500000 0.578990 0.918680
H1    H     H_    0.213738 0.890359 0.269758 0.145982
H2    H     H_    0.221775 0.122680 0.289507 0.141174
H3    H     H_    0.713772 0.390345 0.269843 0.145999
H4    H     H_    0.721922 0.622902 0.289881 0.141212
H5    H     H_    0.685778 0.893630 0.100318 0.153556
H6    H     H_    0.185749 0.393619 0.100246 0.153520
H7    H     H_    0.727459 0.907450 0.324992 0.137596
H8    H     H_    0.227425 0.407410 0.324948 0.137605
H9    H     H_    0.438701 0.037205 0.117995 0.120223
H10   H     H_    0.938704 0.537215 0.118000 0.120185
H11   H     H_    0.299928 0.027158 0.513737 0.122090
H12   H     H_    0.799939 0.527189 0.513739 0.122115
H13   H     H_    0.337830 0.031321 0.890606 0.139815
H14   H     H_    0.837823 0.531353 0.890600 0.139810
H15   H     H_    0.240101 0.047582 0.637586 0.144744
H16   H     H_    0.740109 0.547634 0.637581 0.144763
H17   H     H_    0.506477 0.265035 0.837142 0.139241
H18   H     H_    0.515564 0.754064 0.870475 0.141730
H19   H     H_    0.006420 0.765187 0.836856 0.139174
H20   H     H_    0.015502 0.253829 0.870071 0.141700
H21   H     H_    0.578447 0.330389 0.058200 0.129177
H22   H     H_    0.589703 0.689893 0.090427 0.129380
H23   H     H_    0.078391 0.830479 0.057996 0.129253
H24   H     H_    0.089550 0.189615 0.089945 0.129364
H25   H     H_    0.383497 0.810086 0.181874 0.144783
H26   H     H_    0.384424 0.186395 0.179317 0.145019
H27   H     H_    0.883524 0.310057 0.181952 0.144778
H28   H     H_    0.884292 0.686225 0.178966 0.145085
H29   H     H_    0.772171 0.121922 0.705376 0.150647
H30   H     H_    0.765475 0.867765 0.690257 0.142120
H31   H     H_    0.272226 0.621844 0.705519 0.150620
H32   H     H_    0.265723 0.368070 0.690764 0.142069
H33   H     H_    0.385948 0.780771 0.022783 0.132851
H34   H     H_    0.384212 0.218839 0.020591 0.126055
H35   H     H_    0.885960 0.280730 0.022853 0.132882
H36   H     H_    0.883883 0.718439 0.019922 0.126033
H37   H     H_    0.397274 0.703975 0.877617 0.128940
H38   H     H_    0.390092 0.286586 0.862831 0.127488
H39   H     H_    0.897235 0.204022 0.877543 0.128908
H40   H     H_    0.889689 0.786088 0.861987 0.127539
H41   H     H_    0.518951 0.196686 0.683765 0.171480
H42   H     H_    0.521907 0.811839 0.704652 0.176800
H43   H     H_    0.018933 0.696776 0.683563 0.171400
H44   H     H_    0.021968 0.311732 0.704473 0.176698
H45   H     H_    0.695276 0.955906 0.472731 0.120009
H46   H     H_    0.195266 0.455882 0.472711 0.120011
N1    N     N_R   0.566260 0.000000 0.302220 -0.181760
N2    N     N_R   0.066260 0.500000 0.302220 -0.181764
N3    N     N_R   0.434410 0.000000 0.697680 -0.202161
N4    N     N_R   0.934410 0.500000 0.697680 -0.202154
O1    O     O_R   0.608610 0.924520 0.551740 -0.586601
O2    O     O_R   0.608610 0.075480 0.551740 -0.574622
O3    O     O_R   0.108610 0.424520 0.551740 -0.586599
O4    O     O_R   0.108610 0.575480 0.551740 -0.574622
O5    O     O_R   0.564110 0.924510 0.685150 -0.595773
O6    O     O_R   0.564110 0.075490 0.685150 -0.580600
O7    O     O_R   0.064110 0.424510 0.685150 -0.595656
O8    O     O_R   0.064110 0.575490 0.685150 -0.580578
O9    O     O_R   0.435880 0.075470 0.314850 -0.585826
O10   O     O_R   0.435880 0.924530 0.314850 -0.571524
O11   O     O_R   0.935880 0.575470 0.314850 -0.585853
O12   O     O_R   0.935880 0.424530 0.314850 -0.571511
O13   O     O_R   0.391380 0.075460 0.448260 -0.598963
O14   O     O_R   0.391380 0.924540 0.448260 -0.588295
O15   O     O_R   0.891380 0.575460 0.448260 -0.598982
O16   O     O_R   0.891380 0.424540 0.448260 -0.588283
C89   C     C_3   0.665475 0.002549 0.949832 -0.329930
C90   C     C_3   0.677776 0.077264 0.011902 -0.810862
H47   H     H_    0.612910 0.108264 0.942400 0.271746
H48   H     H_    0.696721 0.072748 0.117019 0.245466
H49   H     H_    0.734036 0.106273 0.025240 0.241672
H50   H     H_    0.732360 0.974284 0.027260 0.165960
H51   H     H_    0.664148 0.003877 0.861091 0.231777
C91   C     C_3   0.165398 0.502679 0.949898 -0.330236
C92   C     C_3   0.177266 0.577474 0.011390 -0.810376
H52   H     H_    0.112320 0.608345 0.941371 0.271789
H53   H     H_    0.195833 0.573101 0.116275 0.245364
H54   H     H_    0.233632 0.606537 0.025079 0.241666
H55   H     H_    0.232385 0.474618 0.027716 0.166080
H56   H     H_    0.164201 0.503885 0.861263 0.231684

loop_
_geom_bond_atom_site_label_1
_geom_bond_atom_site_label_2
_ccdc_geom_bond_type
C26   H2    S    
C83   C87   A    
C25   H1    S    
C64   H24   S    
C2    O2    A    
C14   C18   A    
C27   H3    S    
C25   C63   A    
C57   H9    S    
Cu3   O5    S    
C92   H53   S    
C10   C62   A    
C91   H56   S    
C40   O10   A    
C18   C86   A    
C2    C29   S    
C9    C61   A    
C71   H31   S    
C28   C68   A    
C37   H15   S    
Cu2   O3    S    
C35   H11   S    
C6    C12   A    
C5    C83   A    
C9    C13   A    
C59   H45   S    
C19   H43   S    
C6    C22   A    
C39   O9    A    
C49   C57   A    
C57   N1    A    
Cu4   O16   S    
C43   H13   S    
C23   C67   A    
C26   C64   A    
C22   C66   A    
C13   H17   S    
C27   C61   A    
C11   C15   A    
Cu1   O10   S    
C12   C16   A    
C44   C46   A    
C49   C51   A    
C50   C52   A    
C69   C75   A    
C58   H10   S    
C69   H29   S    
C30   C86   A    
Cu4   N4    S    
C47   N3    A    
C29   C85   A    
C48   C56   A    
C63   H23   S    
C52   C54   A    
C45   C47   A    
C91   H55   S    
C33   C59   A    
C72   H32   S    
C34   C60   A    
C42   O16   A    
C41   O11   A    
C17   C85   A    
C21   C65   A    
Cu3   O6    S    
C30   C70   A    
C75   H39   S    
C41   C68   S    
C29   C69   A    
C53   C55   A    
Cu2   Cu4   S    
C54   C56   A    
C3    O7    A    
C6    C84   A    
C24   H28   S    
C26   C66   A    
C90   H49   S    
C15   H19   S    
C31   C87   A    
C32   C72   A    
C10   C14   A    
C92   H52   S    
C79   C81   A    
C62   H22   S    
C80   H36   S    
Cu1   N1    S    
Cu1   O1    S    
C89   H51   S    
C39   O13   A    
Cu4   O15   S    
C33   H7    S    
C90   H48   S    
C37   C43   A    
C15   C19   A    
C38   C44   A    
C1    O1    A    
C78   C84   A    
C55   C89   S    
C70   H30   S    
C34   H8    S    
C89   C90   S    
C16   H20   S    
C59   N1    A    
C16   C20   A    
C4    O4    A    
C45   C49   A    
C50   C58   A    
C48   N4    A    
C21   H25   S    
C20   H44   S    
Cu2   O11   S    
C43   C45   A    
C60   N2    A    
C41   O15   A    
C92   H54   S    
C72   C74   A    
C7    C81   A    
C35   N3    A    
C3    O3    A    
C40   C65   S    
C74   H38   S    
Cu4   O8    S    
C42   C67   S    
C39   C66   S    
C8    C82   A    
C1    O5    A    
Cu1   Cu3   S    
Cu3   O13   S    
C70   C76   A    
C56   C91   S    
C78   H34   S    
C77   H33   S    
C35   C37   A    
C47   C55   A    
C58   N2    A    
C14   H18   S    
C12   C64   A    
C22   H26   S    
C73   C77   A    
C36   H12   S    
C42   O12   A    
C40   O14   A    
C76   C80   A    
Cu2   N2    S    
C28   C62   A    
C5    C11   A    
C44   H14   S    
C33   C51   A    
Cu1   O2    S    
C4    O8    A    
C46   C50   A    
C34   C52   A    
C13   C17   A    
C28   H4    S    
C53   H5    S    
C90   H47   S    
C36   N4    A    
C36   C38   A    
C19   C87   A    
C79   H35   S    
Cu3   O14   S    
Cu2   O4    S    
C82   C86   A    
C17   H41   S    
C76   H40   S    
Cu2   O12   S    
C91   C92   S    
C84   C88   A    
C75   C79   A    
C73   H37   S    
C7    C23   A    
C20   C88   A    
C31   C71   A    
C1    C30   S    
C8    C24   A    
C80   C82   A    
C18   H42   S    
C38   H16   S    
C3    C32   S    
C4    C31   S    
C27   C67   A    
C24   C68   A    
C61   H21   S    
C46   C48   A    
C7    C9    A    
Cu1   O9    S    
C5    C21   A    
C8    C10   A    
C74   C78   A    
C71   C73   A    
Cu4   O7    S    
C25   C65   A    
C77   C83   A    
C89   H50   S    
C54   H6    S    
C23   H27   S    
C51   C53   A    
C11   C63   A    
C2    O6    A    
C81   C85   A    
C60   H46   S    
Cu3   N3    S    
C32   C88   A    
