data_mof_unit_45388.cif
_audit_creation_date              2012-12-11T15:13:41-0500
_audit_creation_method            fapswitch 2.2
_symmetry_space_group_name_H-M    P1
_symmetry_Int_Tables_number       1
_space_group_crystal_system       triclinic
_cell_length_a                    6.944961
_cell_length_b                    13.474883
_cell_length_c                    20.130073
_cell_angle_alpha                 104.132982
_cell_angle_beta                  89.77495
_cell_angle_gamma                 90.628044
_cell_volume                      1826.69175006

loop_
_atom_site_label
_atom_site_type_symbol
_atom_type_description
_atom_site_fract_x
_atom_site_fract_y
_atom_site_fract_z
_atom_type_partial_charge
O1    O     O_R   0.506780 0.600060 0.449950 -0.538991
O2    O     O_R   0.179840 0.597110 0.589410 -0.544992
O3    O     O_R   0.004570 0.399940 0.550050 -0.537794
C1    C     C_R   0.348093 0.619008 0.616918 0.676411
O4    O     O_R   0.177380 0.612160 0.452890 -0.540332
O5    O     O_R   0.002100 0.415100 0.412560 -0.541167
C2    C     C_R   0.346972 0.639152 0.436456 0.695847
O6    O     O_R   0.509250 0.584900 0.587440 -0.539691
O7    O     O_3   0.337570 0.435330 0.486930 -0.369452
V1    V     V_3+5 0.064650 0.512000 0.502430 1.414043
O8    O     O_R   0.672090 0.402890 0.410590 -0.543194
C3    C     C_R   0.840740 0.381004 0.383081 0.676235
O9    O     O_R   0.674540 0.387840 0.547110 -0.541297
C4    C     C_R   0.842470 0.360874 0.563587 0.696264
V2    V     V_3+5 0.564040 0.488000 0.497570 1.412188
O10   O     O_3   0.840990 0.564670 0.513070 -0.369625
C5    C     C_R   0.831343 0.106058 0.607838 -0.161745
H1    H     H_    0.823859 0.155718 0.514411 0.100769
H2    H     H_    0.828084 0.979878 0.690308 0.117264
H3    H     H_    0.820945 0.025945 0.581108 0.111521
C6    C     C_R   0.847638 0.283124 0.602942 -0.031345
C7    C     C_R   0.876109 0.319490 0.932508 -0.168437
C8    C     C_R   0.877873 0.396345 0.897439 -0.122122
C9    C     C_R   0.869936 0.371985 0.826135 -0.163215
C10   C     C_R   0.859642 0.268771 0.787704 0.079042
C11   C     C_R   0.855840 0.190283 0.824135 0.069619
C12   C     C_R   0.853196 0.240844 0.714505 0.072421
C13   C     C_R   0.840764 0.135521 0.679662 0.145483
C14   C     C_R   0.837071 0.060257 0.716572 -0.216390
C15   C     C_R   0.844938 0.086971 0.787586 -0.204890
C16   C     C_R   0.858017 0.313680 0.674404 -0.218042
C17   C     C_R   0.833515 0.179541 0.569753 -0.176199
C18   C     C_R   0.864625 0.216848 0.896660 -0.075720
H4    H     H_    0.867534 0.394805 0.696819 0.091496
H5    H     H_    0.884159 0.340084 0.987954 0.098498
H6    H     H_    0.872193 0.435964 0.802906 0.102229
H7    H     H_    0.886351 0.475685 0.925754 0.116922
H8    H     H_    0.842018 0.025522 0.813630 0.119440
C19   C     C_3   0.676788 0.220824 0.228863 -0.116585
C20   C     C_3   0.773720 0.199720 0.293174 -0.140552
H9    H     H_    0.705635 0.159064 0.329111 0.097103
H10   H     H_    0.528348 0.196871 0.211169 0.107015
C21   C     C_3   0.849828 0.310745 0.312463 -0.006291
C22   C     C_3   0.752964 0.332652 0.248952 -0.137951
C23   C     C_3   0.939185 0.299398 0.207094 -0.144865
C24   C     C_3   0.036095 0.278254 0.271391 -0.119636
C25   C     C_3   0.959918 0.166425 0.251279 -0.138214
C26   C     C_3   0.863060 0.188411 0.187780 -0.005823
H11   H     H_    0.667377 0.401575 0.248439 0.100648
H12   H     H_    0.007450 0.340111 0.171213 0.098286
H13   H     H_    0.184580 0.302036 0.289107 0.108772
H14   H     H_    0.045531 0.097490 0.251763 0.110679
C27   C     C_3   0.454672 0.794640 0.706902 -0.141885
C28   C     C_3   0.274612 0.839897 0.748840 -0.141276
H15   H     H_    0.206484 0.913926 0.748480 0.112313
H16   H     H_    0.535956 0.830594 0.671149 0.098273
C29   C     C_3   0.358894 0.811551 0.812255 -0.004508
C30   C     C_3   0.539359 0.767156 0.771130 -0.115527
C31   C     C_3   0.438390 0.661007 0.750948 -0.140568
C32   C     C_3   0.258309 0.706232 0.792850 -0.145769
C33   C     C_3   0.173633 0.733748 0.728635 -0.118543
C34   C     C_3   0.354090 0.689271 0.687519 -0.004749
H17   H     H_    0.690671 0.781208 0.788866 0.106475
H18   H     H_    0.506500 0.586991 0.751340 0.101648
H19   H     H_    0.177023 0.670309 0.828620 0.099038
H20   H     H_    0.022302 0.719875 0.710894 0.107626
C35   C     C_R   0.401434 0.892598 0.391888 -0.161248
H21   H     H_    0.398428 0.842933 0.485375 0.101057
H22   H     H_    0.424646 0.018231 0.309284 0.117049
H23   H     H_    0.423229 0.972123 0.418509 0.111372
C36   C     C_R   0.358722 0.716656 0.396985 -0.031170
C37   C     C_R   0.327158 0.681383 0.067596 -0.169013
C38   C     C_R   0.311765 0.604908 0.102764 -0.121678
C39   C     C_R   0.322688 0.628910 0.174016 -0.162988
C40   C     C_R   0.349646 0.731371 0.212295 0.078844
C41   C     C_R   0.366075 0.809446 0.175779 0.069766
C42   C     C_R   0.360673 0.758958 0.285421 0.072431
C43   C     C_R   0.388595 0.863524 0.320121 0.145172
C44   C     C_R   0.403909 0.938416 0.283129 -0.215716
C45   C     C_R   0.392797 0.912039 0.212175 -0.203823
C46   C     C_R   0.345322 0.686493 0.325586 -0.217526
C47   C     C_R   0.387176 0.819458 0.430063 -0.176893
C48   C     C_R   0.354503 0.783243 0.103316 -0.075397
H24   H     H_    0.324049 0.605935 0.303284 0.090887
H25   H     H_    0.317420 0.661122 0.012185 0.098832
H26   H     H_    0.309284 0.565269 0.197325 0.102192
H27   H     H_    0.290695 0.526163 0.074565 0.116688
H28   H     H_    0.405533 0.973175 0.186055 0.117969
O11   O     O_R   0.203580 0.914920 0.912610 -0.540101
O12   O     O_R   0.535710 0.887810 0.047120 -0.539749
O13   O     O_R   0.710730 0.084950 0.087430 -0.541864
C49   C     C_R   0.366234 0.861138 0.063850 0.688717
O14   O     O_R   0.533010 0.902850 0.910600 -0.545585
O15   O     O_R   0.708010 0.100090 0.949930 -0.537590
C50   C     C_R   0.364814 0.881309 0.882989 0.679565
O16   O     O_R   0.206300 0.899780 0.050100 -0.538418
O17   O     O_3   0.375170 0.064580 0.013100 -0.369668
V3    V     V_3+5 0.648200 0.988020 0.997570 1.414112
O18   O     O_R   0.038030 0.112330 0.952840 -0.540674
C51   C     C_R   0.870083 0.138753 0.936038 0.688268
O19   O     O_R   0.040730 0.097300 0.089360 -0.543401
C52   C     C_R   0.872123 0.118668 0.117020 0.679505
V4    V     V_3+5 0.148780 0.012220 0.002360 1.413607
O20   O     O_3   0.871930 0.935430 0.986900 -0.369717

loop_
_geom_bond_atom_site_label_1
_geom_bond_atom_site_label_2
_ccdc_geom_bond_type
C22   H11   S    
C20   C25   S    
O18   V4    S    
O19   C52   A    
C38   C39   A    
C1    O6    A    
O17   V3    S    
C42   C43   A    
C7    H5    S    
C6    C16   A    
C31   H18   S    
C9    H6    S    
C4    C6    S    
C13   C14   A    
C3    C21   S    
C2    C36   S    
C27   H16   S    
O15   V3    S    
V2    O10   S    
C1    C34   S    
C49   O16   A    
C5    H3    S    
C15   H8    S    
C38   H27   S    
C24   C25   S    
O8    V2    S    
C33   H20   S    
C20   C21   S    
O18   C51   A    
C8    C9    A    
O1    V2    S    
C42   C46   A    
O7    V1    S    
C36   C47   A    
C31   C32   S    
O19   V4    S    
O9    C4    A    
O11   V4    S    
C35   C43   A    
C41   C48   A    
C37   H25   S    
C19   H10   S    
C6    C17   A    
C39   C40   A    
C12   C16   A    
C9    C10   A    
C19   C20   S    
O4    C2    A    
C43   C44   A    
C29   C32   S    
C30   C31   S    
C8    H7    S    
C24   H13   S    
C32   C33   S    
O11   C50   A    
C25   H14   S    
O2    C1    A    
C40   C41   A    
C14   C15   A    
C48   C49   S    
C27   C34   S    
C11   C18   A    
O12   C49   A    
C25   C26   S    
O15   C51   A    
C27   C30   S    
C26   C52   S    
C16   H4    S    
C39   H26   S    
C40   C42   A    
O17   V4    S    
O3    C4    A    
C20   H9    S    
C32   H19   S    
C11   C15   A    
O6    V2    S    
O9    V2    S    
C21   C22   S    
H22   C44   S    
H1    C17   S    
O13   C52   A    
O2    V1    S    
C12   C13   A    
C46   H24   S    
C22   C23   S    
C23   C26   S    
C30   H17   S    
C7    C18   A    
C28   H15   S    
C31   C34   S    
O1    C2    A    
C5    C13   A    
C41   C45   A    
C37   C38   A    
O5    V1    S    
O8    C3    A    
C27   C28   S    
C19   C22   S    
C28   C33   S    
C10   C12   A    
C35   H23   S    
H21   C47   S    
C18   C51   S    
C10   C11   A    
O4    V1    S    
C45   H28   S    
O3    V1    S    
V1    O10   S    
O5    C3    A    
C29   C30   S    
C23   H12   S    
V3    O20   S    
O13   V3    S    
O7    V2    S    
C33   C34   S    
C21   C24   S    
C37   C48   A    
C44   C45   A    
C23   C24   S    
C35   C47   A    
O14   C50   A    
C29   C50   S    
O16   V4    S    
V4    O20   S    
C5    C17   A    
C7    C8    A    
O14   V3    S    
O12   V3    S    
C19   C26   S    
C36   C46   A    
C28   C29   S    
H2    C14   S    
