data_mof_unit_42826.cif
_audit_creation_date              2012-12-10T20:35:47-0500
_audit_creation_method            fapswitch 2.2
_symmetry_space_group_name_H-M    P1
_symmetry_Int_Tables_number       1
_space_group_crystal_system       triclinic
_cell_length_a                    15.738029
_cell_length_b                    10.670041
_cell_length_c                    9.855691
_cell_angle_alpha                 90.010066
_cell_angle_beta                  89.972453
_cell_angle_gamma                 90.072623
_cell_volume                      1655.01945211

loop_
_atom_site_label
_atom_site_type_symbol
_atom_type_description
_atom_site_fract_x
_atom_site_fract_y
_atom_site_fract_z
_atom_type_partial_charge
C1    C     C_R   0.495894 0.259994 0.500012 0.944378
C2    C     C_3   0.950256 0.442931 0.623128 -0.461122
C3    C     C_3   0.917243 0.501649 0.487833 0.004157
C4    C     C_3   0.952542 0.638739 0.485680 0.352965
C5    C     C_3   0.050197 0.636847 0.498859 0.302275
C6    C     C_1   0.825758 0.501630 0.494734 0.098866
C7    C     C_1   0.174256 0.499272 0.497499 0.133964
C8    C     C_1   0.249503 0.499351 0.499832 -0.093230
C9    C     C_R   0.484370 0.064041 0.623437 -0.068041
C10   C     C_R   0.479527 0.128947 0.501170 -0.284214
C11   C     C_R   0.456390 0.064849 0.381947 0.533511
C12   C     C_R   0.338294 0.499718 0.500098 0.881734
C13   C     C_R   0.456966 0.935048 0.381800 0.557684
C14   C     C_R   0.480670 0.871244 0.500833 -0.326342
C15   C     C_R   0.484851 0.936131 0.623135 -0.048481
C16   C     C_3   0.548455 0.931460 0.736708 0.793129
C17   C     C_3   0.546961 0.073980 0.737438 -0.473364
C18   C     C_R   0.452858 0.413857 0.071364 0.057404
C19   C     C_R   0.553039 0.576236 0.071873 0.672234
C20   C     C_R   0.553321 0.575647 0.927829 -0.192806
C21   C     C_R   0.452433 0.414692 0.928690 0.033677
C22   C     C_3   0.358083 0.400144 0.924994 0.747057
C23   C     C_R   0.496413 0.740089 0.499935 1.005928
C24   C     C_3   0.358912 0.396023 0.079438 -0.539061
C25   C     C_R   0.661706 0.500136 0.499870 0.906716
C26   C     C_3   0.047666 0.429741 0.618063 -0.564744
C27   C     C_3   0.051397 0.431260 0.359706 0.657918
C28   C     C_3   0.950016 0.421362 0.361140 0.220677
C29   C     C_1   0.750510 0.500875 0.498885 -0.126613
C30   C     C_3   0.082724 0.499546 0.491892 -0.009140
H1    H     H_    0.920070 0.351132 0.646035 0.194656
H2    H     H_    0.075385 0.469373 0.712807 0.204372
H3    H     H_    0.932906 0.503872 0.710571 0.253414
H4    H     H_    0.935415 0.689750 0.392851 0.151630
H5    H     H_    0.518371 0.116248 0.829838 0.175806
H6    H     H_    0.608077 0.117182 0.705208 0.216097
H7    H     H_    0.065527 0.328949 0.615093 0.253231
H8    H     H_    0.595285 0.638140 0.873179 0.208100
H9    H     H_    0.326172 0.477200 0.126924 0.235684
H10   H     H_    0.341836 0.303327 0.123166 0.223426
H11   H     H_    0.068511 0.677670 0.598705 0.181377
N1    N     N_R   0.499430 0.499140 0.142800 -0.141341
N2    N     N_R   0.499430 0.499180 0.857150 -0.120513
O1    O     O_R   0.500010 0.316790 0.614690 -0.627311
O2    O     O_R   0.500000 0.316760 0.385350 -0.566438
O3    O     O_R   0.377150 0.500020 0.614720 -0.557848
O4    O     O_R   0.377140 0.499990 0.385380 -0.621952
O5    O     O_R   0.500000 0.683240 0.614650 -0.603850
O6    O     O_R   0.499990 0.683210 0.385310 -0.524379
O7    O     O_R   0.622860 0.500010 0.614620 -0.616702
O8    O     O_R   0.622850 0.499980 0.385280 -0.580920
Zn1   Zn    Zn3+2 0.500010 0.500020 0.653130 1.016348
Zn2   Zn    Zn3+2 0.499990 0.499980 0.346870 1.070945
F1    F     F_    0.439691 0.126044 0.264087 -0.637748
F2    F     F_    0.440528 0.873658 0.263932 -0.616535
N3    N     N_2   0.518368 0.874015 0.862215 -0.315256
H12   H     H_    0.557979 0.890032 0.943738 0.266263
C31   C     C_3   0.428787 0.879273 0.896330 -0.676244
H13   H     H_    0.417523 0.826791 0.991933 0.299432
H14   H     H_    0.390045 0.834166 0.815811 0.249799
H15   H     H_    0.408223 0.977765 0.911039 0.231376
F3    F     F_    0.626245 0.883329 0.696489 -0.648148
F4    F     F_    0.604987 0.656003 0.139521 -0.633274
F5    F     F_    0.317177 0.504887 0.873475 -0.648519
N4    N     N_2   0.332307 0.283781 0.860227 -0.300909
H16   H     H_    0.366260 0.205812 0.890008 0.197654
C32   C     C_3   0.241764 0.261741 0.853024 -0.713654
H17   H     H_    0.229391 0.176780 0.791010 0.242645
H18   H     H_    0.209160 0.342104 0.804025 0.268305
H19   H     H_    0.215517 0.246540 0.956269 0.230170
N5    N     N_2   0.084165 0.497854 0.240525 -0.296558
H20   H     H_    0.053808 0.578536 0.210874 0.251282
C33   C     C_3   0.123041 0.426534 0.131984 -0.659236
H21   H     H_    0.146084 0.491212 0.051695 0.243299
H22   H     H_    0.076634 0.360359 0.086703 0.218823
H23   H     H_    0.178512 0.373642 0.171175 0.275928
F6    F     F_    0.086338 0.311176 0.361753 -0.674374
N6    N     N_2   0.925006 0.289629 0.385685 -0.269248
H24   H     H_    0.954828 0.245804 0.465585 0.268161
C34   C     C_3   0.914244 0.204042 0.272417 -0.639595
H25   H     H_    0.900346 0.108415 0.311146 0.242731
H26   H     H_    0.973053 0.199942 0.210289 0.258361
H27   H     H_    0.859415 0.232894 0.208908 0.237212
N7    N     N_2   0.913274 0.458945 0.228515 -0.324844
H28   H     H_    0.939250 0.414987 0.145218 0.241933
C35   C     C_3   0.873521 0.577047 0.192534 -0.771568
H29   H     H_    0.838164 0.564491 0.095982 0.266163
H30   H     H_    0.921878 0.650558 0.173899 0.233925
H31   H     H_    0.826122 0.608064 0.267758 0.265730
F7    F     F_    0.087245 0.711920 0.400345 -0.664593
F8    F     F_    0.918355 0.707877 0.591808 -0.639834

loop_
_geom_bond_atom_site_label_1
_geom_bond_atom_site_label_2
_ccdc_geom_bond_type
C26   H2    S    
C28   N7    S    
C18   C21   A    
C33   H21   S    
C19   C20   A    
C3    C6    S    
C16   N3    S    
C7    C8    T    
C18   C24   S    
C3    C28   S    
N7    C35   S    
C34   H27   S    
N1    Zn2   S    
C35   H30   S    
N2    Zn1   S    
C23   O6    A    
C31   H14   S    
C15   C16   S    
O3    Zn1   S    
C24   H9    S    
N3    H12   S    
C25   O7    A    
C21   N2    A    
C19   F4    S    
C16   C17   S    
N4    C32   S    
O7    Zn1   S    
C17   H6    S    
C28   N6    S    
C9    C10   A    
C5    F7    S    
C19   N1    A    
O4    Zn2   S    
C4    F8    S    
O1    Zn1   S    
C31   H15   S    
O2    Zn2   S    
C7    C30   S    
C13   C14   A    
C27   C30   S    
C33   H22   S    
C16   F3    S    
C12   O4    A    
C25   C29   S    
C4    H4    S    
C32   H17   S    
N7    H28   S    
C12   O3    A    
N5    C33   S    
C35   H29   S    
C4    C5    S    
C31   H13   S    
C2    H1    S    
C32   H18   S    
C14   C23   S    
C25   O8    A    
C22   N4    S    
C20   H8    S    
C1    O1    A    
C8    C12   S    
C2    C26   S    
C11   F1    S    
C2    H3    S    
C34   H26   S    
C26   C30   S    
C33   H23   S    
C22   C24   S    
C3    C4    S    
C20   N2    A    
C27   N5    S    
C5    C30   S    
C9    C17   S    
C5    H11   S    
C23   O5    A    
N6    H24   S    
C1    C10   S    
C34   H25   S    
C27   F6    S    
C35   H31   S    
C26   H7    S    
C32   H19   S    
C18   N1    A    
C2    C3    S    
C9    C15   A    
N5    H20   S    
C11   C13   A    
C1    O2    A    
O6    Zn2   S    
C24   H10   S    
N3    C31   S    
N6    C34   S    
C10   C11   A    
C22   F5    S    
O5    Zn1   S    
C6    C29   T    
N4    H16   S    
C27   C28   S    
C14   C15   A    
C17   H5    S    
O8    Zn2   S    
C21   C22   S    
C13   F2    S    
