data_mof_unit_27831.cif
_audit_creation_date              2013-03-05T15:50:19-0500
_audit_creation_method            fapswitch 2.2
_symmetry_space_group_name_H-M    P1
_symmetry_Int_Tables_number       1
_space_group_crystal_system       triclinic
_cell_length_a                    18.340221
_cell_length_b                    25.886749
_cell_length_c                    18.242914
_cell_angle_alpha                 89.704532
_cell_angle_beta                  90.084929
_cell_angle_gamma                 89.740746
_cell_volume                      8660.9508748

loop_
_atom_site_label
_atom_site_type_symbol
_atom_site_description
_atom_site_fract_x
_atom_site_fract_y
_atom_site_fract_z
_atom_type_partial_charge
Zn1   Zn    Zn3+2 0.249990 0.293780 0.913250 1.007685
Zn2   Zn    Zn3+2 0.249990 0.706220 0.086750 1.000181
Zn3   Zn    Zn3+2 0.249990 0.706220 0.913250 0.998769
Zn4   Zn    Zn3+2 0.249990 0.293780 0.086750 0.987827
Zn5   Zn    Zn3+2 0.749990 0.793780 0.413250 1.013424
Zn6   Zn    Zn3+2 0.749990 0.206220 0.586750 1.009013
Zn7   Zn    Zn3+2 0.749990 0.206220 0.413250 0.983491
Zn8   Zn    Zn3+2 0.749990 0.793780 0.586750 0.976854
Zn9   Zn    Zn3+2 0.336760 0.206240 0.000000 0.981515
Zn10  Zn    Zn3+2 0.336760 0.793760 0.000000 1.002087
Zn11  Zn    Zn3+2 0.836760 0.706240 0.500000 1.020925
Zn12  Zn    Zn3+2 0.836760 0.293760 0.500000 0.999023
Zn13  Zn    Zn3+2 0.163250 0.206230 0.000000 1.061276
Zn14  Zn    Zn3+2 0.163250 0.793770 0.000000 1.036831
Zn15  Zn    Zn3+2 0.663250 0.706230 0.500000 1.009456
Zn16  Zn    Zn3+2 0.663250 0.293770 0.500000 1.020309
O1    O     O_3   0.249990 0.250010 0.000000 -0.496848
O2    O     O_3   0.249990 0.749990 0.000000 -0.492521
O3    O     O_3   0.749990 0.750010 0.500000 -0.495874
O4    O     O_3   0.749990 0.249990 0.500000 -0.492008
O5    O     O_R   0.335430 0.280650 0.146160 -0.655363
O6    O     O_R   0.335430 0.719350 0.853840 -0.628990
O7    O     O_R   0.335430 0.719350 0.146160 -0.628327
O8    O     O_R   0.335430 0.280650 0.853840 -0.614756
O9    O     O_R   0.835430 0.780650 0.646160 -0.649653
O10   O     O_R   0.835430 0.219350 0.353840 -0.648744
O11   O     O_R   0.835430 0.219350 0.646160 -0.648771
O12   O     O_R   0.835430 0.780650 0.353840 -0.637012
O13   O     O_R   0.164550 0.280640 0.853840 -0.653618
O14   O     O_R   0.164550 0.719360 0.146160 -0.645062
O15   O     O_R   0.164550 0.719360 0.853840 -0.641090
O16   O     O_R   0.164550 0.280640 0.146160 -0.646799
O17   O     O_R   0.664550 0.780640 0.353840 -0.624238
O18   O     O_R   0.664550 0.219360 0.646160 -0.643018
O19   O     O_R   0.664550 0.219360 0.353840 -0.658899
O20   O     O_R   0.664550 0.780640 0.646160 -0.668648
O21   O     O_R   0.396160 0.219380 0.914560 -0.647881
O22   O     O_R   0.396160 0.780620 0.085440 -0.631111
O23   O     O_R   0.396160 0.780620 0.914560 -0.633226
O24   O     O_R   0.396160 0.219380 0.085440 -0.632372
O25   O     O_R   0.896160 0.719380 0.414560 -0.616867
O26   O     O_R   0.896160 0.280620 0.585440 -0.625163
O27   O     O_R   0.896160 0.280620 0.414560 -0.638596
O28   O     O_R   0.896160 0.719380 0.585440 -0.615334
O29   O     O_R   0.103840 0.219370 0.085450 -0.592091
O30   O     O_R   0.103840 0.780630 0.914550 -0.597228
O31   O     O_R   0.103840 0.780630 0.085450 -0.600306
O32   O     O_R   0.103840 0.219370 0.914550 -0.589492
O33   O     O_R   0.603840 0.719370 0.585450 -0.604344
O34   O     O_R   0.603840 0.280630 0.414550 -0.591380
O35   O     O_R   0.603840 0.280630 0.585450 -0.629404
O36   O     O_R   0.603840 0.719370 0.414550 -0.644320
O37   O     O_R   0.310730 0.133160 0.000000 -0.634354
O38   O     O_R   0.310730 0.866840 0.000000 -0.618256
O39   O     O_R   0.810730 0.633160 0.500000 -0.644255
O40   O     O_R   0.810730 0.366840 0.500000 -0.630979
O41   O     O_R   0.249970 0.366860 0.060720 -0.626616
O42   O     O_R   0.249970 0.633140 0.939280 -0.644400
O43   O     O_R   0.249970 0.633140 0.060720 -0.631887
O44   O     O_R   0.249970 0.366860 0.939280 -0.644357
O45   O     O_R   0.749970 0.866860 0.560720 -0.635712
O46   O     O_R   0.749970 0.133140 0.439280 -0.637124
O47   O     O_R   0.749970 0.133140 0.560720 -0.637931
O48   O     O_R   0.749970 0.866860 0.439280 -0.642565
O49   O     O_R   0.189290 0.133150 0.000000 -0.591853
O50   O     O_R   0.189290 0.866850 0.000000 -0.627063
O51   O     O_R   0.689290 0.633150 0.500000 -0.641773
O52   O     O_R   0.689290 0.366850 0.500000 -0.645566
C1    C     C_R   0.386726 0.246918 0.143866 0.828051
C2    C     C_R   0.389140 0.750361 0.859320 0.825853
C3    C     C_R   0.388745 0.750751 0.140989 0.830438
C4    C     C_R   0.387646 0.248039 0.857938 0.838530
C5    C     C_R   0.886315 0.746505 0.644078 0.821155
C6    C     C_R   0.887875 0.252549 0.356986 0.818329
C7    C     C_R   0.885291 0.253545 0.644423 0.865391
C8    C     C_R   0.885982 0.745907 0.355913 0.859904
C9    C     C_R   0.112188 0.248036 0.856690 0.887541
C10   C     C_R   0.112523 0.753500 0.143399 0.859232
C11   C     C_R   0.113497 0.753886 0.856112 0.869246
C12   C     C_R   0.114109 0.245031 0.143643 0.827053
C13   C     C_R   0.611339 0.749260 0.359112 0.902553
C14   C     C_R   0.611501 0.251278 0.641203 0.910984
C15   C     C_R   0.614030 0.253838 0.355846 0.854124
C16   C     C_R   0.611466 0.749071 0.640836 0.900034
C17   C     C_R   0.250237 0.109468 0.001749 0.809469
C18   C     C_R   0.249491 0.890684 0.002913 0.811697
C19   C     C_R   0.750923 0.609517 0.508757 0.824482
C20   C     C_R   0.749031 0.391336 0.495942 0.816789
C21   C     C_R   0.249784 0.391332 0.999938 0.873537
C22   C     C_R   0.249735 0.608673 0.000196 0.865308
C23   C     C_R   0.749923 0.891347 0.499947 0.868576
C24   C     C_R   0.750016 0.108691 0.500202 0.872875
C25   C     C_3   0.181677 0.470042 0.957446 -0.047606
C26   C     C_3   0.321949 0.530283 0.966148 -0.045267
C27   C     C_3   0.183868 0.530470 0.954140 -0.045603
C28   C     C_3   0.320010 0.469901 0.961803 -0.031617
C29   C     C_3   0.682860 0.970388 0.456251 -0.041922
C30   C     C_3   0.820343 0.030169 0.461943 -0.046304
C31   C     C_3   0.681883 0.030824 0.458058 -0.025036
C32   C     C_3   0.821100 0.969659 0.463299 -0.040788
H1    H     H_    0.184619 0.455876 0.899991 0.124956
H2    H     H_    0.325975 0.545292 0.908994 0.135603
H3    H     H_    0.193688 0.541521 0.895922 0.126111
H4    H     H_    0.316606 0.459591 0.902715 0.131636
H5    H     H_    0.689548 0.958758 0.397958 0.136377
H6    H     H_    0.818032 0.042408 0.403376 0.129015
H7    H     H_    0.685666 0.044578 0.400261 0.137717
H8    H     H_    0.821587 0.956463 0.405305 0.131126
H9    H     H_    0.204752 0.906253 0.134593 0.195561
H10   H     H_    0.228925 0.096019 0.138108 0.170933
H11   H     H_    0.596697 0.420344 0.485963 0.240138
H12   H     H_    0.637940 0.588440 0.602171 0.216624
H13   H     H_    0.200226 0.454095 0.110198 0.213931
H14   H     H_    0.285871 0.544903 0.115748 0.216112
H15   H     H_    0.189379 0.541357 0.103742 0.211496
H16   H     H_    0.297486 0.457852 0.109922 0.217774
H17   H     H_    0.695005 0.956873 0.606743 0.208747
H18   H     H_    0.796833 0.042303 0.611026 0.209967
H19   H     H_    0.699459 0.044288 0.609637 0.208775
H20   H     H_    0.792192 0.954969 0.613086 0.209831
C33   C     C_3   0.247537 0.470110 0.079684 -0.352512
C34   C     C_3   0.242432 0.529285 0.079627 -0.359639
C35   C     C_3   0.745970 0.970123 0.579666 -0.359636
C36   C     C_3   0.748042 0.029359 0.579947 -0.364100
C37   C     C_3   0.249758 0.449046 0.999967 -0.017944
C38   C     C_3   0.249439 0.550968 0.000364 -0.006841
C39   C     C_3   0.749937 0.949099 0.500023 -0.013050
C40   C     C_3   0.750088 0.051016 0.500392 -0.018432
H21   H     H_    0.955997 0.092893 0.876352 0.158767
H22   H     H_    0.904363 0.878339 0.083996 0.133950
H23   H     H_    0.930134 0.893813 0.899604 0.147701
H24   H     H_    0.905209 0.131309 0.070326 0.153457
H25   H     H_    0.675239 0.630350 0.154226 0.162252
H26   H     H_    0.672186 0.368963 0.846920 0.170116
H27   H     H_    0.449433 0.406972 0.378947 0.184161
H28   H     H_    0.628427 0.590432 0.795824 0.167003
C41   C     C_R   0.110459 0.322086 0.727696 -0.180604
C42   C     C_R   0.131387 0.706211 0.291109 -0.170297
C43   C     C_R   0.128096 0.700073 0.711538 -0.167634
C44   C     C_R   0.142284 0.276368 0.296911 -0.199160
C45   C     C_R   0.493332 0.817925 0.371720 -0.224958
C46   C     C_R   0.490823 0.186493 0.622718 -0.219028
C47   C     C_R   0.628179 0.196255 0.213301 -0.211244
C48   C     C_R   0.520640 0.836075 0.656999 -0.243446
C49   C     C_R   0.097941 0.369372 0.693057 -0.322936
C50   C     C_R   0.134011 0.665135 0.340589 -0.291480
C51   C     C_R   0.125997 0.657111 0.665826 -0.304782
C52   C     C_R   0.148312 0.313310 0.352022 -0.237983
C53   C     C_R   0.437540 0.853355 0.379801 -0.231532
C54   C     C_R   0.431484 0.155653 0.608382 -0.261794
C55   C     C_R   0.624891 0.153563 0.167299 -0.281950
C56   C     C_R   0.477915 0.879690 0.664084 -0.254840
C57   C     C_R   0.381425 0.855977 0.328868 0.557437
C58   C     C_R   0.371574 0.155110 0.655639 0.568925
C59   C     C_R   0.557499 0.133763 0.146362 0.553686
C60   C     C_R   0.419220 0.879930 0.712163 0.582261
C61   C     C_R   0.026718 0.385239 0.677310 0.510024
C62   C     C_R   0.069603 0.639685 0.360246 0.554858
C63   C     C_R   0.058500 0.633356 0.649519 0.576361
C64   C     C_R   0.085902 0.339252 0.376209 0.548782
C65   C     C_R   0.378064 0.819858 0.271467 0.030396
C66   C     C_R   0.371576 0.187623 0.717668 0.037097
C67   C     C_R   0.493338 0.159395 0.167576 0.114006
C68   C     C_R   0.399647 0.833971 0.748428 0.047563
C69   C     C_R   0.969475 0.349950 0.685047 0.120403
C70   C     C_R   0.002209 0.661504 0.340002 0.138154
C71   C     C_R   0.994276 0.659041 0.670967 0.116754
C72   C     C_R   0.017631 0.324709 0.347889 0.089327
C73   C     C_R   0.438049 0.784653 0.259278 -0.042776
C74   C     C_R   0.434832 0.218203 0.735696 -0.043241
C75   C     C_R   0.497504 0.207972 0.203020 -0.047131
C76   C     C_R   0.450275 0.791839 0.751768 -0.035216
C77   C     C_R   0.983843 0.299399 0.712389 -0.051819
C78   C     C_R   0.000040 0.708853 0.300629 -0.051108
C79   C     C_R   0.997567 0.708366 0.703244 -0.030696
C80   C     C_R   0.011104 0.278289 0.309447 -0.027605
C81   C     C_R   0.051884 0.288975 0.745704 0.047627
C82   C     C_R   0.063875 0.725145 0.264907 0.037555
C83   C     C_R   0.063066 0.723149 0.736528 0.044207
C84   C     C_R   0.072837 0.261795 0.270904 0.057672
C85   C     C_R   0.495841 0.784058 0.311098 0.037845
C86   C     C_R   0.493725 0.218342 0.685334 0.041588
C87   C     C_R   0.563802 0.221437 0.236698 0.056629
C88   C     C_R   0.509755 0.792330 0.702561 0.036512
C89   C     C_R   0.443755 0.750691 0.198135 -0.082082
C90   C     C_R   0.442921 0.248106 0.801029 -0.087101
C91   C     C_R   0.437995 0.242785 0.207089 -0.126095
C92   C     C_R   0.443832 0.749574 0.801428 -0.082743
C93   C     C_R   0.931458 0.259954 0.710670 -0.129104
C94   C     C_R   0.936002 0.738769 0.292484 -0.123495
C95   C     C_R   0.936343 0.741183 0.708186 -0.136409
C96   C     C_R   0.942738 0.254991 0.296804 -0.114272
C97   C     C_R   0.504756 0.717405 0.188693 0.006136
C98   C     C_R   0.505531 0.278931 0.813577 0.011724
C99   C     C_R   0.438533 0.282165 0.261302 0.028115
C100  C     C_R   0.492538 0.706843 0.798601 0.012879
C101  C     C_R   0.934968 0.219882 0.763628 0.018054
C102  C     C_R   0.928712 0.771132 0.230677 0.008112
C103  C     C_R   0.933062 0.777358 0.765990 0.031183
C104  C     C_R   0.932831 0.225969 0.232368 0.024180
C105  C     C_R   0.002167 0.208783 0.797719 -0.065290
C106  C     C_R   0.991587 0.787154 0.192094 -0.015860
C107  C     C_R   0.997974 0.791290 0.802424 -0.050702
C108  C     C_R   0.994462 0.209855 0.191790 -0.037661
C109  C     C_R   0.562049 0.717127 0.240730 -0.040373
C110  C     C_R   0.560278 0.282616 0.759368 -0.047408
C111  C     C_R   0.504756 0.294881 0.296221 -0.057637
C112  C     C_R   0.550208 0.706587 0.747065 -0.034282
C113  C     C_R   0.058503 0.246235 0.795266 -0.141842
C114  C     C_R   0.058279 0.759013 0.203868 -0.116896
C115  C     C_R   0.061009 0.759524 0.794184 -0.157345
C116  C     C_R   0.062911 0.234744 0.205180 -0.123939
C117  C     C_R   0.555660 0.749905 0.302469 -0.116219
C118  C     C_R   0.554515 0.250882 0.696572 -0.125433
C119  C     C_R   0.563671 0.259496 0.292330 -0.163451
C120  C     C_R   0.556551 0.749060 0.698032 -0.120921
C121  C     C_R   0.509838 0.684544 0.126859 -0.140479
C122  C     C_R   0.513910 0.307055 0.879716 -0.142973
C123  C     C_R   0.374674 0.308910 0.283075 -0.120999
C124  C     C_R   0.485310 0.664355 0.847482 -0.152829
C125  C     C_R   0.873215 0.190640 0.784286 -0.107023
C126  C     C_R   0.859346 0.786611 0.205367 -0.109210
C127  C     C_R   0.866441 0.799154 0.789979 -0.119821
C128  C     C_R   0.862465 0.214977 0.205047 -0.116763
C129  C     C_R   0.570435 0.653365 0.115617 -0.189303
C130  C     C_R   0.574223 0.338046 0.891723 -0.198245
C131  C     C_R   0.378703 0.352640 0.326978 -0.232435
C132  C     C_R   0.533148 0.622659 0.845159 -0.189512
C133  C     C_R   0.880626 0.146523 0.827697 -0.253361
C134  C     C_R   0.852344 0.823065 0.150048 -0.206248
C135  C     C_R   0.865557 0.839179 0.840625 -0.235913
C136  C     C_R   0.853251 0.182968 0.144901 -0.234028
C137  C     C_R   0.949635 0.129635 0.848380 -0.219384
C138  C     C_R   0.913851 0.847005 0.122215 -0.274068
C139  C     C_R   0.930810 0.859716 0.865470 -0.237811
C140  C     C_R   0.913372 0.158916 0.113934 -0.239684
C141  C     C_R   0.627371 0.653599 0.165421 -0.210967
C142  C     C_R   0.626238 0.343705 0.837507 -0.202687
C143  C     C_R   0.446177 0.371043 0.349072 -0.184897
C144  C     C_R   0.590713 0.622742 0.796197 -0.188454
C145  C     C_R   0.010891 0.159355 0.831200 0.589582
C146  C     C_R   0.984890 0.831329 0.144865 0.598968
C147  C     C_R   0.997192 0.837603 0.844352 0.583462
C148  C     C_R   0.983941 0.169324 0.140031 0.590117
C149  C     C_R   0.623887 0.684051 0.228742 0.512339
C150  C     C_R   0.618835 0.318227 0.770352 0.510734
C151  C     C_R   0.509636 0.343370 0.332813 0.578077
C152  C     C_R   0.601373 0.664631 0.748725 0.532825
H29   H     H_    0.166585 0.311528 0.737642 0.214742
H30   H     H_    0.182385 0.723435 0.274486 0.205923
H31   H     H_    0.180850 0.715684 0.725743 0.204978
H32   H     H_    0.191585 0.259618 0.274541 0.167352
H33   H     H_    0.535292 0.818267 0.413443 0.163253
H34   H     H_    0.534500 0.185095 0.582969 0.164340
H35   H     H_    0.681549 0.210186 0.228364 0.176498
H36   H     H_    0.563427 0.838148 0.616499 0.181138
H37   H     H_    0.143327 0.394737 0.681502 0.174942
H38   H     H_    0.186365 0.651343 0.360150 0.172263
H39   H     H_    0.177587 0.641399 0.647763 0.164610
H40   H     H_    0.201675 0.324907 0.371124 0.166305
H41   H     H_    0.437603 0.879116 0.426356 0.198725
H42   H     H_    0.431930 0.133344 0.558448 0.184104
H43   H     H_    0.674687 0.134284 0.150806 0.164713
H44   H     H_    0.489409 0.913389 0.630771 0.199077
H45   H     H_    0.467441 0.682893 0.085656 0.146612
H46   H     H_    0.474241 0.305383 0.923461 0.153595
H47   H     H_    0.320872 0.295422 0.268899 0.169465
H48   H     H_    0.442618 0.662569 0.888196 0.155914
H49   H     H_    0.818540 0.202526 0.769508 0.183306
H50   H     H_    0.810009 0.769454 0.226815 0.189292
H51   H     H_    0.814465 0.784329 0.771962 0.161525
H52   H     H_    0.814257 0.232931 0.227737 0.150164
H53   H     H_    0.833050 0.124211 0.842526 0.163792
H54   H     H_    0.798681 0.834732 0.131270 0.168672
H55   H     H_    0.814200 0.855748 0.858132 0.164103
H56   H     H_    0.799133 0.175334 0.123986 0.156849
H57   H     H_    0.573710 0.629380 0.067273 0.184600
H58   H     H_    0.579900 0.358604 0.942936 0.185282
H59   H     H_    0.329437 0.373130 0.342124 0.175593
H60   H     H_    0.526171 0.590364 0.882351 0.196223
C153  C     C_R   0.263326 0.053955 0.868571 -0.136677
C154  C     C_R   0.249610 0.947273 0.868516 -0.140894
C155  C     C_R   0.890096 0.546973 0.515182 -0.036551
C156  C     C_R   0.873763 0.452501 0.449344 -0.085747
C157  C     C_R   0.259584 0.027558 0.802499 -0.205173
C158  C     C_R   0.250644 0.974401 0.802455 -0.105641
C159  C     C_R   0.950971 0.520995 0.489118 -0.052174
C160  C     C_R   0.942344 0.474956 0.452686 -0.130640
C161  C     C_R   0.252596 0.973311 0.936118 0.060883
C162  C     C_R   0.256632 0.027419 0.936092 0.069212
C163  C     C_R   0.812778 0.475076 0.483901 0.064901
C164  C     C_R   0.818965 0.525965 0.508219 0.064135
C165  C     C_R   0.247105 0.946561 0.003250 -0.131579
C166  C     C_R   0.250661 0.053926 0.002927 -0.110598
C167  C     C_R   0.746305 0.448296 0.493417 -0.166306
C168  C     C_R   0.754248 0.553839 0.523712 -0.153582
C169  C     C_R   0.233946 0.973332 0.069350 0.006828
C170  C     C_R   0.237369 0.027575 0.069425 0.045327
C171  C     C_R   0.682145 0.475791 0.515837 0.035071
C172  C     C_R   0.689130 0.527311 0.538543 0.037087
C173  C     C_R   0.212928 0.947456 0.134296 -0.253451
C174  C     C_R   0.225362 0.054361 0.135715 -0.206347
C175  C     C_R   0.610676 0.454690 0.515580 -0.234649
C176  C     C_R   0.630864 0.551343 0.576183 -0.194270
C177  C     C_R   0.195474 0.974707 0.197897 0.200283
C178  C     C_R   0.204951 0.028313 0.199516 0.126262
C179  C     C_R   0.552379 0.479590 0.549863 0.142797
C180  C     C_R   0.563245 0.527571 0.582709 0.180878
H61   H     H_    0.268999 0.095349 0.866266 0.158096
H62   H     H_    0.242251 0.906117 0.866581 0.163347
H63   H     H_    0.901095 0.583079 0.541093 0.214256
H64   H     H_    0.868068 0.417741 0.418532 0.179772
H65   H     H_    0.262664 0.048520 0.751257 0.174238
H66   H     H_    0.245188 0.954080 0.751081 0.202343
H67   H     H_    0.004382 0.537776 0.494325 0.221662
H68   H     H_    0.988905 0.456718 0.427497 0.198460
I1    I     I_    0.081139 0.435361 0.997299 -0.313932
I2    I     I_    0.416974 0.563847 0.019200 -0.427929
I3    I     I_    0.082030 0.570662 0.977724 -0.316949
I4    I     I_    0.418560 0.429113 0.996234 -0.373619
I5    I     I_    0.581977 0.932136 0.486545 -0.447992
I6    I     I_    0.918809 0.068337 0.500402 -0.304970
I7    I     I_    0.581491 0.067471 0.495631 -0.390367
I8    I     I_    0.918354 0.932623 0.508414 -0.292668
O53   O     O_3   0.079084 0.137417 0.839995 -0.597007
C181  C     C_3   0.096260 0.111268 0.774583 -0.286858
H69   H     H_    0.152393 0.096271 0.778864 0.213269
H70   H     H_    0.094695 0.137602 0.726092 0.183017
H71   H     H_    0.059547 0.077706 0.766039 0.164685
O54   O     O_3   0.047172 0.861100 0.131672 -0.591135
C182  C     C_3   0.037189 0.900019 0.077959 -0.216734
H72   H     H_    0.000996 0.931250 0.098641 0.135421
H73   H     H_    0.017198 0.883604 0.025410 0.169476
H74   H     H_    0.090104 0.918298 0.066160 0.202456
O55   O     O_3   0.060066 0.865048 0.858308 -0.602572
C183  C     C_3   0.079013 0.892211 0.793890 -0.322003
H75   H     H_    0.031647 0.912946 0.768809 0.167054
H76   H     H_    0.104379 0.865765 0.753333 0.190110
H77   H     H_    0.119226 0.922095 0.808171 0.199618
O56   O     O_3   0.041526 0.138434 0.117559 -0.582415
C184  C     C_3   0.032393 0.088027 0.146008 -0.286583
H78   H     H_    0.033350 0.088191 0.207043 0.194446
H79   H     H_    0.077986 0.063618 0.126579 0.203337
H80   H     H_    0.981648 0.069456 0.125828 0.143931
O57   O     O_3   0.684537 0.685495 0.273998 -0.646182
C185  C     C_3   0.692490 0.637649 0.310644 -0.277203
H81   H     H_    0.712247 0.607122 0.272890 0.170729
H82   H     H_    0.640945 0.625449 0.337810 0.171331
H83   H     H_    0.734261 0.642109 0.354069 0.196119
O58   O     O_3   0.669728 0.328401 0.716451 -0.639512
C186  C     C_3   0.652909 0.376834 0.684520 -0.230583
H84   H     H_    0.658258 0.408811 0.724641 0.162695
H85   H     H_    0.597361 0.377042 0.659763 0.181846
H86   H     H_    0.692387 0.384557 0.640143 0.204794
O59   O     O_3   0.575766 0.365279 0.351307 -0.607234
C187  C     C_3   0.606662 0.387462 0.287922 -0.352420
H87   H     H_    0.658209 0.406785 0.303621 0.197962
H88   H     H_    0.569988 0.417375 0.263567 0.182375
H89   H     H_    0.620332 0.357537 0.246540 0.161883
O60   O     O_3   0.662341 0.663801 0.704427 -0.641685
C188  C     C_3   0.722346 0.681444 0.745584 -0.320219
H90   H     H_    0.740385 0.651612 0.785837 0.191091
H91   H     H_    0.710389 0.718546 0.773984 0.146911
H92   H     H_    0.768003 0.688883 0.707445 0.193978
I9    I     I_    0.185992 0.072949 0.294878 -0.331005
I10   I     I_    0.147324 0.933706 0.286376 -0.195807
I11   I     I_    0.479419 0.567671 0.639029 -0.310596
I12   I     I_    0.449977 0.441828 0.550853 -0.353191
O61   O     O_3   0.326389 0.891969 0.338544 -0.574029
C189  C     C_3   0.352020 0.940613 0.314858 -0.194435
H93   H     H_    0.364734 0.940253 0.255197 0.167780
H94   H     H_    0.400411 0.953263 0.346860 0.165908
H95   H     H_    0.308584 0.969809 0.323758 0.223305
O62   O     O_3   0.308695 0.127281 0.639299 -0.598350
C190  C     C_3   0.324479 0.077825 0.610784 -0.270301
H96   H     H_    0.370752 0.058620 0.639856 0.154256
H97   H     H_    0.334927 0.080208 0.550927 0.194718
H98   H     H_    0.275835 0.053048 0.618141 0.199757
O63   O     O_3   0.554635 0.087176 0.110026 -0.584858
C191  C     C_3   0.550072 0.097517 0.034199 -0.275197
H99   H     H_    0.599144 0.118541 0.014392 0.142353
H100  H     H_    0.499661 0.119642 0.020251 0.190858
H101  H     H_    0.547630 0.060230 0.004623 0.196217
O64   O     O_3   0.376942 0.923930 0.718103 -0.607155
C192  C     C_3   0.417580 0.961724 0.756058 -0.317243
H102  H     H_    0.473643 0.967196 0.734161 0.152508
H103  H     H_    0.420118 0.952081 0.815488 0.188642
H104  H     H_    0.390159 0.999609 0.749675 0.197904
O65   O     O_3   0.012803 0.434584 0.651438 -0.621527
C193  C     C_3   0.020091 0.469552 0.710041 -0.212854
H105  H     H_    0.078356 0.474588 0.725211 0.146021
H106  H     H_    0.987800 0.457449 0.758862 0.181993
H107  H     H_    0.998476 0.507622 0.692243 0.248799
O66   O     O_3   0.071268 0.595199 0.402594 -0.614510
C194  C     C_3   0.106684 0.555300 0.363770 -0.290736
H108  H     H_    0.166388 0.561994 0.360616 0.164430
H109  H     H_    0.083209 0.550373 0.307885 0.189045
H110  H     H_    0.098670 0.518440 0.393892 0.204649
O67   O     O_3   0.050729 0.586253 0.613378 -0.622034
C195  C     C_3   0.116859 0.559267 0.602740 -0.306209
H111  H     H_    0.146272 0.552962 0.655441 0.160381
H112  H     H_    0.151419 0.579374 0.561621 0.196381
H113  H     H_    0.104317 0.520528 0.580435 0.208430
O68   O     O_3   0.093771 0.383518 0.417172 -0.625675
C196  C     C_3   0.067917 0.373455 0.488532 -0.299328
H114  H     H_    0.098196 0.340846 0.514772 0.170703
H115  H     H_    0.008278 0.365593 0.488566 0.197902
H116  H     H_    0.077212 0.408288 0.522327 0.221090
I13   I     I_    0.275655 0.821845 0.215094 -0.312516
I14   I     I_    0.268280 0.188345 0.772174 -0.357285
I15   I     I_    0.395454 0.115429 0.168523 -0.318746
I16   I     I_    0.285972 0.825956 0.770229 -0.391557
I17   I     I_    0.861343 0.380422 0.676779 -0.307854
I18   I     I_    0.908989 0.612528 0.342784 -0.342621
I19   I     I_    0.897827 0.614834 0.686790 -0.404237
I20   I     I_    0.951291 0.384210 0.303881 -0.387997

loop_
_geom_bond_atom_site_label_1
_geom_bond_atom_site_label_2
_geom_bond_distance
_ccdc_geom_bond_type
C48   C88   1.416317 A    
C179  I12   2.121232 S    
C25   I1    2.178688 S    
C41   H29   1.078702 S    
C32   C39   1.562275 S    
C129  C141  1.383202 A    
C163  C164  1.397271 A    
C27   I3    2.178400 S    
C21   C37   1.494021 S    
C62   C70   1.404769 A    
O26   C7    1.297260 A    
C23   C39   1.495018 S    
C75   C87   1.407564 A    
C166  C170  1.410758 A    
C109  C149  1.435646 A    
C66   I14   2.140912 S    
O30   C11   1.286190 A    
C154  H62   1.075279 S    
C130  H58   1.082702 S    
C53   C57   1.386736 A    
Zn12  O26   1.928242 S    
C29   C31   1.565029 S    
C56   C60   1.389589 A    
C181  H69   1.101141 S    
C55   C59   1.393770 A    
C29   H5    1.113510 S    
C110  C118  1.417219 A    
C47   C55   1.392567 A    
H26   C142  1.082982 S    
C52   H40   1.082651 S    
O11   C7    1.275918 A    
C53   H41   1.082529 S    
O34   C15   1.292252 A    
C87   C119  1.418079 A    
C188  H92   1.106413 S    
C70   C78   1.417827 A    
O54   C182  1.412930 S    
C49   H37   1.082828 S    
O56   C184  1.412576 S    
C68   I16   2.133838 S    
Zn1   O44   1.952863 S    
C25   H1    1.113551 S    
Zn2   O43   1.952866 S    
C193  H106  1.114663 S    
H23   C139  1.082877 S    
C187  H89   1.112512 S    
C161  C165  1.407751 A    
Zn5   O48   1.952863 S    
C57   C65   1.408907 A    
Zn6   O47   1.952866 S    
Zn15  O3    1.957414 S    
Zn7   O46   1.948116 S    
C127  H51   1.080588 S    
O16   C12   1.309832 A    
C49   C61   1.396528 A    
C189  H94   1.113016 S    
O59   C187  1.409244 S    
C173  C177  1.397805 A    
Zn16  O4    1.949061 S    
C133  H53   1.082494 S    
C108  C116  1.434845 A    
C181  H71   1.113040 S    
Zn1   O13   1.936335 S    
C22   C38   1.493825 S    
C141  C149  1.403227 A    
H18   C36   1.112501 S    
C26   C28   1.566071 S    
H24   C140  1.082811 S    
C139  C147  1.398444 A    
Zn4   O16   1.936971 S    
C46   C86   1.413273 A    
H28   C144  1.082978 S    
O65   C193  1.410975 S    
Zn6   O4    1.941615 S    
C93   C101  1.415091 A    
C7    C93   1.485036 S    
C153  H61   1.077669 S    
C183  H75   1.115444 S    
C111  C151  1.427826 A    
C61   O65   1.382069 S    
C190  H96   1.113897 S    
C31   C40   1.562550 S    
C62   O66   1.383604 S    
C155  C164  1.421404 A    
C174  C178  1.394637 A    
C30   H6    1.113527 S    
Zn10  O22   1.928242 S    
C59   C67   1.404152 A    
C196  H114  1.113959 S    
O25   C8    1.281311 A    
Zn13  O29   1.933932 S    
Zn10  O2    1.957715 S    
C158  H66   1.081842 S    
C44   C84   1.412127 A    
C63   C71   1.406966 A    
C134  C138  1.385339 A    
O29   C12   1.269485 A    
C45   C85   1.415487 A    
Zn15  O33   1.933932 S    
O58   C186  1.412410 S    
C43   C83   1.408930 A    
O66   C194  1.411802 S    
O55   C183  1.411053 S    
C26   H2    1.113495 S    
O37   C17   1.270477 A    
O48   C23   1.278245 A    
C122  C130  1.387172 A    
C191  H99   1.113619 S    
C192  H103  1.112162 S    
C186  H84   1.112359 S    
Zn16  O35   1.932838 S    
C28   I4    2.179157 S    
C99   C123  1.416215 A    
C189  H93   1.113487 S    
C186  H86   1.104971 S    
C35   C36   1.534092 S    
C97   C121  1.419254 A    
Zn7   O10   1.936928 S    
C90   C98   1.420234 A    
O33   C16   1.280703 A    
C132  C144  1.383937 A    
C101  C125  1.415561 A    
C52   C64   1.397636 A    
O40   C20   1.296457 A    
O67   C195  1.411063 S    
C106  C146  1.432967 A    
C136  C140  1.386301 A    
C82   C114  1.417007 A    
C159  H67   1.077622 S    
C84   C116  1.403641 A    
O62   C190  1.413308 S    
C122  H46   1.081529 S    
C185  H82   1.114234 S    
C13   C117  1.451676 S    
Zn5   O17   1.936335 S    
C102  C106  1.414545 A    
C26   I2    2.178588 S    
C149  O57   1.385023 S    
C1    C91   1.490125 S    
C2    C92   1.457766 S    
C12   C116  1.488348 S    
C65   C73   1.443623 A    
C64   C72   1.407399 A    
C25   C27   1.565831 S    
C47   H35   1.080310 S    
C74   C86   1.419046 A    
C107  C115  1.424256 A    
O28   C5    1.295049 A    
H25   C141  1.082436 S    
C3    C89   1.449662 S    
C183  H77   1.103164 S    
C105  C113  1.420653 A    
O60   C188  1.410342 S    
C27   H3    1.113637 S    
C25   C37   1.562964 S    
C184  H79   1.105664 S    
C32   H8    1.113467 S    
Zn8   O3    1.951117 S    
C97   C109  1.415000 A    
C135  H55   1.082493 S    
C164  C168  1.415848 A    
C8    C94   1.489460 S    
O68   C196  1.409566 S    
C196  H116  1.108647 S    
C61   C69   1.401561 A    
O38   C18   1.280425 A    
C170  C174  1.414154 A    
C96   C104  1.410303 A    
C180  I11   2.120861 S    
C71   I19   2.130328 S    
C72   I20   2.112996 S    
O5    C1    1.281558 A    
O32   C9    1.296811 A    
C100  C112  1.416200 A    
C112  C152  1.432305 A    
C33   C37   1.556293 S    
C64   O68   1.379266 S    
C35   C39   1.555822 S    
C104  C108  1.414574 A    
Zn15  O51   1.949057 S    
C187  H88   1.113685 S    
C161  C162  1.402969 A    
C151  O59   1.383289 S    
Zn11  O28   1.932811 S    
Zn12  O40   1.949016 S    
C138  C146  1.422942 A    
C191  H101  1.109263 S    
Zn7   O4    1.951118 S    
C50   H38   1.082285 S    
O8    C4    1.275610 A    
C185  H83   1.108035 S    
C71   C79   1.410358 A    
C190  H98   1.109032 S    
Zn9   O1    1.949362 S    
C72   C80   1.399956 A    
C162  C166  1.406344 A    
C58   C66   1.413744 A    
C157  H65   1.080146 S    
C195  H111  1.112658 S    
C42   H30   1.081103 S    
O50   C18   1.268403 A    
C50   C62   1.401373 A    
Zn1   O1    1.941616 S    
C19   C168  1.466533 S    
C46   H34   1.081901 S    
Zn13  O1    1.957414 S    
Zn2   O14   1.936444 S    
C20   C167  1.475628 S    
C48   C56   1.378137 A    
C48   H36   1.079912 S    
C27   C38   1.564041 S    
C171  C175  1.422313 A    
C42   C50   1.391872 A    
O9    C5    1.283228 A    
O39   C19   1.268395 A    
O36   C13   1.278192 A    
C182  H74   1.102607 S    
C68   C76   1.430174 A    
C31   I7    2.180497 S    
C80   C84   1.399885 A    
O13   C9    1.282300 A    
C126  C134  1.383526 A    
Zn1   O8    1.936401 S    
C69   I17   2.135814 S    
Zn2   O7    1.936290 S    
C169  C173  1.412993 A    
Zn3   O6    1.936928 S    
C181  H70   1.114278 S    
O18   C14   1.276388 A    
O31   C10   1.275537 A    
O6    C2    1.277673 A    
C58   O62   1.395146 S    
Zn4   O41   1.948113 S    
C121  C129  1.386685 A    
C42   C82   1.411448 A    
C150  O58   1.381939 S    
C136  H56   1.082211 S    
C176  C180  1.391903 A    
C44   H32   1.082349 S    
C135  C139  1.388144 A    
O63   C191  1.409902 S    
Zn14  O30   1.933064 S    
C132  H60   1.082129 S    
C11   C115  1.489320 S    
C188  H91   1.114709 S    
Zn11  O3    1.949362 S    
O41   C21   1.274200 A    
C123  H47   1.079690 S    
C41   C49   1.392639 A    
C110  C150  1.433039 A    
Zn16  O34   1.933064 S    
C194  H110  1.109114 S    
C155  H63   1.069447 S    
C88   C120  1.410872 A    
C124  C132  1.388755 A    
C143  C151  1.396908 A    
Zn8   O20   1.936971 S    
C30   I6    2.179273 S    
C60   O64   1.379796 S    
C146  O54   1.401251 S    
C67   C75   1.419271 A    
C78   C82   1.406099 A    
H20   C35   1.112297 S    
C55   H43   1.082564 S    
C153  C162  1.413038 A    
C36   C40   1.553700 S    
C56   H44   1.082306 S    
C30   C40   1.563254 S    
C109  C117  1.418301 A    
C148  O56   1.385610 S    
C134  H54   1.082804 S    
C103  C107  1.411803 A    
Zn8   O9    1.931833 S    
C195  H113  1.109142 S    
C108  C148  1.428692 A    
C127  C135  1.391826 A    
C153  C157  1.390400 A    
H9    C173  1.077737 S    
C190  H97   1.110382 S    
C155  C159  1.386670 A    
C179  C180  1.396808 A    
O7    C3    1.277678 A    
C156  C160  1.389390 A    
C183  H76   1.111706 S    
H16   C33   1.112763 S    
O19   C15   1.284290 A    
O44   C21   1.277929 A    
C18   C165  1.446982 S    
H22   C138  1.080227 S    
Zn9   O24   1.932811 S    
Zn6   O18   1.936444 S    
Zn10  O23   1.933682 S    
C47   C87   1.413714 A    
C182  H72   1.111578 S    
C157  C158  1.386535 A    
C147  O55   1.381184 S    
C159  C160  1.377226 A    
C66   C74   1.445896 A    
C131  C143  1.388019 A    
O14   C10   1.298399 A    
C74   C90   1.432401 A    
C111  C119  1.415473 A    
Zn15  O36   1.928494 S    
O15   C11   1.292347 A    
O42   C22   1.276285 A    
C4    C90   1.452130 S    
C33   C34   1.534259 S    
C54   H42   1.081116 S    
Zn4   O1    1.951117 S    
C121  H45   1.081826 S    
C32   I8    2.179468 S    
C79   C83   1.400919 A    
Zn9   O37   1.953205 S    
O12   C8    1.289134 A    
Zn11  O39   1.953205 S    
C94   C102  1.407078 A    
C191  H100  1.113817 S    
C192  H102  1.113008 S    
C59   O63   1.380325 S    
O51   C19   1.292166 A    
C15   C119  1.486930 S    
C194  H108  1.110901 S    
C186  H85   1.113743 S    
C193  H105  1.111860 S    
Zn5   O3    1.941616 S    
C57   O61   1.382671 S    
C31   H7    1.113507 S    
C45   H33   1.081668 S    
C46   C54   1.378163 A    
C128  C136  1.388944 A    
C67   I15   2.129977 S    
C178  I9    2.121646 S    
C165  C169  1.414434 A    
O53   C181  1.410301 S    
C65   I13   2.140282 S    
C189  H95   1.108324 S    
Zn3   O42   1.948116 S    
C168  C172  1.406268 A    
C99   C111  1.411662 A    
C177  C178  1.399757 A    
O21   C4    1.277626 A    
C125  C133  1.392428 A    
C144  C152  1.398866 A    
C123  C131  1.392252 A    
C131  H59   1.082576 S    
C172  C176  1.414579 A    
C177  I10   2.122915 S    
C130  C142  1.382878 A    
Zn2   O2    1.941615 S    
C169  C170  1.405861 A    
Zn14  O2    1.949061 S    
C163  C167  1.415631 A    
C29   C39   1.562439 S    
C51   C63   1.416589 A    
O64   C192  1.415673 S    
C44   C52   1.395749 A    
C193  H107  1.107516 S    
C156  H64   1.068865 S    
C45   C53   1.379590 A    
C98   C122  1.420925 A    
Zn13  O49   1.949057 S    
H19   C36   1.112259 S    
C43   C51   1.394144 A    
Zn12  O4    1.957715 S    
C51   H39   1.080780 S    
C102  C126  1.408528 A    
C95   C103  1.415063 A    
Zn12  O27   1.933682 S    
C196  H115  1.113471 S    
C79   C95   1.408215 A    
C80   C96   1.412983 A    
C107  C147  1.425465 A    
C69   C77   1.421419 A    
C83   C115  1.415776 A    
C105  C145  1.423258 A    
C70   I18   2.133572 S    
Zn3   O2    1.951118 S    
C81   C113  1.429870 A    
C41   C81   1.415328 A    
C14   C118  1.454596 S    
C156  C163  1.410625 A    
O46   C24   1.276133 A    
O47   C24   1.275402 A    
C101  C105  1.407464 A    
Zn16  O52   1.953248 S    
C167  C171  1.433662 A    
Zn8   O45   1.948113 S    
C192  H104  1.105663 S    
O27   C6    1.289464 A    
C112  C120  1.419093 A    
H15   C34   1.112589 S    
C133  C137  1.388249 A    
C142  C150  1.401045 A    
C106  C114  1.436122 A    
C24   C40   1.492994 S    
C100  C124  1.419167 A    
C26   C38   1.563433 S    
C98   C110  1.413535 A    
O24   C1    1.296698 A    
C128  H52   1.080937 S    
C104  C128  1.413410 A    
C195  H112  1.111632 S    
C29   I5    2.173300 S    
C171  C172  1.404911 A    
C175  C179  1.396300 A    
H21   C137  1.082802 S    
O43   C22   1.275739 A    
C126  H50   1.082596 S    
C34   C38   1.554118 S    
Zn3   O15   1.931875 S    
Zn5   O12   1.936401 S    
C76   C88   1.413832 A    
C154  C161  1.409598 A    
Zn6   O11   1.936290 S    
C77   C81   1.411527 A    
C73   C85   1.419187 A    
C152  O60   1.380740 S    
Zn9   O21   1.932588 S    
Zn14  O50   1.953248 S    
H13   C33   1.112183 S    
H12   C176  1.081419 S    
C182  H73   1.112917 S    
O35   C14   1.273650 A    
C60   C68   1.406581 A    
C5    C95   1.490842 S    
C6    C96   1.491610 S    
C137  C145  1.399512 A    
C78   C94   1.411117 A    
C154  C158  1.391876 A    
H10   C174  1.081753 S    
C63   O67   1.396917 S    
O52   C20   1.270351 A    
C160  H68   1.078434 S    
C124  H48   1.080985 S    
C125  H49   1.080926 S    
O61   C189  1.411994 S    
C184  H80   1.112503 S    
C10   C114  1.493513 S    
O22   C3    1.279281 A    
C129  H57   1.082775 S    
C91   C99   1.424046 A    
Zn7   O19   1.931875 S    
C43   H31   1.081873 S    
O20   C16   1.277838 A    
C89   C97   1.420272 A    
Zn13  O32   1.928494 S    
C85   C117  1.415345 A    
O49   C17   1.272695 A    
Zn14  O31   1.932838 S    
C9    C113  1.491623 S    
C188  H90   1.111843 S    
C30   C32   1.566478 S    
C75   C91   1.414527 A    
C140  C148  1.406064 A    
C28   H4    1.113549 S    
H17   C35   1.112586 S    
C73   C89   1.427475 A    
Zn4   O5    1.931833 S    
C194  H109  1.114256 S    
C185  H81   1.110817 S    
C76   C92   1.422317 A    
H11   C175  1.074592 S    
C17   C166  1.437843 S    
C77   C93   1.405637 A    
C187  H87   1.109484 S    
O10   C6    1.294168 A    
O23   C2    1.286224 A    
H27   C143  1.082261 S    
C28   C37   1.562466 S    
Zn11  O25   1.932588 S    
Zn10  O38   1.949016 S    
H14   C34   1.111993 S    
C16   C120  1.451272 S    
C103  C127  1.414452 A    
C92   C100  1.419868 A    
C54   C58   1.397690 A    
C86   C118  1.415688 A    
C145  O53   1.380031 S    
O57   C185  1.411325 S    
O17   C13   1.275993 A    
O45   C23   1.274258 A    
C184  H78   1.113591 S    
