data_mof_unit_60274.cif
_audit_creation_date              2012-12-10T17:07:39-0500
_audit_creation_method            fapswitch 2.2
_symmetry_space_group_name_H-M    P1
_symmetry_Int_Tables_number       1
_space_group_crystal_system       triclinic
_cell_length_a                    30.208673
_cell_length_b                    30.208673
_cell_length_c                    23.67574
_cell_angle_alpha                 89.999046
_cell_angle_beta                  89.999045
_cell_angle_gamma                 89.999001
_cell_volume                      21605.6261987

loop_
_atom_site_label
_atom_site_type_symbol
_atom_type_description
_atom_site_fract_x
_atom_site_fract_y
_atom_site_fract_z
_atom_type_partial_charge
C1    C     C_R   0.585435 1.000000 0.500000 0.878454
C2    C     C_R   1.000000 0.585435 0.500000 0.878453
C3    C     C_R   0.414565 0.000000 0.500000 0.878454
C4    C     C_R   0.000000 0.414565 0.500000 0.878455
C5    C     C_R   0.085435 0.500000 1.000000 0.878454
C6    C     C_R   0.500000 0.085435 0.000000 0.878453
C7    C     C_R   0.914565 0.500000 1.000000 0.878454
C8    C     C_R   0.500000 0.914565 0.000000 0.878455
C9    C     C_R   0.726608 0.045532 0.585830 0.284178
C10   C     C_R   0.954467 0.726610 0.585835 0.284176
C11   C     C_R   0.273389 0.954466 0.585831 0.284176
C12   C     C_R   0.045532 0.273387 0.585832 0.284175
C13   C     C_R   0.726613 0.954468 0.414168 0.284175
C14   C     C_R   0.954469 0.273392 0.414169 0.284178
C15   C     C_R   0.273390 0.045533 0.414165 0.284176
C16   C     C_R   0.045534 0.726611 0.414170 0.284176
C17   C     C_R   0.226608 0.545532 0.085830 0.284178
C18   C     C_R   0.454467 0.226610 0.085835 0.284175
C19   C     C_R   0.773389 0.454466 0.085830 0.284176
C20   C     C_R   0.545532 0.773387 0.085832 0.284176
C21   C     C_R   0.226613 0.454468 0.914168 0.284176
C22   C     C_R   0.454468 0.773392 0.914170 0.284178
C23   C     C_R   0.773389 0.545533 0.914165 0.284176
C24   C     C_R   0.545534 0.226611 0.914169 0.284176
C25   C     C_R   0.702820 0.020370 0.545299 -0.043898
C26   C     C_R   0.979628 0.702821 0.545302 -0.043901
C27   C     C_R   0.297178 0.979628 0.545298 -0.043900
C28   C     C_R   0.020371 0.297178 0.545301 -0.043899
C29   C     C_R   0.702822 0.979629 0.454699 -0.043899
C30   C     C_R   0.979630 0.297180 0.454701 -0.043898
C31   C     C_R   0.297179 0.020372 0.454698 -0.043901
C32   C     C_R   0.020372 0.702822 0.454702 -0.043899
C33   C     C_R   0.202820 0.520371 0.045298 -0.043898
C34   C     C_R   0.479628 0.202821 0.045302 -0.043901
C35   C     C_R   0.797178 0.479628 0.045298 -0.043899
C36   C     C_R   0.520371 0.797178 0.045301 -0.043899
C37   C     C_R   0.202822 0.479629 0.954699 -0.043899
C38   C     C_R   0.479629 0.797180 0.954701 -0.043898
C39   C     C_R   0.797179 0.520372 0.954698 -0.043901
C40   C     C_R   0.520372 0.202822 0.954702 -0.043899
C41   C     C_R   0.726166 0.000000 0.499999 -0.094111
C42   C     C_R   0.000000 0.726166 0.500002 -0.094109
C43   C     C_R   0.273834 0.999999 0.499998 -0.094109
C44   C     C_R   1.000000 0.273834 0.500001 -0.094111
C45   C     C_R   0.226166 0.500000 0.999999 -0.094111
C46   C     C_R   0.500000 0.226166 0.000002 -0.094109
C47   C     C_R   0.773834 0.500000 0.999998 -0.094109
C48   C     C_R   0.500000 0.773834 0.000001 -0.094111
C49   C     C_R   0.656472 0.014560 0.548036 0.225704
C50   C     C_R   0.985438 0.656472 0.548039 0.225704
C51   C     C_R   0.343527 0.985439 0.548036 0.225704
C52   C     C_R   0.014561 0.343527 0.548038 0.225704
C53   C     C_R   0.656473 0.985439 0.451962 0.225704
C54   C     C_R   0.985440 0.343528 0.451964 0.225704
C55   C     C_R   0.343528 0.014562 0.451961 0.225704
C56   C     C_R   0.014561 0.656473 0.451964 0.225704
C57   C     C_R   0.156472 0.514560 0.048036 0.225704
C58   C     C_R   0.485438 0.156472 0.048039 0.225704
C59   C     C_R   0.843527 0.485439 0.048036 0.225704
C60   C     C_R   0.514561 0.843527 0.048038 0.225704
C61   C     C_R   0.156473 0.485439 0.951962 0.225704
C62   C     C_R   0.485440 0.843528 0.951964 0.225704
C63   C     C_R   0.843528 0.514562 0.951961 0.225704
C64   C     C_R   0.514561 0.156473 0.951964 0.225704
C65   C     C_R   0.633675 0.999999 0.499999 -0.177201
C66   C     C_R   0.999999 0.633675 0.500001 -0.177202
C67   C     C_R   0.366325 0.000001 0.499999 -0.177202
C68   C     C_R   0.000001 0.366325 0.500000 -0.177201
C69   C     C_R   0.133675 0.499999 0.999999 -0.177201
C70   C     C_R   0.499999 0.133675 0.000001 -0.177202
C71   C     C_R   0.866325 0.500001 0.999999 -0.177202
C72   C     C_R   0.500001 0.866325 0.000000 -0.177201
C73   C     C_R   1.000000 0.914135 0.500000 0.803679
C74   C     C_R   0.085865 0.000000 0.500000 0.803679
C75   C     C_R   0.000000 0.085865 0.500000 0.803682
C76   C     C_R   0.914135 0.999999 0.500000 0.803682
C77   C     C_R   0.500000 0.414135 0.000000 0.803679
C78   C     C_R   0.585865 0.500000 1.000000 0.803679
C79   C     C_R   0.500000 0.585865 1.000000 0.803682
C80   C     C_R   0.414135 0.499999 0.000000 0.803682
C81   C     C_R   0.500000 1.000000 0.608101 0.846058
C82   C     C_R   1.000000 0.500000 0.608101 0.846062
C83   C     C_R   0.500000 0.000000 0.391899 0.846062
C84   C     C_R   0.000000 0.500000 0.391899 0.846059
C85   C     C_R   1.000000 0.500000 0.108101 0.846058
C86   C     C_R   0.500000 0.000000 0.108101 0.846061
C87   C     C_R   1.000000 0.500000 0.891899 0.846062
C88   C     C_R   0.500000 1.000000 0.891899 0.846059
C89   C     C_1   0.500000 0.999999 0.668979 -0.048342
C90   C     C_1   0.999999 0.500000 0.668979 -0.048338
C91   C     C_1   0.500000 0.000001 0.331021 -0.048338
C92   C     C_1   0.000001 0.500000 0.331021 -0.048342
C93   C     C_1   0.000000 0.499999 0.168979 -0.048342
C94   C     C_1   0.499999 0.000000 0.168979 -0.048338
C95   C     C_1   1.000000 0.500001 0.831021 -0.048338
C96   C     C_1   0.500001 1.000000 0.831021 -0.048342
C97   C     C_1   0.500001 0.999999 0.720055 0.091356
C98   C     C_1   0.999999 0.500001 0.720055 0.091358
C99   C     C_1   0.499999 0.000001 0.279945 0.091358
C100  C     C_1   0.000001 0.499999 0.279945 0.091356
C101  C     C_1   0.000001 0.499999 0.220055 0.091356
C102  C     C_1   0.499999 0.000001 0.220055 0.091358
C103  C     C_1   0.999999 0.500001 0.779945 0.091358
C104  C     C_1   0.500001 0.999999 0.779945 0.091356
C105  C     C_R   0.842681 0.980233 0.455667 -0.140223
C106  C     C_R   0.019768 0.842681 0.455668 -0.140223
C107  C     C_R   0.157320 0.019766 0.455665 -0.140225
C108  C     C_R   0.980235 0.157321 0.455666 -0.140224
C109  C     C_R   0.842679 0.019765 0.544334 -0.140224
C110  C     C_R   0.019767 0.157319 0.544333 -0.140223
C111  C     C_R   0.157319 0.980232 0.544332 -0.140223
C112  C     C_R   0.980234 0.842680 0.544335 -0.140225
C113  C     C_R   0.342681 0.480233 0.955667 -0.140223
C114  C     C_R   0.519768 0.342680 0.955668 -0.140223
C115  C     C_R   0.657320 0.519766 0.955665 -0.140225
C116  C     C_R   0.480235 0.657321 0.955666 -0.140225
C117  C     C_R   0.342679 0.519765 0.044334 -0.140224
C118  C     C_R   0.519767 0.657319 0.044333 -0.140224
C119  C     C_R   0.657319 0.480232 0.044332 -0.140223
C120  C     C_R   0.480234 0.342680 0.044335 -0.140225
C121  C     C_R   0.865706 0.999999 0.500001 -0.100984
C122  C     C_R   0.000001 0.865706 0.500001 -0.100980
C123  C     C_R   0.134294 0.999999 0.499999 -0.100981
C124  C     C_R   0.000001 0.134294 0.499999 -0.100984
C125  C     C_R   0.365706 0.499999 0.000001 -0.100984
C126  C     C_R   0.500001 0.365706 0.000001 -0.100980
C127  C     C_R   0.634294 0.499999 0.999999 -0.100981
C128  C     C_R   0.500001 0.634294 0.999999 -0.100984
C129  C     C_R   0.796267 0.020988 0.544458 0.016715
C130  C     C_R   0.979012 0.796268 0.544460 0.016715
C131  C     C_R   0.203731 0.979010 0.544457 0.016713
C132  C     C_R   0.020988 0.203730 0.544458 0.016715
C133  C     C_R   0.796270 0.979011 0.455542 0.016715
C134  C     C_R   0.979012 0.203733 0.455542 0.016715
C135  C     C_R   0.203732 0.020988 0.455540 0.016716
C136  C     C_R   0.020990 0.796269 0.455543 0.016713
C137  C     C_R   0.296267 0.520988 0.044458 0.016715
C138  C     C_R   0.479012 0.296268 0.044460 0.016715
C139  C     C_R   0.703731 0.479010 0.044457 0.016713
C140  C     C_R   0.520989 0.703730 0.044458 0.016715
C141  C     C_R   0.296270 0.479011 0.955542 0.016715
C142  C     C_R   0.479012 0.703732 0.955542 0.016715
C143  C     C_R   0.703732 0.520988 0.955540 0.016716
C144  C     C_R   0.520990 0.296269 0.955543 0.016712
C145  C     C_R   0.772835 1.000000 0.499999 0.022536
C146  C     C_R   0.000001 0.772835 0.500002 0.022537
C147  C     C_R   0.227165 0.999999 0.499998 0.022537
C148  C     C_R   0.000000 0.227165 0.500000 0.022536
C149  C     C_R   0.272835 0.500000 1.000000 0.022536
C150  C     C_R   0.500001 0.272835 0.000002 0.022537
C151  C     C_R   0.727165 0.499999 0.999998 0.022537
C152  C     C_R   0.500000 0.727165 0.000000 0.022536
C153  C     C_R   0.773069 0.044035 0.586911 0.199901
C154  C     C_R   0.955964 0.773072 0.586915 0.199900
C155  C     C_R   0.226928 0.955963 0.586911 0.199899
C156  C     C_R   0.044035 0.226926 0.586912 0.199902
C157  C     C_R   0.773074 0.955965 0.413088 0.199902
C158  C     C_R   0.955966 0.226930 0.413089 0.199901
C159  C     C_R   0.226928 0.044035 0.413085 0.199900
C160  C     C_R   0.044037 0.773072 0.413089 0.199899
C161  C     C_R   0.273070 0.544035 0.086911 0.199901
C162  C     C_R   0.455964 0.273072 0.086915 0.199901
C163  C     C_R   0.726928 0.455963 0.086911 0.199899
C164  C     C_R   0.544035 0.726926 0.086912 0.199901
C165  C     C_R   0.273074 0.455965 0.913088 0.199901
C166  C     C_R   0.455965 0.726930 0.913089 0.199901
C167  C     C_R   0.726928 0.544036 0.913085 0.199900
C168  C     C_R   0.544037 0.273072 0.913089 0.199900
Cu1   Cu    Cu3+1 0.500000 0.044510 0.500000 1.122360
Cu2   Cu    Cu3+1 0.955490 0.500000 0.500000 1.122360
Cu3   Cu    Cu3+1 0.500000 0.955490 0.500000 1.122361
Cu4   Cu    Cu3+1 0.044510 0.500000 0.500000 1.122361
Cu5   Cu    Cu3+1 1.000000 0.544510 0.000000 1.122360
Cu6   Cu    Cu3+1 0.455490 0.000000 0.000000 1.122360
Cu7   Cu    Cu3+1 0.000000 0.455490 0.000000 1.122361
Cu8   Cu    Cu3+1 0.544510 0.000000 0.000000 1.122361
Cu9   Cu    Cu3+1 0.000000 0.000000 0.555810 1.062482
Cu10  Cu    Cu3+1 0.000000 0.000000 0.444190 1.062482
Cu11  Cu    Cu3+1 0.500000 0.500000 0.055810 1.062482
Cu12  Cu    Cu3+1 0.500000 0.500000 0.944190 1.062482
H1    H     H_    0.861655 0.964925 0.422255 0.197804
H2    H     H_    0.035076 0.861653 0.422254 0.197803
H3    H     H_    0.138347 0.035075 0.422253 0.197802
H4    H     H_    0.964928 0.138349 0.422253 0.197803
H5    H     H_    0.861651 0.035072 0.577747 0.197803
H6    H     H_    0.035075 0.138345 0.577745 0.197804
H7    H     H_    0.138346 0.964924 0.577746 0.197803
H8    H     H_    0.964924 0.861653 0.577747 0.197802
H9    H     H_    0.361655 0.464925 0.922255 0.197804
H10   H     H_    0.535076 0.361654 0.922254 0.197803
H11   H     H_    0.638347 0.535076 0.922253 0.197802
H12   H     H_    0.464928 0.638348 0.922253 0.197803
H13   H     H_    0.361651 0.535072 0.077747 0.197803
H14   H     H_    0.535075 0.638345 0.077745 0.197804
H15   H     H_    0.638346 0.464924 0.077745 0.197803
H16   H     H_    0.464925 0.361653 0.077747 0.197802
O1    O     O_R   0.564850 0.037600 0.500050 -0.557156
O2    O     O_R   0.962400 0.564850 0.500050 -0.557157
O3    O     O_R   0.435150 0.962400 0.500050 -0.557156
O4    O     O_R   0.037600 0.435150 0.500050 -0.557156
O5    O     O_R   0.564850 0.962400 0.499950 -0.557156
O6    O     O_R   0.962400 0.435150 0.499950 -0.557156
O7    O     O_R   0.435150 0.037600 0.499950 -0.557157
O8    O     O_R   0.037600 0.564850 0.499950 -0.557156
O9    O     O_R   0.064850 0.537600 0.000050 -0.557156
O10   O     O_R   0.462400 0.064850 0.000050 -0.557157
O11   O     O_R   0.935150 0.462400 0.000050 -0.557156
O12   O     O_R   0.537600 0.935150 0.000050 -0.557156
O13   O     O_R   0.064850 0.462400 0.999950 -0.557156
O14   O     O_R   0.462400 0.935150 0.999950 -0.557156
O15   O     O_R   0.935150 0.537600 0.999950 -0.557157
O16   O     O_R   0.537600 0.064850 0.999950 -0.557156
O17   O     O_R   0.499980 0.037590 0.581430 -0.560609
O18   O     O_R   0.962410 0.499980 0.581430 -0.560610
O19   O     O_R   0.500020 0.962410 0.581430 -0.560610
O20   O     O_R   0.037590 0.500020 0.581430 -0.560609
O21   O     O_R   0.499980 0.962410 0.418570 -0.560608
O22   O     O_R   0.962410 0.500020 0.418570 -0.560609
O23   O     O_R   0.500020 0.037590 0.418570 -0.560610
O24   O     O_R   0.037590 0.499980 0.418570 -0.560610
O25   O     O_R   0.999980 0.537590 0.081430 -0.560609
O26   O     O_R   0.462410 0.999980 0.081430 -0.560610
O27   O     O_R   0.000020 0.462410 0.081430 -0.560610
O28   O     O_R   0.537590 0.000020 0.081430 -0.560608
O29   O     O_R   0.999980 0.462410 0.918570 -0.560608
O30   O     O_R   0.462410 0.000020 0.918570 -0.560609
O31   O     O_R   0.000020 0.537590 0.918570 -0.560610
O32   O     O_R   0.537590 0.999980 0.918570 -0.560610
O33   O     O_R   0.999990 0.935150 0.547130 -0.574967
O34   O     O_R   0.064850 0.999990 0.547130 -0.574968
O35   O     O_R   0.000010 0.064850 0.547130 -0.574967
O36   O     O_R   0.935150 0.000010 0.547130 -0.574968
O37   O     O_R   0.999990 0.064850 0.452870 -0.574968
O38   O     O_R   0.064850 0.000010 0.452870 -0.574968
O39   O     O_R   0.000010 0.935150 0.452870 -0.574967
O40   O     O_R   0.935150 0.999990 0.452870 -0.574967
O41   O     O_R   0.499990 0.435150 0.047130 -0.574968
O42   O     O_R   0.564850 0.499990 0.047130 -0.574968
O43   O     O_R   0.500010 0.564850 0.047130 -0.574967
O44   O     O_R   0.435150 0.500010 0.047130 -0.574968
O45   O     O_R   0.499990 0.564850 0.952870 -0.574968
O46   O     O_R   0.564850 0.500010 0.952870 -0.574968
O47   O     O_R   0.500010 0.435150 0.952870 -0.574967
O48   O     O_R   0.435150 0.499990 0.952870 -0.574967
Br1   Br    Br    0.804461 0.075230 0.646199 -0.340487
Br2   Br    Br    0.924771 0.804465 0.646204 -0.340490
Br3   Br    Br    0.195534 0.924767 0.646200 -0.340487
Br4   Br    Br    0.075229 0.195531 0.646199 -0.340492
Br5   Br    Br    0.804469 0.924770 0.353801 -0.340492
Br6   Br    Br    0.924771 0.195538 0.353801 -0.340488
Br7   Br    Br    0.195535 0.075229 0.353795 -0.340490
Br8   Br    Br    0.075233 0.804466 0.353800 -0.340486
Br9   Br    Br    0.304461 0.575230 0.146199 -0.340487
Br10  Br    Br    0.424771 0.304465 0.146204 -0.340490
Br11  Br    Br    0.695534 0.424767 0.146200 -0.340487
Br12  Br    Br    0.575230 0.695531 0.146199 -0.340492
Br13  Br    Br    0.304469 0.424770 0.853801 -0.340492
Br14  Br    Br    0.424770 0.695538 0.853801 -0.340487
Br15  Br    Br    0.695535 0.575229 0.853796 -0.340490
Br16  Br    Br    0.575233 0.304466 0.853800 -0.340487
Br17  Br    Br    0.698227 0.090699 0.631201 -0.246646
Br18  Br    Br    0.909302 0.698233 0.631212 -0.246643
Br19  Br    Br    0.301769 0.909297 0.631202 -0.246644
Br20  Br    Br    0.090695 0.301764 0.631209 -0.246647
Br21  Br    Br    0.698236 0.909305 0.368792 -0.246647
Br22  Br    Br    0.909301 0.301773 0.368799 -0.246646
Br23  Br    Br    0.301767 0.090698 0.368788 -0.246643
Br24  Br    Br    0.090703 0.698231 0.368798 -0.246644
Br25  Br    Br    0.198227 0.590699 0.131201 -0.246646
Br26  Br    Br    0.409302 0.198233 0.131212 -0.246643
Br27  Br    Br    0.801769 0.409297 0.131202 -0.246644
Br28  Br    Br    0.590695 0.801764 0.131208 -0.246647
Br29  Br    Br    0.198236 0.409305 0.868792 -0.246647
Br30  Br    Br    0.409301 0.801773 0.868799 -0.246646
Br31  Br    Br    0.801767 0.590698 0.868788 -0.246643
Br32  Br    Br    0.590703 0.198231 0.868798 -0.246644
Br33  Br    Br    0.623929 0.016246 0.618588 -0.397840
Br34  Br    Br    0.983747 0.623925 0.618590 -0.397837
Br35  Br    Br    0.376068 0.983751 0.618588 -0.397834
Br36  Br    Br    0.016251 0.376072 0.618589 -0.397833
Br37  Br    Br    0.623928 0.983749 0.381411 -0.397833
Br38  Br    Br    0.983754 0.376071 0.381412 -0.397840
Br39  Br    Br    0.376075 0.016253 0.381410 -0.397836
Br40  Br    Br    0.016250 0.623932 0.381412 -0.397834
Br41  Br    Br    0.123929 0.516246 0.118588 -0.397840
Br42  Br    Br    0.483747 0.123925 0.118590 -0.397837
Br43  Br    Br    0.876068 0.483750 0.118588 -0.397834
Br44  Br    Br    0.516251 0.876072 0.118589 -0.397833
Br45  Br    Br    0.123928 0.483749 0.881411 -0.397833
Br46  Br    Br    0.483754 0.876071 0.881411 -0.397840
Br47  Br    Br    0.876075 0.516253 0.881410 -0.397836
Br48  Br    Br    0.516249 0.123932 0.881411 -0.397834

loop_
_geom_bond_atom_site_label_1
_geom_bond_atom_site_label_2
_ccdc_geom_bond_type
C54   Br38  S    
C114  H10   S    
C130  C146  A    
C33   C45   A    
C160  Br8   S    
Cu6   O26   S    
Cu7   O11   S    
C35   C47   A    
C10   C154  A    
C40   C46   A    
C120  H16   S    
C118  C128  A    
C14   C158  A    
C105  C133  A    
C26   C50   A    
C60   C72   A    
C22   C38   A    
C23   Br31  S    
C154  Br2   S    
C27   C51   A    
C74   O38   A    
C140  C152  A    
C129  C145  A    
C115  H11   S    
C143  C151  A    
C74   C123  S    
C116  H12   S    
C1    O5    A    
C78   O42   A    
C55   Br39  S    
C167  Br15  S    
C108  C124  A    
C118  C140  A    
C78   C127  S    
C115  C143  A    
C135  C159  A    
C108  H4    S    
C17   Br25  S    
C25   C41   A    
C58   C70   A    
C19   Br27  S    
C109  H5    S    
C59   Br43  S    
C28   C44   A    
C60   Br44  S    
Cu11  O44   S    
C11   C27   A    
C51   Br35  S    
C138  C162  A    
C84   O22   A    
C23   C167  A    
C63   C71   A    
C96   C104  T    
C133  C145  A    
C37   C45   A    
Cu1   O17   S    
C39   C47   A    
C157  Br5   S    
C50   C66   A    
C155  Br3   S    
C83   C91   S    
Cu8   O12   S    
C159  Br7   S    
C19   C35   A    
Cu10  O40   S    
C109  C121  A    
C56   C66   A    
C165  Br13  S    
C119  H15   S    
C79   O45   A    
Cu6   O30   S    
Cu2   O6    S    
C117  H13   S    
C22   C166  A    
C94   C102  T    
C89   C97   T    
C34   C58   A    
Cu7   O27   S    
Cu4   O20   S    
C136  C146  A    
C38   C62   A    
C137  C161  A    
C16   C160  A    
C162  Br10  S    
C73   O33   A    
Cu12  O45   S    
C30   C54   A    
C31   C43   A    
Cu11  O42   S    
C114  C126  A    
C54   C68   A    
C12   Br20  S    
C144  C150  A    
C84   O24   A    
C85   C93   S    
C81   O17   A    
C87   C95   S    
C76   O36   A    
C1    C65   S    
C131  C147  A    
C34   C46   A    
C53   C65   A    
C38   C48   A    
Cu4   O24   S    
C11   C155  A    
C106  C136  A    
C9    C153  A    
Cu1   Cu3   S    
C12   C156  A    
C8    O14   A    
C13   C157  A    
C95   C103  T    
C25   C49   A    
Cu5   Cu7   S    
Cu8   O32   S    
C62   C72   A    
C75   C124  S    
C7    O11   A    
Cu5   O31   S    
Cu9   O34   S    
C4    C68   S    
C57   Br41  S    
C51   C67   A    
C5    C69   S    
Cu8   O16   S    
C142  C166  A    
C83   O23   A    
C49   Br33  S    
C106  C122  A    
C41   C145  A    
C130  C154  A    
C19   C163  A    
C163  Br11  S    
C143  C167  A    
C17   C161  A    
C111  C131  A    
C134  C158  A    
Cu9   Cu10  S    
C135  C147  A    
C109  C129  A    
C18   Br26  S    
C26   C42   A    
Cu1   O1    S    
C24   Br32  S    
Cu12  O47   S    
C110  H6    S    
Cu8   O28   S    
C29   C41   A    
C77   O47   A    
C1    O1    A    
C2    C66   S    
C21   Br29  S    
C7    O15   A    
C15   C31   A    
C16   C32   A    
C5    O13   A    
C50   Br34  S    
C141  C165  A    
C64   Br48  S    
C139  C163  A    
C81   C89   S    
C129  C153  A    
C88   O32   A    
C139  C151  A    
C100  C101  S    
C132  C156  A    
C113  C141  A    
Cu4   O4    S    
C133  C157  A    
Cu7   O13   S    
C6    O10   A    
C136  C160  A    
C4    O4    A    
C84   C92   S    
C91   C99   T    
C85   O25   A    
C76   O40   A    
C119  C127  A    
C88   C96   S    
C3    O7    A    
C107  C123  A    
Cu5   O25   S    
Cu9   O36   S    
C9    C25   A    
C164  Br12  S    
C62   Br46  S    
C12   C28   A    
C166  Br14  S    
C13   C29   A    
C15   Br23  S    
C58   Br42  S    
C83   O21   A    
C120  C126  A    
C98   C103  S    
C20   C164  A    
C21   C165  A    
C35   C59   A    
C142  C152  A    
Cu4   O8    S    
Cu7   O29   S    
Cu11  O43   S    
C110  C124  A    
C153  Br1   S    
C110  C132  A    
Cu3   O19   S    
C2    O2    A    
C77   O41   A    
C30   C44   A    
Cu5   O15   S    
C17   C33   A    
C10   Br18  S    
C117  C137  A    
C8    C72   S    
C111  C123  A    
C156  Br4   S    
Cu6   O10   S    
C114  C144  A    
C108  C134  A    
C37   C61   A    
C53   Br37  S    
C85   O27   A    
Cu3   O21   S    
C82   O20   A    
Cu1   O23   S    
C47   C151  A    
C87   O31   A    
C48   C152  A    
C140  C164  A    
C93   C101  T    
C42   C146  A    
C134  C148  A    
C6    C70   S    
C107  C135  A    
C158  Br6   S    
C13   Br21  S    
Cu2   O18   S    
Cu12  O46   S    
C113  H9    S    
C111  H7    S    
C82   C90   S    
C56   Br40  S    
C119  C139  A    
C131  C155  A    
C168  Br16  S    
Cu11  O41   S    
Cu9   O33   S    
C18   C162  A    
Cu2   Cu4   S    
C118  H14   S    
Cu6   Cu8   S    
C73   O39   A    
C97   C104  S    
Cu11  Cu12  S    
C20   C36   A    
C27   C43   A    
C99   C102  S    
C21   C37   A    
C73   C122  S    
C32   C42   A    
Cu5   O9    S    
C31   C55   A    
C32   C56   A    
C77   C126  S    
C22   Br30  S    
C79   C128  S    
C79   O43   A    
C74   O34   A    
C161  Br9   S    
C141  C149  A    
C81   O19   A    
C138  C150  A    
C15   C159  A    
C78   O46   A    
C49   C65   A    
C144  C168  A    
C76   C121  S    
C24   C168  A    
C7    C71   S    
Cu10  O39   S    
C61   Br45  S    
C113  C125  A    
C80   C125  S    
C115  C127  A    
C8    O12   A    
C106  H2    S    
Cu3   O3    S    
C86   C94   S    
C44   C148  A    
C82   O18   A    
Cu10  O38   S    
C87   O29   A    
C9    Br17  S    
C3    O3    A    
C36   C48   A    
C11   Br19  S    
C20   Br28  S    
C52   C68   A    
C52   Br36  S    
C10   C26   A    
C63   Br47  S    
C137  C149  A    
C86   O28   A    
C14   C30   A    
Cu12  O48   S    
C88   O30   A    
C132  C148  A    
C2    O8    A    
C80   O48   A    
C6    O16   A    
C107  H3    S    
Cu3   O5    S    
C112  C122  A    
Cu1   O7    S    
C105  C121  A    
C75   O35   A    
C18   C34   A    
C16   Br24  S    
C46   C150  A    
C64   C70   A    
C116  C142  A    
Cu2   O2    S    
C92   C100  T    
C61   C69   A    
C33   C57   A    
Cu6   O14   S    
C3    C67   S    
C36   C60   A    
C112  H8    S    
Cu10  O37   S    
C55   C67   A    
C39   C63   A    
C40   C64   A    
C105  H1    S    
C80   O44   A    
C4    O6    A    
C28   C52   A    
C29   C53   A    
C23   C39   A    
C24   C40   A    
C75   O37   A    
C45   C149  A    
C43   C147  A    
C5    O9    A    
C120  C138  A    
Cu9   O35   S    
C116  C128  A    
C112  C130  A    
C86   O26   A    
C57   C69   A    
C117  C125  A    
C90   C98   T    
C14   Br22  S    
C59   C71   A    
Cu2   O22   S    
