data_mof_unit_51856.cif
_audit_creation_date              2012-12-10T20:34:53-0500
_audit_creation_method            fapswitch 2.2
_symmetry_space_group_name_H-M    P1
_symmetry_Int_Tables_number       1
_space_group_crystal_system       triclinic
_cell_length_a                    10.979673
_cell_length_b                    10.705199
_cell_length_c                    10.06517
_cell_angle_alpha                 92.463588
_cell_angle_beta                  91.320694
_cell_angle_gamma                 91.500102
_cell_volume                      1181.21120513

loop_
_atom_site_label
_atom_site_type_symbol
_atom_type_description
_atom_site_fract_x
_atom_site_fract_y
_atom_site_fract_z
_atom_type_partial_charge
C1    C     C_R   0.495473 0.259265 0.497284 0.840341
C2    C     C_3   0.876000 0.480501 0.498138 -0.218463
C3    C     C_3   0.931866 0.620224 0.509191 0.499055
C4    C     C_3   0.918808 0.415247 0.355595 0.262921
C5    C     C_R   0.446050 0.067132 0.611640 -0.014071
C6    C     C_R   0.468966 0.125520 0.492086 -0.134758
C7    C     C_R   0.448338 0.053325 0.370034 0.161274
C8    C     C_R   0.421911 0.923831 0.376463 0.136194
C9    C     C_R   0.446464 0.866542 0.498380 -0.151755
C10   C     C_R   0.436935 0.939734 0.614100 -0.024871
C11   C     C_3   0.492180 0.935953 0.749607 0.704368
C12   C     C_R   0.257887 0.487431 0.498243 0.910210
C13   C     C_3   0.495092 0.078793 0.753605 -0.073103
C14   C     C_R   0.440081 0.408319 0.064740 -0.134960
C15   C     C_R   0.572898 0.582066 0.077666 0.230334
C16   C     C_R   0.574915 0.579411 0.934554 0.185912
C17   C     C_R   0.437509 0.411076 0.923191 -0.121596
C18   C     C_3   0.304685 0.400816 0.918271 1.155683
C19   C     C_3   0.307102 0.388765 0.064241 0.370121
C20   C     C_R   0.485723 0.738199 0.500938 0.918737
C21   C     C_R   0.740586 0.490862 0.499987 0.947724
C22   C     C_3   0.070405 0.385916 0.604841 0.668603
C23   C     C_3   0.926473 0.398010 0.621237 0.201803
C24   C     C_3   0.072439 0.615390 0.534517 0.616614
C25   C     C_3   0.063479 0.429344 0.355170 0.610349
C26   C     C_3   0.118846 0.477404 0.496267 -0.312822
H1    H     H_    0.428433 0.121365 0.822430 0.181776
H2    H     H_    0.278639 0.294247 0.092643 -0.000332
N1    N     N_R   0.499150 0.499140 0.142800 -0.067655
N2    N     N_R   0.499150 0.499180 0.857150 -0.108066
O1    O     O_R   0.500020 0.316790 0.614690 -0.610566
O2    O     O_R   0.500000 0.316760 0.385350 -0.639798
O3    O     O_R   0.314800 0.500000 0.614670 -0.481639
O4    O     O_R   0.314790 0.499960 0.385330 -0.551576
O5    O     O_R   0.500000 0.683240 0.614650 -0.601201
O6    O     O_R   0.499980 0.683210 0.385310 -0.630309
O7    O     O_R   0.685210 0.500040 0.614670 -0.660826
O8    O     O_R   0.685200 0.500000 0.385330 -0.627831
Zn1   Zn    Zn3+2 0.500010 0.500020 0.653130 0.999829
Zn2   Zn    Zn3+2 0.499990 0.499980 0.346870 0.969765
F1    F     F_    0.124101 0.427585 0.721746 -0.532508
C27   C     C_3   0.871079 0.469464 0.219698 -0.519456
H3    H     H_    0.888125 0.569146 0.205353 0.297373
H4    H     H_    0.920540 0.424909 0.135667 0.198322
H5    H     H_    0.774800 0.444845 0.192536 0.207955
C28   C     C_3   0.138615 0.724105 0.465675 -0.613363
H6    H     H_    0.104619 0.815417 0.503220 0.210625
H7    H     H_    0.236732 0.726030 0.491795 0.179091
H8    H     H_    0.126070 0.721533 0.356443 0.288163
F2    F     F_    0.911406 0.675395 0.389839 -0.692910
C29   C     C_3   0.459622 0.109738 0.235090 -0.848782
H9    H     H_    0.551869 0.153029 0.225729 0.250619
H10   H     H_    0.448655 0.041979 0.149467 0.226462
H11   H     H_    0.388320 0.179321 0.223683 0.240267
C30   C     C_3   0.361113 0.852074 0.258359 -0.772488
H12   H     H_    0.322649 0.760046 0.283817 0.280035
H13   H     H_    0.283288 0.905575 0.220372 0.233807
H14   H     H_    0.425994 0.836342 0.177706 0.237202
C31   C     C_3   0.409564 0.876631 0.851103 -0.842015
H15   H     H_    0.451835 0.891590 0.951739 0.209863
H16   H     H_    0.318108 0.918734 0.850114 0.222204
H17   H     H_    0.398238 0.774560 0.828754 0.299839
F3    F     F_    0.606844 0.886373 0.743356 -0.694165
C32   C     C_3   0.624202 0.133327 0.776767 -0.795976
H18   H     H_    0.683023 0.100574 0.695028 0.273272
H19   H     H_    0.624674 0.236707 0.786095 0.251947
H20   H     H_    0.662144 0.100768 0.872107 0.246812
C33   C     C_3   0.651445 0.681071 0.153707 -0.799337
H21   H     H_    0.664921 0.666503 0.258770 0.316143
H22   H     H_    0.744999 0.684267 0.115837 0.216876
H23   H     H_    0.613470 0.774747 0.142064 0.218735
C34   C     C_3   0.119517 0.251252 0.593345 -0.779114
H24   H     H_    0.104367 0.203940 0.687898 0.296419
H25   H     H_    0.076193 0.188681 0.517116 0.161736
H26   H     H_    0.219085 0.252993 0.576604 0.234346
C35   C     C_3   0.664576 0.665142 0.872057 -0.784743
H27   H     H_    0.655813 0.664027 0.764564 0.323904
H28   H     H_    0.653177 0.761683 0.912015 0.284746
H29   H     H_    0.758479 0.638722 0.898417 0.190101
F4    F     F_    0.255539 0.513187 0.883535 -0.525712
F5    F     F_    0.261862 0.294105 0.848687 -0.718623
F6    F     F_    0.253304 0.488939 0.126563 -0.545896
C36   C     C_3   0.856047 0.268552 0.631173 -0.890869
H30   H     H_    0.851405 0.237938 0.735032 0.244061
H31   H     H_    0.760957 0.273463 0.593874 0.242391
H32   H     H_    0.895081 0.185072 0.584959 0.229470
C37   C     C_3   0.904462 0.458005 0.764605 -0.654455
H33   H     H_    0.953264 0.546649 0.788954 0.295295
H34   H     H_    0.807957 0.462877 0.790626 0.222510
H35   H     H_    0.942551 0.397425 0.841716 0.249614
F7    F     F_    0.098969 0.643399 0.668005 -0.612529
C38   C     C_3   0.870187 0.716007 0.605207 -0.647752
H36   H     H_    0.774094 0.729259 0.573254 0.237530
H37   H     H_    0.870895 0.694986 0.710280 0.210149
H38   H     H_    0.915918 0.809297 0.600149 0.237660
F8    F     F_    0.092547 0.524444 0.272393 -0.589267
C39   C     C_3   0.123245 0.312244 0.289704 -0.769382
H39   H     H_    0.098960 0.308576 0.182112 0.262755
H40   H     H_    0.222894 0.313192 0.304296 0.236814
H41   H     H_    0.093963 0.219937 0.320420 0.173764
C40   C     C_3   0.867195 0.277233 0.335580 -0.954168
H42   H     H_    0.769202 0.270614 0.359590 0.257076
H43   H     H_    0.873634 0.240192 0.230985 0.243002
H44   H     H_    0.915828 0.207851 0.389479 0.239142

loop_
_geom_bond_atom_site_label_1
_geom_bond_atom_site_label_2
_ccdc_geom_bond_type
C37   H33   S    
C40   H42   S    
C2    C4    S    
C35   H29   S    
C30   H12   S    
C39   H39   S    
C7    C8    A    
C28   H8    S    
O3    Zn1   S    
C23   C36   S    
O4    Zn2   S    
C35   H28   S    
C11   F3    S    
C5    C6    A    
C22   F1    S    
C16   N2    A    
C15   C16   A    
C1    O1    A    
C18   F5    S    
C18   C19   S    
C20   O5    A    
C21   O8    A    
C8    C9    A    
C19   F6    S    
C9    C10   A    
C5    C13   S    
O2    Zn2   S    
C31   H15   S    
C40   H43   S    
C23   C37   S    
C17   N2    A    
C14   C17   A    
C3    C24   S    
C27   H4    S    
C34   H26   S    
C11   C31   S    
C8    C30   S    
C22   C34   S    
C39   H40   S    
C3    F2    S    
C15   N1    A    
C28   H7    S    
C31   H16   S    
C29   H9    S    
C32   H20   S    
O6    Zn2   S    
C35   H27   S    
C34   H25   S    
C33   H21   S    
C25   C26   S    
C1    O2    A    
C1    C6    S    
C12   C26   S    
C3    C38   S    
C29   H10   S    
C27   H5    S    
C32   H19   S    
O5    Zn1   S    
C9    C20   S    
C36   H30   S    
C4    C40   S    
C2    C21   S    
C38   H37   S    
C17   C18   S    
C19   H2    S    
C25   C39   S    
C36   H31   S    
C40   H44   S    
C37   H34   S    
C37   H35   S    
C27   H3    S    
C14   N1    A    
C12   O4    A    
C24   F7    S    
C4    C25   S    
C39   H41   S    
C28   H6    S    
C31   H17   S    
C16   C35   S    
C14   C19   S    
C24   C26   S    
C34   H24   S    
C6    C7    A    
C29   H11   S    
C24   C28   S    
C32   H18   S    
C30   H13   S    
C2    C3    S    
C7    C29   S    
C5    C10   A    
O7    Zn1   S    
O8    Zn2   S    
C11   C13   S    
C13   C32   S    
C4    C27   S    
C33   H23   S    
C15   C33   S    
N1    Zn2   S    
C38   H36   S    
O1    Zn1   S    
N2    Zn1   S    
C38   H38   S    
C10   C11   S    
C20   O6    A    
C36   H32   S    
C21   O7    A    
C25   F8    S    
C18   F4    S    
C22   C26   S    
C30   H14   S    
C2    C23   S    
C33   H22   S    
C22   C23   S    
C13   H1    S    
C12   O3    A    
