data_mof_unit_25804.cif
_audit_creation_date              2012-10-26T19:42:37-0400
_audit_creation_method            fapswitch 2.2
_symmetry_space_group_name_H-M    P1
_symmetry_Int_Tables_number       1
_space_group_crystal_system       triclinic
_cell_length_a                    19.337002
_cell_length_b                    10.77872
_cell_length_c                    9.604668
_cell_angle_alpha                 90.059356
_cell_angle_beta                  89.88185
_cell_angle_gamma                 92.4748
_cell_volume                      2000.01070503

loop_
_atom_site_label
_atom_site_type_symbol
_atom_type_description
_atom_site_fract_x
_atom_site_fract_y
_atom_site_fract_z
_atom_type_partial_charge
C1    C     C_R   0.497608 0.262603 0.499982 0.543027
C2    C     C_R   0.854006 0.501646 0.499316 0.035181
C3    C     C_R   0.387457 0.120933 0.646833 -0.108318
C4    C     C_R   0.367533 0.498496 0.500269 0.530499
C5    C     C_R   0.336216 0.052132 0.718674 -0.119588
C6    C     C_R   0.336372 0.923113 0.719131 -0.114191
C7    C     C_R   0.387758 0.862069 0.647714 -0.098303
C8    C     C_R   0.440994 0.929901 0.575994 0.028827
C9    C     C_R   0.440858 0.061152 0.575663 0.026224
C10   C     C_R   0.492851 0.128442 0.499784 0.002844
C11   C     C_R   0.541566 0.067217 0.420915 -0.145522
C12   C     C_R   0.291446 0.492926 0.501509 -0.041687
C13   C     C_R   0.541671 0.939237 0.421104 -0.151591
C14   C     C_R   0.493069 0.870541 0.500191 0.006356
C15   C     C_R   0.592139 0.664625 0.143738 -0.088969
C16   C     C_R   0.497862 0.737101 0.500088 0.526708
C17   C     C_R   0.637145 0.745139 0.071524 -0.171461
C18   C     C_R   0.637058 0.745362 0.928075 -0.169043
C19   C     C_R   0.591962 0.665076 0.855940 -0.087649
C20   C     C_R   0.545196 0.581093 0.925136 0.158168
C21   C     C_R   0.545241 0.580948 0.074673 0.158374
C22   C     C_R   0.456908 0.423022 0.073948 0.000445
C23   C     C_R   0.930086 0.497838 0.499953 0.339364
C24   C     C_R   0.456931 0.423033 0.926098 0.001130
C25   C     C_R   0.632482 0.500872 0.499821 0.533695
C26   C     C_R   0.255461 0.462762 0.624728 -0.075021
C27   C     C_R   0.183278 0.452447 0.626984 0.245767
C28   C     C_R   0.145811 0.479565 0.504542 0.025854
C29   C     C_R   0.182223 0.508311 0.381216 -0.146040
C30   C     C_R   0.254281 0.514209 0.379444 -0.145647
C31   C     C_R   0.069789 0.484643 0.503686 0.327810
C32   C     C_R   0.817569 0.517824 0.624244 -0.116961
C33   C     C_R   0.745514 0.517757 0.624377 -0.136118
C34   C     C_R   0.708567 0.502339 0.499448 0.010134
C35   C     C_R   0.744967 0.488030 0.374217 -0.137110
C36   C     C_R   0.817019 0.487180 0.374232 -0.117779
Cu1   Cu    Cu3+1 0.500000 0.499990 0.640660 0.915690
Cu2   Cu    Cu3+1 0.500000 0.500010 0.359340 0.927511
H1    H     H_    0.283427 0.442774 0.719190 0.146872
H2    H     H_    0.672225 0.808295 0.871908 0.126567
H3    H     H_    0.596262 0.673163 0.746215 0.182421
H4    H     H_    0.421602 0.359905 0.871010 0.111155
H5    H     H_    0.154870 0.529038 0.286286 0.155219
H6    H     H_    0.280847 0.537351 0.282911 0.148221
H7    H     H_    0.844602 0.529051 0.722373 0.140748
H8    H     H_    0.718834 0.529671 0.722431 0.131636
H9    H     H_    0.717826 0.476372 0.276219 0.134743
H10   H     H_    0.843668 0.475159 0.276191 0.140699
H11   H     H_    0.580765 0.119031 0.361403 0.131505
H12   H     H_    0.383740 0.220692 0.645570 0.125265
H13   H     H_    0.107690 0.368324 0.726467 0.343412
H14   H     H_    0.295669 0.099130 0.772634 0.127029
H15   H     H_    0.295944 0.869973 0.773476 0.129074
H16   H     H_    0.384282 0.761768 0.647328 0.147057
H17   H     H_    0.580949 0.893532 0.361701 0.111876
H18   H     H_    0.421570 0.359877 0.129129 0.121839
H19   H     H_    0.596545 0.672383 0.253422 0.178261
H20   H     H_    0.672351 0.807942 0.127634 0.121949
N1    N     N_R   0.033344 0.454570 0.386962 -0.222245
N2    N     N_R   0.964794 0.460790 0.385242 -0.224143
N3    N     N_R   0.966697 0.529628 0.615971 -0.226411
N4    N     N_R   0.035243 0.523801 0.617552 -0.196770
N5    N     N_R   0.500660 0.501210 0.147910 -0.244145
N6    N     N_R   0.500680 0.501290 0.852040 -0.242849
O1    O     O_R   0.499990 0.319640 0.618810 -0.498135
O2    O     O_R   0.500000 0.319660 0.381240 -0.496186
O3    O     O_R   0.400140 0.499970 0.618820 -0.520014
O4    O     O_R   0.400150 0.500000 0.381250 -0.494007
O5    O     O_R   0.500000 0.680340 0.618760 -0.525038
O6    O     O_R   0.500010 0.680360 0.381190 -0.512628
O7    O     O_R   0.599850 0.500000 0.618750 -0.516548
O8    O     O_R   0.599860 0.500030 0.381180 -0.522586
O9    O     O_3   0.152023 0.412964 0.749304 -0.686453

loop_
_geom_bond_atom_site_label_1
_geom_bond_atom_site_label_2
_ccdc_geom_bond_type
Cu2   O6    S    
Cu1   O5    S    
C24   H4    S    
C32   H7    S    
C35   C36   A    
C35   H9    S    
C7    C8    A    
C26   C27   A    
C29   C30   A    
C3    C9    A    
C28   C29   A    
C18   C19   A    
C5    C6    A    
C26   H1    S    
C2    C32   A    
C34   C35   A    
C31   N1    A    
C18   H2    S    
C22   N5    A    
Cu2   O2    S    
C8    C9    A    
Cu1   O1    S    
C1    O1    A    
C5    H14   S    
C25   O7    A    
C4    C12   S    
C9    C10   A    
C17   H20   S    
N1    N2    A    
C24   N6    A    
C13   C14   A    
C29   H5    S    
C33   H8    S    
C15   H19   S    
C31   N4    A    
C30   H6    S    
C3    H12   S    
C33   C34   A    
C23   N2    A    
Cu2   O8    S    
C1    C10   S    
C16   O6    A    
C4    O4    A    
C22   H18   S    
C12   C26   A    
C1    O2    A    
C20   N6    A    
Cu1   Cu2   S    
C11   H11   S    
C15   C21   A    
C17   C18   A    
C25   O8    A    
Cu2   O4    S    
Cu1   O7    S    
C14   C16   S    
C6    H15   S    
C2    C23   S    
Cu1   N6    S    
Cu2   N5    S    
C2    C36   A    
C15   C17   A    
C8    C14   A    
C12   C30   A    
C28   C31   S    
C16   O5    A    
H13   O9    S    
C3    C5    A    
C4    O3    A    
C6    C7    A    
C25   C34   S    
C32   C33   A    
C19   C20   A    
C11   C13   A    
Cu1   O3    S    
C36   H10   S    
C22   C24   A    
N3    N4    A    
C21   N5    A    
C10   C11   A    
C23   N3    A    
C20   C21   A    
C27   C28   A    
C7    H16   S    
C27   O9    S    
C19   H3    S    
C13   H17   S    
