data_mof_unit_56758.cif
_audit_creation_date              2012-10-26T20:00:11-0400
_audit_creation_method            fapswitch 2.2
_symmetry_space_group_name_H-M    P1
_symmetry_Int_Tables_number       1
_space_group_crystal_system       triclinic
_cell_length_a                    23.522804
_cell_length_b                    10.928407
_cell_length_c                    9.699212
_cell_angle_alpha                 90.668044
_cell_angle_beta                  89.53088
_cell_angle_gamma                 90.542777
_cell_volume                      2492.98246519

loop_
_atom_site_label
_atom_site_type_symbol
_atom_type_description
_atom_site_fract_x
_atom_site_fract_y
_atom_site_fract_z
_atom_type_partial_charge
C1    C     C_R   0.499826 0.265402 0.498762 0.541670
C2    C     C_R   0.119754 0.594137 0.536490 0.397086
C3    C     C_R   0.239132 0.486864 0.377235 -0.058868
C4    C     C_R   0.390946 0.499279 0.500487 0.543053
C5    C     C_R   0.298382 0.489632 0.376577 -0.147931
C6    C     C_R   0.328335 0.497074 0.501312 0.001912
C7    C     C_R   0.297887 0.501583 0.626593 -0.145062
C8    C     C_R   0.238596 0.499002 0.626913 -0.058589
C9    C     C_R   0.209065 0.491609 0.502287 0.247737
C10   C     C_R   0.761227 0.491042 0.372661 -0.058637
C11   C     C_R   0.701952 0.492522 0.373140 -0.153720
C12   C     C_R   0.967676 0.277290 0.427309 -0.112043
C13   C     C_R   0.671636 0.499258 0.498492 -0.003330
C14   C     C_R   0.701706 0.504858 0.623136 -0.151740
C15   C     C_R   0.760953 0.503752 0.622303 -0.061440
C16   C     C_R   0.497839 0.734280 0.501141 0.539290
C17   C     C_R   0.790877 0.496690 0.497182 0.243517
C18   C     C_2   0.488219 0.931481 0.392678 -0.117597
C19   C     C_2   0.488846 0.864562 0.506568 -0.090226
C20   C     C_2   0.476648 0.063067 0.401513 -0.009907
C21   C     C_2   0.506057 0.133052 0.494125 0.256437
C22   C     C_2   0.460458 0.447272 0.922601 0.026619
C23   C     C_R   0.027295 0.271758 0.427256 0.001958
C24   C     C_2   0.466222 0.431324 0.076749 0.080107
C25   C     C_R   0.609045 0.499996 0.499478 0.533239
C26   C     C_R   0.881273 0.598988 0.532052 0.399524
C27   C     C_R   0.879232 0.388981 0.462020 0.397300
C28   C     C_R   0.938920 0.384817 0.462109 0.012382
C29   C     C_R   0.970009 0.490433 0.498319 -0.033362
C30   C     C_R   0.940901 0.598933 0.533627 0.032238
C31   C     C_3   0.434665 0.117002 0.300046 -0.290334
C32   C     C_3   0.389989 0.025406 0.247479 -0.436808
C33   C     C_3   0.599553 0.120205 0.557236 -0.006832
C34   C     C_R   0.059644 0.378905 0.464157 0.032911
C35   C     C_3   0.640909 0.041696 0.636193 -0.360908
C36   C     C_3   0.052823 0.148998 0.387309 -0.237388
C37   C     C_3   0.069427 0.076620 0.514491 -0.388421
C38   C     C_3   0.570517 0.632959 0.118371 0.039800
C39   C     C_3   0.590018 0.733339 0.020635 -0.409476
C40   C     C_R   0.030106 0.487987 0.499438 -0.041245
C41   C     C_R   0.060403 0.595661 0.536005 0.030743
C42   C     C_R   0.030907 0.703012 0.570735 -0.129996
C43   C     C_R   0.971833 0.704643 0.569543 -0.127961
C44   C     C_R   0.120036 0.383483 0.467341 0.390016
Cu1   Cu    Cu3+1 0.500010 0.500020 0.638630 0.942277
Cu2   Cu    Cu3+1 0.499990 0.499980 0.361370 0.956364
H1    H     H_    0.943371 0.195816 0.400425 0.165011
H2    H     H_    0.053393 0.786382 0.599114 0.155569
H3    H     H_    0.950534 0.789064 0.596899 0.163733
H4    H     H_    0.216484 0.481396 0.280572 0.126033
H5    H     H_    0.320652 0.485714 0.278477 0.129135
H6    H     H_    0.319796 0.507203 0.724262 0.127893
H7    H     H_    0.215525 0.502522 0.723927 0.126611
H8    H     H_    0.784191 0.485781 0.275589 0.127617
H9    H     H_    0.409842 0.954690 0.180111 0.161244
H10   H     H_    0.367881 0.980766 0.335464 0.172714
H11   H     H_    0.357980 0.074229 0.185670 0.146898
H12   H     H_    0.679958 0.488056 0.275546 0.115079
H13   H     H_    0.410788 0.192674 0.350742 0.154997
H14   H     H_    0.458628 0.154163 0.210494 0.151884
H15   H     H_    0.605499 0.216999 0.591438 0.152176
H16   H     H_    0.610095 0.111660 0.445197 0.126379
H17   H     H_    0.636329 0.944365 0.603459 0.162849
H18   H     H_    0.685197 0.072739 0.615197 0.123921
H19   H     H_    0.632219 0.049565 0.748669 0.160774
H20   H     H_    0.090764 0.990763 0.481681 0.160378
H21   H     H_    0.098690 0.129924 0.581775 0.203071
H22   H     H_    0.030776 0.052431 0.575281 0.136377
H23   H     H_    0.679537 0.510178 0.721296 0.124255
H24   H     H_    0.021489 0.092106 0.329194 0.123583
H25   H     H_    0.088767 0.159414 0.313773 0.201658
H26   H     H_    0.596802 0.550209 0.098044 0.107552
H27   H     H_    0.578402 0.667650 0.223999 0.188494
H28   H     H_    0.565066 0.817676 0.040164 0.161220
H29   H     H_    0.635732 0.754367 0.037562 0.100713
H30   H     H_    0.584312 0.703929 0.911682 0.160852
H31   H     H_    0.783693 0.507879 0.718895 0.127150
H32   H     H_    0.493700 0.889258 0.291530 0.148876
H33   H     H_    0.479838 0.905632 0.606887 0.162879
H34   H     H_    0.422804 0.409888 0.873301 0.115828
H35   H     H_    0.538481 0.511803 0.890934 0.239110
H36   H     H_    0.440955 0.360194 0.125263 0.065399
N1    N     N_R   0.851804 0.494935 0.496740 -0.397070
N2    N     N_R   0.148073 0.489572 0.502488 -0.396051
N3    N     N_2   0.499380 0.498660 0.846910 -0.322991
N4    N     N_2   0.499370 0.498630 0.153040 -0.054759
O1    O     O_R   0.500010 0.321960 0.617040 -0.481622
O2    O     O_R   0.582130 0.500060 0.617050 -0.513647
O3    O     O_R   0.582110 0.500020 0.382900 -0.527482
O4    O     O_2   0.852918 0.702261 0.564752 -0.499420
O5    O     O_3   0.543486 0.079621 0.585392 -0.582766
O6    O     O_3   0.512092 0.608885 0.098153 -0.470099
O7    O     O_2   0.848780 0.287780 0.428587 -0.502469
O8    O     O_2   0.151134 0.283875 0.436844 -0.523600
O9    O     O_2   0.149201 0.696836 0.569594 -0.505731
O10   O     O_R   0.499990 0.321920 0.382900 -0.545002
O11   O     O_R   0.417890 0.499980 0.617100 -0.503069
O12   O     O_R   0.417870 0.499940 0.382950 -0.501688
O13   O     O_R   0.500010 0.678080 0.617100 -0.484812
O14   O     O_R   0.499990 0.678040 0.382960 -0.479994

loop_
_geom_bond_atom_site_label_1
_geom_bond_atom_site_label_2
_ccdc_geom_bond_type
C1    O1    A    
C1    C21   S    
C26   N1    A    
C4    O12   A    
C41   C42   A    
C2    N2    A    
C7    C8    A    
Cu2   O3    S    
C15   H31   S    
Cu1   Cu2   S    
C12   C23   A    
C12   C28   A    
C34   C40   A    
C36   C37   S    
Cu1   O1    S    
C7    H6    S    
C33   H16   S    
C33   O5    S    
C38   C39   S    
C22   N3    D    
C35   H19   S    
C2    C41   A    
C37   H22   S    
C38   O6    S    
C18   C19   D    
C39   H28   S    
C31   H13   S    
C24   H36   S    
C8    C9    A    
C35   H18   S    
C39   H29   S    
C11   H12   S    
C32   H9    S    
C36   H25   S    
C1    O10   A    
Cu2   O12   S    
C4    O11   A    
C13   C25   S    
C32   H11   S    
C12   H1    S    
C3    H4    S    
C36   H24   S    
C38   H26   S    
Cu1   O2    S    
C34   C44   A    
C4    C6    S    
Cu1   O13   S    
C43   H3    S    
C44   N2    A    
C25   O2    A    
C17   N1    S    
C31   H14   S    
Cu1   N3    S    
C29   C30   A    
C3    C9    A    
C31   C32   S    
C18   H32   S    
C23   C34   A    
C37   H20   S    
C42   H2    S    
C39   H30   S    
C19   H33   S    
C40   C41   A    
C26   C30   A    
C20   C31   S    
C14   H23   S    
C22   C24   S    
C30   C43   A    
C27   O7    S    
C42   C43   A    
N4    O6    S    
C21   O5    S    
C15   C17   A    
Cu2   O14   S    
C28   C29   A    
C16   O14   A    
C3    C5    A    
C2    O9    S    
C8    H7    S    
C16   O13   A    
C6    C7    A    
C26   O4    S    
C25   O3    A    
C27   N1    A    
C22   H34   S    
Cu1   O11   S    
C11   C13   A    
C5    C6    A    
C16   C19   S    
C37   H21   S    
C29   C40   A    
C33   C35   S    
C18   C20   S    
C10   H8    S    
C44   O8    S    
C10   C11   A    
C9    N2    S    
Cu2   O10   S    
C20   C21   D    
C33   H15   S    
C23   C36   S    
C27   C28   A    
C14   C15   A    
C5    H5    S    
C35   H17   S    
C10   C17   A    
C13   C14   A    
C24   N4    D    
C32   H10   S    
H35   N3    S    
Cu2   N4    S    
C38   H27   S    
