data_mof_unit_60399.cif
_audit_creation_date              2012-10-26T20:54:29-0400
_audit_creation_method            fapswitch 2.2
_symmetry_space_group_name_H-M    P1
_symmetry_Int_Tables_number       1
_space_group_crystal_system       triclinic
_cell_length_a                    16.500528
_cell_length_b                    17.325991
_cell_length_c                    17.717757
_cell_angle_alpha                 91.649392
_cell_angle_beta                  89.248495
_cell_angle_gamma                 84.483613
_cell_volume                      5039.10429834

loop_
_atom_site_label
_atom_site_type_symbol
_atom_type_description
_atom_site_fract_x
_atom_site_fract_y
_atom_site_fract_z
_atom_type_partial_charge
C1    C     C_R   0.500395 0.500114 0.355288 0.561794
C2    C     C_R   0.572651 0.510188 0.231747 -0.097578
C3    C     C_R   0.427509 0.489848 0.846975 -0.099720
C4    C     C_R   0.572491 0.510152 0.153025 -0.099720
C5    C     C_R   0.499359 0.499633 0.885558 0.038136
C6    C     C_R   0.500641 0.500367 0.114442 0.038136
C7    C     C_1   0.499708 0.499870 0.966165 -0.018440
C8    C     C_1   0.500292 0.500130 0.033835 -0.018440
C9    C     C_R   0.822370 0.549398 0.552147 -0.136804
C10   C     C_R   0.177630 0.450602 0.447853 -0.136804
C11   C     C_R   0.736689 0.547534 0.550219 0.045178
C12   C     C_R   0.499605 0.499886 0.644712 0.561794
C13   C     C_R   0.263311 0.452466 0.449781 0.045179
C14   C     C_R   0.751055 0.453418 0.450457 0.239985
C15   C     C_R   0.248945 0.546582 0.549543 0.239985
C16   C     C_R   0.511320 0.349959 0.502944 0.569977
C17   C     C_R   0.488680 0.650041 0.497056 0.569978
C18   C     C_R   0.836247 0.454091 0.451130 -0.104775
C19   C     C_R   0.163752 0.545909 0.548870 -0.104775
C20   C     C_R   0.873272 0.501976 0.501933 0.005947
C21   C     C_R   0.126728 0.498024 0.498067 0.005947
C22   C     C_1   0.962729 0.501090 0.501100 -0.007763
C23   C     C_R   0.571098 0.509229 0.845697 -0.106911
C24   C     C_1   0.037270 0.498910 0.498899 -0.007763
C25   C     C_R   0.519052 0.265591 0.507849 0.023608
C26   C     C_R   0.480948 0.734409 0.492155 0.023608
C27   C     C_R   0.463542 0.227551 0.551239 0.078720
C28   C     C_R   0.536458 0.772451 0.448769 0.078720
C29   C     C_R   0.469416 0.146834 0.549947 -0.078239
C30   C     C_R   0.530588 0.853169 0.450068 -0.078239
C31   C     C_R   0.529906 0.103505 0.505932 0.018204
C32   C     C_R   0.470099 0.896496 0.494085 0.018203
C33   C     C_R   0.587809 0.141361 0.466926 -0.113899
C34   C     C_R   0.428902 0.490771 0.154303 -0.106910
C35   C     C_R   0.412196 0.858638 0.533088 -0.113899
C36   C     C_R   0.582288 0.221893 0.467743 -0.137498
C37   C     C_R   0.417715 0.778106 0.532265 -0.137500
C38   C     C_2   0.533710 0.018703 0.499341 -0.128278
C39   C     C_2   0.466296 0.981297 0.500680 -0.128278
C40   C     C_R   0.571127 0.509199 0.767083 -0.125600
C41   C     C_R   0.428873 0.490801 0.232917 -0.125600
C42   C     C_R   0.499186 0.499672 0.727660 0.022136
C43   C     C_R   0.500814 0.500328 0.272340 0.022136
C44   C     C_R   0.427349 0.489812 0.768252 -0.097578
Cu1   Cu    Cu3+1 0.580420 0.500000 0.499980 1.012301
Cu2   Cu    Cu3+1 0.419580 0.500000 0.500020 1.012301
H1    H     H_    0.848458 0.587611 0.592578 0.111526
H2    H     H_    0.593190 0.986846 0.490461 0.128171
H3    H     H_    0.635727 0.108604 0.433793 0.125694
H4    H     H_    0.364279 0.891394 0.566222 0.125696
H5    H     H_    0.572966 0.881784 0.416035 0.134218
H6    H     H_    0.427038 0.118220 0.583982 0.134217
H7    H     H_    0.626930 0.516804 0.875374 0.118052
H8    H     H_    0.373069 0.483196 0.124626 0.118052
H9    H     H_    0.627355 0.516966 0.737272 0.126153
H10   H     H_    0.372645 0.483034 0.262728 0.126153
H11   H     H_    0.371271 0.481732 0.739282 0.167905
H12   H     H_    0.151542 0.412388 0.407422 0.111526
H13   H     H_    0.628729 0.518267 0.260718 0.167903
H14   H     H_    0.371770 0.482213 0.877699 0.123633
H15   H     H_    0.628230 0.517786 0.122300 0.123633
H16   H     H_    0.698648 0.584541 0.589285 0.127612
H17   H     H_    0.301352 0.415459 0.410715 0.127613
H18   H     H_    0.873698 0.416862 0.411600 0.129333
H19   H     H_    0.126302 0.583138 0.588399 0.129333
H20   H     H_    0.373928 0.750151 0.564920 0.163398
H21   H     H_    0.626074 0.249846 0.435084 0.163397
H22   H     H_    0.406816 0.013154 0.509561 0.128172
I1    I     I_    0.372610 0.286416 0.623976 -0.363370
I2    I     I_    0.627387 0.713589 0.376025 -0.363368
I3    I     I_    0.709093 0.376201 0.368258 -0.392175
I4    I     I_    0.290907 0.623799 0.631743 -0.392176
N1    N     N_R   0.701220 0.499980 0.499970 -0.207537
N2    N     N_R   0.298780 0.500020 0.500030 -0.207537
O1    O     O_R   0.567930 0.499990 0.391240 -0.465946
O2    O     O_R   0.432070 0.500010 0.608760 -0.465945
O3    O     O_R   0.432120 0.500000 0.391270 -0.521217
O4    O     O_R   0.567880 0.500000 0.608730 -0.521217
O5    O     O_R   0.575780 0.386400 0.499970 -0.483886
O6    O     O_R   0.424220 0.613600 0.500030 -0.483886
O7    O     O_R   0.439960 0.386410 0.500000 -0.482046
O8    O     O_R   0.560040 0.613590 0.500000 -0.482046

loop_
_geom_bond_atom_site_label_1
_geom_bond_atom_site_label_2
_ccdc_geom_bond_type
Cu2   O6    S    
C30   H5    S    
C27   C29   A    
C1    O3    A    
C39   H22   S    
C14   C18   A    
Cu1   O8    S    
C11   H16   S    
Cu2   O2    S    
C36   H21   S    
C7    C8    T    
Cu1   Cu2   S    
C15   C19   A    
C15   I4    S    
C17   C26   S    
C35   C37   A    
C38   C39   D    
C33   H3    S    
C23   C40   A    
C33   C36   A    
Cu1   N1    S    
C17   O8    A    
C14   I3    S    
C32   C39   S    
C12   C42   S    
C1    C43   S    
C13   H17   S    
C31   C33   A    
Cu1   O4    S    
C2    C43   A    
C38   H2    S    
C27   I1    S    
C3    H14   S    
C40   C42   A    
C41   C43   A    
C34   C41   A    
C42   C44   A    
C23   H7    S    
C10   C21   A    
C3    C44   A    
C1    O1    A    
C14   N1    A    
C4    C6    A    
C11   N1    A    
C5    C7    S    
C2    H13   S    
C6    C8    S    
C4    H15   S    
C17   O6    A    
C6    C34   A    
C12   O4    A    
C2    C4    A    
C32   C35   A    
C41   H10   S    
Cu2   O7    S    
C9    C20   A    
C5    C23   A    
C44   H11   S    
C40   H9    S    
C37   H20   S    
C35   H4    S    
Cu1   O5    S    
C9    C11   A    
C20   C22   S    
C9    H1    S    
C12   O2    A    
C22   C24   T    
Cu2   N2    S    
C16   C25   S    
C10   H12   S    
C28   I2    S    
C3    C5    A    
C10   C13   A    
Cu2   O3    S    
C26   C37   A    
C34   H8    S    
C25   C27   A    
C26   C28   A    
C31   C38   S    
Cu1   O1    S    
C16   O5    A    
C28   C30   A    
C29   C31   A    
C30   C32   A    
C18   H18   S    
C16   O7    A    
C19   H19   S    
C18   C20   A    
C25   C36   A    
C15   N2    A    
C13   N2    A    
C21   C24   S    
C19   C21   A    
C29   H6    S    
