data_mof_unit_66152.cif
_audit_creation_date              2012-10-26T17:43:12-0400
_audit_creation_method            fapswitch 2.2
_symmetry_space_group_name_H-M    P1
_symmetry_Int_Tables_number       1
_space_group_crystal_system       triclinic
_cell_length_a                    28.839497
_cell_length_b                    18.368721
_cell_length_c                    18.371121
_cell_angle_alpha                 89.950962
_cell_angle_beta                  130.381842
_cell_angle_gamma                 89.785039
_cell_volume                      7413.1708887

loop_
_atom_site_label
_atom_site_type_symbol
_atom_type_description
_atom_site_fract_x
_atom_site_fract_y
_atom_site_fract_z
_atom_type_partial_charge
C1    C     C_R   0.500276 0.000021 0.360380 0.565413
C2    C     C_R   0.500134 0.860239 0.000114 0.559915
C3    C     C_R   0.999865 0.639763 0.999793 0.554955
C4    C     C_R   0.000136 0.360242 0.000120 0.560140
C5    C     C_R   0.500325 0.000007 0.140096 0.560659
C6    C     C_R   0.499676 0.000039 0.859900 0.555853
C7    C     C_R   0.000325 0.500018 0.140097 0.558340
C8    C     C_R   0.999680 0.500055 0.859904 0.555807
C9    C     C_1   0.000292 0.217417 0.000232 -0.042127
C10   C     C_1   0.999692 0.782589 0.999677 -0.064011
C11   C     C_1   0.500265 0.717412 0.000190 -0.058428
C12   C     C_R   0.499616 0.999980 0.639510 0.540979
C13   C     C_1   0.499707 0.282587 0.999681 -0.061710
C14   C     C_1   0.500338 0.782706 0.000271 -0.055201
C15   C     C_1   0.499648 0.217297 0.999565 -0.058471
C16   C     C_1   0.000362 0.282710 0.000313 -0.042494
C17   C     C_1   0.999639 0.717298 0.999573 -0.058981
C18   C     C_R   0.617366 0.999610 0.622527 0.560380
C19   C     C_R   0.382487 0.000451 0.377914 0.569964
C20   C     C_R   0.117379 0.499627 0.622408 0.560202
C21   C     C_R   0.882556 0.500225 0.377707 0.571881
C22   C     C_2   0.785031 0.042829 0.827300 -0.108567
C23   C     C_R   0.000285 0.500023 0.360390 0.556859
C24   C     C_2   0.215946 0.964704 0.163178 -0.159109
C25   C     C_2   0.285052 0.543469 0.826194 -0.108387
C26   C     C_2   0.714653 0.457473 0.176216 -0.127703
C27   C     C_2   0.815891 0.000808 0.811099 0.221268
C28   C     C_2   0.183788 0.985499 0.189544 0.206111
C29   C     C_2   0.315970 0.500222 0.811243 0.221361
C30   C     C_2   0.684127 0.503799 0.188862 0.234227
C31   C     C_2   0.717895 0.052266 0.756311 0.264760
C32   C     C_2   0.283081 0.951850 0.235490 0.246973
C33   C     C_2   0.217965 0.552865 0.754911 0.263756
C34   C     C_R   0.999656 0.499982 0.639549 0.548743
C35   C     C_2   0.781376 0.444426 0.251811 0.267569
C36   C     C_2   0.683023 0.996011 0.700180 -0.040089
C37   C     C_2   0.316454 0.004003 0.301587 -0.037892
C38   C     C_2   0.183026 0.496141 0.700176 -0.040879
C39   C     C_2   0.817083 0.502928 0.297687 -0.027646
C40   C     C_1   0.500758 0.000053 0.283348 -0.039808
C41   C     C_1   0.499182 0.999960 0.716586 -0.059692
C42   C     C_1   0.000765 0.500061 0.283356 -0.044520
C43   C     C_1   0.999227 0.499975 0.716632 -0.051382
C44   C     C_1   0.500909 0.000038 0.218214 -0.043869
C45   C     C_R   0.882461 0.000515 0.881622 0.555371
C46   C     C_1   0.499077 0.999993 0.781766 -0.058149
C47   C     C_1   0.000912 0.500051 0.218217 -0.046111
C48   C     C_1   0.999104 0.500017 0.781792 -0.051614
C49   C     C_R   0.000095 0.139890 0.000073 0.566101
C50   C     C_R   0.999872 0.860109 0.999879 0.542341
C51   C     C_R   0.500128 0.639892 0.000105 0.551544
C52   C     C_R   0.499887 0.360109 0.999892 0.551597
C53   C     C_3   0.802056 0.897933 0.725402 0.014683
C54   C     C_3   0.822047 0.886388 0.666820 -0.238465
C55   C     C_3   0.839410 0.807070 0.670356 -0.481027
C56   C     C_R   0.117666 0.996563 0.118563 0.572342
C57   C     C_3   0.215350 0.928376 0.325755 0.007780
C58   C     C_3   0.241860 0.941239 0.428449 -0.249589
C59   C     C_3   0.247776 0.870175 0.477036 -0.476670
C60   C     C_3   0.302600 0.395147 0.729252 0.013593
C61   C     C_3   0.323920 0.381520 0.672845 -0.238815
C62   C     C_3   0.342090 0.302009 0.679945 -0.477991
C63   C     C_3   0.691943 0.609799 0.267501 0.008715
C64   C     C_3   0.708167 0.663742 0.223133 -0.299491
C65   C     C_3   0.682526 0.739432 0.213119 -0.463958
C66   C     C_3   0.696295 0.135733 0.824578 -0.000901
C67   C     C_R   0.382488 0.500372 0.881656 0.556648
C68   C     C_3   0.635979 0.118678 0.801069 -0.246042
C69   C     C_3   0.637476 0.139964 0.882877 -0.483287
C70   C     C_3   0.274812 0.839351 0.164322 0.018686
C71   C     C_3   0.241651 0.790420 0.185455 -0.272139
C72   C     C_3   0.204232 0.732405 0.108719 -0.480156
C73   C     C_3   0.195603 0.638311 0.820143 -0.001719
C74   C     C_3   0.135215 0.620695 0.796144 -0.245105
C75   C     C_3   0.135591 0.643731 0.876294 -0.485095
C76   C     C_3   0.777234 0.322892 0.208106 0.012974
C77   C     C_3   0.730304 0.279746 0.204493 -0.259618
C78   C     C_R   0.617502 0.502428 0.118356 0.544455
C79   C     C_3   0.694715 0.227688 0.119801 -0.483867
C80   C     C_R   0.499867 0.139763 0.999781 0.557447
Cu1   Cu    Cu3+1 0.500000 0.927480 0.500000 0.970902
Cu2   Cu    Cu3+1 0.438990 0.000000 0.938980 0.949344
Cu3   Cu    Cu3+1 0.061010 0.500000 0.061020 0.941734
Cu4   Cu    Cu3+1 0.938990 0.500000 0.938980 0.959245
Cu5   Cu    Cu3+1 0.500000 0.072520 0.500000 0.964958
Cu6   Cu    Cu3+1 0.000000 0.427480 0.500000 0.978424
Cu7   Cu    Cu3+1 0.000000 0.572520 0.500000 0.950695
Cu8   Cu    Cu3+1 0.999980 0.000000 0.072500 0.936915
Cu9   Cu    Cu3+1 0.000020 0.000000 0.927500 0.930735
Cu10  Cu    Cu3+1 0.499980 0.500000 0.072500 0.938453
Cu11  Cu    Cu3+1 0.500020 0.500000 0.927500 0.924911
Cu12  Cu    Cu3+1 0.561010 0.000000 0.061020 0.928369
H1    H     H_    0.810349 0.074807 0.892355 0.086415
H2    H     H_    0.853192 0.800427 0.626598 0.148644
H3    H     H_    0.800053 0.770974 0.641293 0.149764
H4    H     H_    0.245824 0.889783 0.327367 0.138374
H5    H     H_    0.169388 0.903640 0.284948 0.143145
H6    H     H_    0.287586 0.966366 0.469708 0.177514
H7    H     H_    0.211842 0.979384 0.428447 0.179811
H8    H     H_    0.202422 0.844648 0.437861 0.154173
H9    H     H_    0.267124 0.881428 0.551371 0.159185
H10   H     H_    0.278552 0.831712 0.479395 0.155916
H11   H     H_    0.261146 0.362212 0.696981 0.135639
H12   H     H_    0.192279 0.955309 0.088207 0.095431
H13   H     H_    0.337900 0.374649 0.803945 0.112282
H14   H     H_    0.286641 0.395919 0.596524 0.174061
H15   H     H_    0.363656 0.416501 0.700854 0.195405
H16   H     H_    0.380484 0.287053 0.755548 0.158730
H17   H     H_    0.356799 0.293804 0.637659 0.152028
H18   H     H_    0.302852 0.265804 0.651250 0.151343
H19   H     H_    0.713722 0.629075 0.340635 0.158651
H20   H     H_    0.642337 0.610924 0.228188 0.157072
H21   H     H_    0.758421 0.667711 0.269403 0.166428
H22   H     H_    0.689413 0.644754 0.151263 0.155214
H23   H     H_    0.310312 0.576600 0.890283 0.086659
H24   H     H_    0.632174 0.737460 0.166404 0.158749
H25   H     H_    0.694697 0.777165 0.180615 0.157409
H26   H     H_    0.701769 0.760742 0.284317 0.148887
H27   H     H_    0.705402 0.194911 0.839274 0.155667
H28   H     H_    0.734035 0.106937 0.891831 0.100918
H29   H     H_    0.598531 0.149006 0.735587 0.199132
H30   H     H_    0.626764 0.059430 0.787437 0.157345
H31   H     H_    0.673865 0.109258 0.948812 0.148833
H32   H     H_    0.593075 0.127042 0.863404 0.163080
H33   H     H_    0.645801 0.199271 0.897061 0.141033
H34   H     H_    0.689067 0.424922 0.111674 0.076160
H35   H     H_    0.304810 0.803855 0.161320 0.156383
H36   H     H_    0.243251 0.865261 0.092621 0.114762
H37   H     H_    0.275614 0.763434 0.256007 0.173592
H38   H     H_    0.210421 0.823078 0.188168 0.145157
H39   H     H_    0.168837 0.758514 0.038136 0.148996
H40   H     H_    0.181328 0.697460 0.126349 0.164298
H41   H     H_    0.234058 0.697584 0.104648 0.142335
H42   H     H_    0.203769 0.697778 0.832858 0.154078
H43   H     H_    0.233590 0.610927 0.888541 0.102105
H44   H     H_    0.097598 0.649647 0.729376 0.200058
H45   H     H_    0.760691 0.864868 0.693308 0.133857
H46   H     H_    0.126939 0.561170 0.784674 0.156837
H47   H     H_    0.172168 0.614470 0.943538 0.149982
H48   H     H_    0.091154 0.630376 0.856465 0.162074
H49   H     H_    0.142914 0.703335 0.888155 0.139885
H50   H     H_    0.812495 0.283882 0.224601 0.152824
H51   H     H_    0.757396 0.346902 0.137461 0.106486
H52   H     H_    0.754218 0.247976 0.271785 0.178600
H53   H     H_    0.697693 0.317118 0.198648 0.175436
H54   H     H_    0.668866 0.258678 0.051632 0.146757
H55   H     H_    0.661923 0.196440 0.120032 0.173965
H56   H     H_    0.837974 0.876312 0.799271 0.113434
H57   H     H_    0.726128 0.188767 0.124445 0.142213
H58   H     H_    0.703167 0.942167 0.716152 0.081336
H59   H     H_    0.294775 0.054939 0.295465 0.109090
H60   H     H_    0.203102 0.442166 0.717344 0.083276
H61   H     H_    0.797723 0.556940 0.271669 0.080314
H62   H     H_    0.784289 0.902300 0.591284 0.172380
H63   H     H_    0.861856 0.921328 0.695082 0.194873
H64   H     H_    0.878221 0.790616 0.745100 0.160291
O1    O     O_R   0.500010 0.938750 0.394200 -0.498455
O2    O     O_R   0.410970 0.061250 0.410960 -0.526377
O3    O     O_R   0.410970 0.938750 0.410960 -0.453345
O4    O     O_R   0.589030 0.061250 0.589040 -0.455244
O5    O     O_R   0.089030 0.438750 0.589040 -0.529934
O6    O     O_R   0.910970 0.561250 0.410960 -0.529616
O7    O     O_R   0.910970 0.438750 0.410960 -0.445034
O8    O     O_R   0.089030 0.561250 0.589040 -0.457437
O9    O     O_R   0.999970 0.105800 0.061210 -0.501789
O10   O     O_R   0.000030 0.894200 0.938790 -0.516416
O11   O     O_R   0.000030 0.105800 0.938790 -0.497306
O12   O     O_R   0.499990 0.061250 0.605800 -0.523958
O13   O     O_R   0.999970 0.894200 0.061210 -0.509246
O14   O     O_R   0.499970 0.605800 0.061210 -0.514127
O15   O     O_R   0.500030 0.394200 0.938790 -0.514393
O16   O     O_R   0.500030 0.605800 0.938790 -0.499014
O17   O     O_R   0.499970 0.394200 0.061210 -0.496051
O18   O     O_R   0.910960 0.000000 0.972180 -0.539358
O19   O     O_R   0.089040 0.000000 0.027820 -0.534667
O20   O     O_R   0.410960 0.500000 0.972180 -0.537096
O21   O     O_R   0.589040 0.500000 0.027820 -0.535383
O22   O     O_R   0.910970 0.000000 0.849710 -0.490101
O23   O     O_R   0.499990 0.938750 0.605800 -0.508174
O24   O     O_R   0.089030 0.000000 0.150290 -0.483349
O25   O     O_R   0.410970 0.500000 0.849710 -0.490302
O26   O     O_R   0.589030 0.500000 0.150290 -0.495594
O27   O     O_R   0.551520 0.105790 0.051530 -0.511423
O28   O     O_R   0.448480 0.894210 0.948470 -0.499680
O29   O     O_R   0.448480 0.105790 0.948470 -0.504969
O30   O     O_R   0.551520 0.894210 0.051530 -0.509401
O31   O     O_R   0.051520 0.605790 0.051530 -0.511218
O32   O     O_R   0.948480 0.394210 0.948470 -0.500418
O33   O     O_R   0.948480 0.605790 0.948470 -0.505849
O34   O     O_R   0.500010 0.061250 0.394200 -0.501703
O35   O     O_R   0.051520 0.394210 0.051530 -0.502013
O36   O     O_R   0.551510 0.000000 0.157320 -0.501145
O37   O     O_R   0.448490 0.000000 0.842680 -0.503189
O38   O     O_R   0.051510 0.500000 0.157320 -0.500935
O39   O     O_R   0.948490 0.500000 0.842680 -0.497772
O40   O     O_R   0.448450 0.000000 0.054250 -0.502764
O41   O     O_R   0.551550 0.000000 0.945750 -0.510388
O42   O     O_R   0.948450 0.500000 0.054250 -0.505921
O43   O     O_R   0.051550 0.500000 0.945750 -0.511031
O44   O     O_3   0.786613 0.972323 0.720482 -0.575226
O45   O     O_R   0.000010 0.438750 0.394200 -0.506215
O46   O     O_3   0.212034 0.995619 0.285144 -0.579379
O47   O     O_3   0.286789 0.469735 0.721651 -0.576658
O48   O     O_3   0.714750 0.538625 0.276790 -0.575511
O49   O     O_3   0.692069 0.119770 0.744955 -0.536217
O50   O     O_3   0.312989 0.890153 0.238428 -0.550810
O51   O     O_3   0.192311 0.620858 0.741749 -0.538183
O52   O     O_3   0.806815 0.374679 0.282666 -0.537206
O53   O     O_R   0.999990 0.561250 0.605800 -0.525344
O54   O     O_R   0.999990 0.438750 0.605800 -0.500076
O55   O     O_R   0.000010 0.561250 0.394200 -0.505043
O56   O     O_R   0.589030 0.938750 0.589040 -0.531624

loop_
_geom_bond_atom_site_label_1
_geom_bond_atom_site_label_2
_ccdc_geom_bond_type
C70   H35   S    
C66   C68   S    
C21   O7    A    
Cu2   O28   S    
C78   O21   A    
C73   C74   S    
C18   O56   A    
C58   H6    S    
C15   C80   S    
C8    C48   S    
C28   C56   S    
Cu8   O18   S    
C53   C54   S    
C74   H46   S    
Cu10  O17   S    
C23   C42   S    
Cu11  O16   S    
C39   H61   S    
C29   O47   S    
Cu3   O35   S    
C51   O16   A    
C9    C16   T    
C31   O49   S    
C75   H48   S    
C25   H23   S    
C11   C14   T    
Cu12  O30   S    
C62   H16   S    
C69   H31   S    
Cu4   O39   S    
C2    O30   A    
C20   O8    A    
Cu10  O20   S    
Cu2   Cu12  S    
C8    O39   A    
C26   H34   S    
C80   O27   A    
C63   H20   S    
Cu9   O11   S    
Cu2   O37   S    
C34   O54   A    
C1    C40   S    
C29   C67   S    
Cu10  O26   S    
C68   C69   S    
C57   H4    S    
C74   H44   S    
C57   O46   S    
C50   O10   A    
C41   C46   T    
C72   H40   S    
C70   C71   S    
C21   O6    A    
Cu5   O4    S    
C60   H11   S    
C75   H49   S    
C43   C48   T    
Cu2   O40   S    
Cu10  Cu11  S    
C79   H57   S    
C1    O34   A    
C27   C45   S    
Cu6   O54   S    
Cu7   O8    S    
C73   O51   S    
C69   H33   S    
C66   H28   S    
C59   H8    S    
Cu7   O53   S    
C4    O35   A    
Cu3   O31   S    
C37   H59   S    
C55   H2    S    
C2    C14   S    
C52   O15   A    
C38   H60   S    
Cu8   O24   S    
C79   H54   S    
C77   C79   S    
C25   C29   D    
C55   H64   S    
Cu1   O1    S    
C22   C31   S    
C58   H7    S    
C56   O19   A    
C59   H9    S    
C73   H43   S    
C64   H22   S    
C76   C77   S    
Cu1   O23   S    
C55   H3    S    
C74   C75   S    
C68   H30   S    
C54   H63   S    
C66   O49   S    
Cu6   Cu7   S    
C79   H55   S    
Cu2   O29   S    
C69   H32   S    
Cu4   O42   S    
C58   C59   S    
C32   C37   D    
C72   H41   S    
C53   H56   S    
C60   C61   S    
C78   O26   A    
C7    C47   S    
C4    C16   S    
C35   C39   D    
C24   C32   S    
C49   O9    A    
C12   C41   S    
C34   O53   A    
C71   H37   S    
C13   C52   S    
C20   C38   S    
C26   C35   S    
C60   O47   S    
Cu3   Cu4   S    
C21   C39   S    
C13   C15   T    
C67   O20   A    
C80   O29   A    
C57   H5    S    
Cu10  O14   S    
Cu8   O13   S    
C9    C49   S    
Cu4   O33   S    
Cu6   O5    S    
C2    O28   A    
Cu9   O22   S    
Cu8   Cu9   S    
C7    O38   A    
C61   H14   S    
C59   H10   S    
Cu6   O45   S    
C45   O22   A    
C5    O40   A    
C5    C44   S    
C23   O45   A    
C26   C30   D    
C65   H26   S    
C66   H27   S    
Cu11  O25   S    
C65   H24   S    
C53   H45   S    
Cu4   O32   S    
C19   C37   S    
Cu5   O2    S    
Cu9   O19   S    
Cu3   O43   S    
Cu12  O41   S    
C10   C50   S    
C77   H53   S    
C63   O48   S    
C72   H39   S    
C56   O24   A    
C70   H36   S    
C54   C55   S    
C33   O51   S    
C64   H21   S    
C6    C46   S    
C67   O25   A    
C19   O2    A    
Cu7   O55   S    
C51   O14   A    
C27   O44   S    
C24   C28   D    
C5    O36   A    
Cu12  O27   S    
C3    O31   A    
C68   H29   S    
C12   O12   A    
C6    O41   A    
Cu1   O3    S    
C49   O11   A    
C70   O50   S    
C30   O48   S    
C12   O23   A    
C33   C38   D    
Cu11  O15   S    
C22   C27   D    
C28   O46   S    
C64   C65   S    
C4    O32   A    
Cu3   O38   S    
C3    O33   A    
Cu5   O34   S    
C77   H52   S    
C19   O3    A    
C71   C72   S    
C75   H47   S    
C45   O18   A    
C71   H38   S    
C36   H58   S    
C57   C58   S    
C62   H17   S    
C23   O55   A    
C62   H18   S    
C7    O42   A    
C20   O5    A    
Cu11  O21   S    
C1    O1    A    
C22   H1    S    
Cu1   O56   S    
C3    C17   S    
C50   O13   A    
C42   C47   T    
C11   C51   S    
C63   H19   S    
C61   C62   S    
C61   H15   S    
C32   O50   S    
Cu9   O10   S    
C18   O4    A    
C63   C64   S    
C30   C78   S    
C76   H51   S    
Cu12  O36   S    
C35   O52   S    
C40   C44   T    
Cu7   O6    S    
C73   H42   S    
Cu5   O12   S    
C53   O44   S    
Cu8   O9    S    
C65   H25   S    
C31   C36   D    
C8    O43   A    
Cu6   O7    S    
C10   C17   T    
C24   H12   S    
C54   H62   S    
C34   C43   S    
C18   C36   S    
C52   O17   A    
C6    O37   A    
Cu1   Cu5   S    
C60   H13   S    
C76   O52   S    
C25   C33   S    
C76   H50   S    
