data_mof_unit_52794.cif
_audit_creation_date              2012-12-10T16:37:23-0500
_audit_creation_method            fapswitch 2.2
_symmetry_space_group_name_H-M    P1
_symmetry_Int_Tables_number       1
_space_group_crystal_system       triclinic
_cell_length_a                    16.623084
_cell_length_b                    16.662402
_cell_length_c                    16.782557
_cell_angle_alpha                 65.948751
_cell_angle_beta                  65.80297
_cell_angle_gamma                 65.835876
_cell_volume                      3704.47355389

loop_
_atom_site_label
_atom_site_type_symbol
_atom_type_description
_atom_site_fract_x
_atom_site_fract_y
_atom_site_fract_z
_atom_type_partial_charge
C1    C     C_R   0.443653 0.911477 0.712952 0.610106
C2    C     C_R   0.383589 0.652822 0.105065 0.637830
C3    C     C_R   0.933964 0.606396 0.335979 0.691020
C4    C     C_R   0.894802 0.478143 0.703174 0.631086
C5    C     C_R   0.959170 0.179806 0.439115 0.931946
C6    C     C_R   0.038769 0.820087 0.561466 0.906857
C7    C     C_R   0.161148 0.424408 0.007943 0.929726
C8    C     C_R   0.820160 0.560174 0.042641 0.932539
C9    C     C_R   0.439397 0.958691 0.179520 0.889943
C10   C     C_R   0.575595 0.991868 0.838608 0.923751
C11   C     C_R   0.560029 0.820208 0.042755 0.882084
C12   C     C_R   0.615315 0.901345 0.345979 0.642471
C13   C     C_R   0.424220 0.161158 0.008165 0.931373
C14   C     C_R   0.014912 0.571282 0.825374 0.966702
C15   C     C_R   0.960071 0.438649 0.179551 0.883453
C16   C     C_R   0.838260 0.992329 0.575516 0.920863
C17   C     C_R   0.179769 0.958465 0.439203 0.914446
C18   C     C_R   0.491965 0.917922 0.759952 0.507573
C19   C     C_R   0.566357 0.897951 0.297703 0.562655
C20   C     C_R   0.064035 0.698308 0.449728 0.576822
C21   C     C_R   0.902778 0.302050 0.561339 0.525917
C22   C     C_R   0.700032 0.434120 0.109493 0.537855
C23   C     C_R   0.037664 0.660053 0.407411 0.662561
C24   C     C_R   0.233113 0.494978 0.099878 0.486111
C25   C     C_R   0.304737 0.876860 0.563435 0.512717
C26   C     C_R   0.765561 0.897965 0.507349 0.485879
C27   C     C_R   0.495312 0.233707 0.099471 0.493162
C28   C     C_R   0.433299 0.700447 0.108539 0.551272
C29   C     C_R   0.914136 0.562142 0.294475 0.556639
C30   C     C_R   0.916557 0.520779 0.744846 0.501300
C31   C     C_R   0.577739 0.909733 0.580199 -0.125687
C32   C     C_R   0.482303 0.898485 0.480139 -0.122822
C33   C     C_R   0.972200 0.563067 0.554900 -0.128409
C34   C     C_R   0.909663 0.350418 0.608342 0.602388
C35   C     C_R   0.934557 0.473978 0.468691 -0.137941
C36   C     C_R   0.516673 0.517094 0.104893 -0.117144
C37   C     C_R   0.419628 0.419743 0.091245 -0.123897
C38   C     C_R   0.625882 0.896182 0.492711 -0.073734
C39   C     C_R   0.440824 0.890556 0.574521 -0.076550
C40   C     C_R   0.931241 0.490684 0.608178 -0.074605
C41   C     C_R   0.954104 0.559104 0.419820 -0.088622
C42   C     C_R   0.422420 0.559239 0.106414 -0.090084
C43   C     C_R   0.507913 0.372895 0.104363 -0.073067
C44   C     C_R   0.576076 0.898069 0.439311 -0.093371
C45   C     C_R   0.652708 0.384320 0.105763 0.629861
C46   C     C_R   0.486139 0.903358 0.623232 -0.078525
C47   C     C_R   0.372489 0.507903 0.104360 -0.080848
C48   C     C_R   0.559057 0.422938 0.106640 -0.078183
C49   C     C_R   0.924521 0.437934 0.563369 -0.070529
C50   C     C_R   0.986590 0.595907 0.459617 -0.072591
C51   C     C_R   0.577182 0.938383 0.714169 -0.104905
C52   C     C_R   0.470136 0.911499 0.332872 -0.105773
C53   C     C_R   0.038378 0.675603 0.545620 -0.089675
C54   C     C_R   0.919877 0.334241 0.465536 -0.099190
C55   C     C_R   0.664379 0.529986 0.094007 -0.089305
C56   C     C_R   0.275668 0.536764 0.121848 0.643296
C57   C     C_R   0.284682 0.419081 0.064603 -0.099520
C58   C     C_R   0.336092 0.906408 0.467502 -0.100675
C59   C     C_R   0.714057 0.933747 0.582477 -0.092889
C60   C     C_R   0.419195 0.284911 0.064457 -0.099396
C61   C     C_R   0.529399 0.664838 0.093588 -0.110718
C62   C     C_R   0.925226 0.466455 0.329874 -0.105508
C63   C     C_R   0.976353 0.576558 0.693089 -0.108136
C64   C     C_R   0.619877 0.967526 0.752882 -0.071937
C65   C     C_R   0.412392 0.929817 0.279227 -0.042219
C66   C     C_R   0.052111 0.721645 0.592657 -0.022901
C67   C     C_R   0.357407 0.866296 0.615914 0.623057
C68   C     C_R   0.931209 0.280469 0.411154 -0.064238
C69   C     C_R   0.719091 0.587300 0.074305 -0.057515
C70   C     C_R   0.247490 0.379427 0.031234 -0.058548
C71   C     C_R   0.280688 0.928615 0.410775 -0.051928
C72   C     C_R   0.752190 0.966840 0.621562 -0.061335
C73   C     C_R   0.379364 0.247592 0.031283 -0.062145
C74   C     C_R   0.586925 0.719379 0.074153 -0.045369
C75   C     C_R   0.933132 0.411191 0.278974 -0.035429
C76   C     C_R   0.013286 0.610020 0.732404 -0.076658
C77   C     C_R   0.705742 0.979792 0.706369 -0.272518
C78   C     C_R   0.722796 0.877046 0.465084 0.636906
C79   C     C_R   0.321012 0.933874 0.319998 -0.248169
C80   C     C_R   0.051824 0.680762 0.681536 -0.275228
C81   C     C_R   0.931268 0.321596 0.321414 -0.263086
C82   C     C_R   0.677975 0.678206 0.071661 -0.240550
C83   C     C_R   0.295308 0.295430 0.015625 -0.285439
C84   C     C_R   0.622455 0.928358 0.625266 -0.085255
C85   C     C_R   0.429551 0.905861 0.426673 -0.101056
C86   C     C_R   0.996641 0.604239 0.597604 -0.099057
C87   C     C_R   0.926248 0.424832 0.421561 -0.098869
C88   C     C_R   0.570027 0.570538 0.097742 -0.095580
C89   C     C_R   0.536996 0.276323 0.121580 0.635616
C90   C     C_R   0.375246 0.375292 0.071709 -0.083630
F1    F     F_    0.352867 0.919877 0.755947 -0.542942
F2    F     F_    0.299953 0.703810 0.091963 -0.505722
F3    F     F_    0.921731 0.698291 0.299602 -0.478542
F4    F     F_    0.828188 0.435368 0.754793 -0.544703
F5    F     F_    0.455867 0.896857 0.851903 -0.595325
F6    F     F_    0.617076 0.873736 0.219564 -0.583820
F7    F     F_    0.121328 0.751675 0.396230 -0.582932
F8    F     F_    0.871289 0.227711 0.612568 -0.589379
F9    F     F_    0.778855 0.385259 0.133861 -0.608641
F10   F     F_    0.139889 0.522204 0.125339 -0.615235
F11   F     F_    0.228914 0.846524 0.607270 -0.612135
F12   F     F_    0.699227 0.914548 0.296672 -0.502606
F13   F     F_    0.858809 0.871809 0.480807 -0.625549
F14   F     F_    0.522769 0.140772 0.124601 -0.609683
F15   F     F_    0.383991 0.779484 0.132268 -0.585196
F16   F     F_    0.875124 0.615501 0.225810 -0.584475
F17   F     F_    0.870862 0.514554 0.834225 -0.617298
F18   F     F_    0.070854 0.679226 0.315216 -0.492103
F19   F     F_    0.910080 0.305778 0.696220 -0.548033
F20   F     F_    0.704145 0.300806 0.092877 -0.526157
F21   F     F_    0.219428 0.594525 0.173770 -0.508133
F22   F     F_    0.332348 0.819642 0.705545 -0.537876
F23   F     F_    0.778531 0.825791 0.406651 -0.526965
F24   F     F_    0.594745 0.220342 0.173449 -0.540187
H1    H     H_    0.736509 0.002276 0.736285 0.205645
H2    H     H_    0.278320 0.948891 0.278267 0.212447
H3    H     H_    0.073064 0.710552 0.713663 0.216045
H4    H     H_    0.938678 0.280532 0.281259 0.208867
H5    H     H_    0.720209 0.720235 0.058025 0.215138
H6    H     H_    0.266201 0.266368 0.990410 0.199709
O1    O     O_R   0.982940 0.138950 0.510160 -0.561525
O2    O     O_R   0.982940 0.510160 0.138950 -0.526056
O3    O     O_R   0.861050 0.017060 0.489840 -0.562808
O4    O     O_R   0.138950 0.982940 0.510160 -0.579276
O5    O     O_R   0.867700 0.025880 0.612340 -0.603867
O6    O     O_R   0.132300 0.974120 0.387660 -0.619431
O7    O     O_R   0.025880 0.612340 0.867700 -0.630807
O8    O     O_R   0.974120 0.387660 0.132300 -0.641312
O9    O     O_R   0.612340 0.867700 0.025880 -0.639204
O10   O     O_R   0.387660 0.132300 0.974120 -0.632120
O11   O     O_R   0.387660 0.974120 0.132300 -0.639422
O12   O     O_R   0.017060 0.861050 0.489840 -0.535114
O13   O     O_R   0.612340 0.025880 0.867700 -0.619845
O14   O     O_R   0.132300 0.387660 0.974120 -0.643063
O15   O     O_R   0.867700 0.612340 0.025880 -0.627651
O16   O     O_R   0.974120 0.132300 0.387660 -0.633563
O17   O     O_R   0.025880 0.867700 0.612340 -0.630716
O18   O     O_R   0.138950 0.510160 0.982940 -0.551897
O19   O     O_R   0.861050 0.489840 0.017060 -0.514243
O20   O     O_R   0.510160 0.982940 0.138950 -0.518421
O21   O     O_R   0.489840 0.017060 0.861050 -0.544715
O22   O     O_R   0.489840 0.861050 0.017060 -0.529376
O23   O     O_R   0.510160 0.138950 0.982940 -0.546897
O24   O     O_R   0.017060 0.489840 0.861050 -0.572170
Zn1   Zn    Zn3+2 0.004880 0.004880 0.583590 1.151257
Zn2   Zn    Zn3+2 0.995120 0.995120 0.416410 1.181891
Zn3   Zn    Zn3+2 0.004880 0.583590 0.004880 1.197431
Zn4   Zn    Zn3+2 0.995120 0.416410 0.995120 1.154678
Zn5   Zn    Zn3+2 0.583590 0.004880 0.004880 1.193929
Zn6   Zn    Zn3+2 0.416410 0.995120 0.995120 1.183271

loop_
_geom_bond_atom_site_label_1
_geom_bond_atom_site_label_2
_ccdc_geom_bond_type
C5    O16   A    
C15   C75   S    
C65   C79   A    
C15   O2    A    
C30   F17   S    
C64   C77   A    
C60   C73   A    
C36   C42   A    
C16   C72   S    
C10   O13   A    
O24   Zn4   S    
C7    C70   S    
C71   C79   A    
O6    Zn2   S    
C36   C88   A    
C38   C44   A    
C1    C18   A    
C26   C78   A    
C37   C90   A    
C8    O19   A    
C68   C81   A    
O17   Zn1   S    
C52   C85   A    
C16   O3    A    
C27   C60   A    
C54   C87   A    
C9    O20   A    
C17   O6    A    
C54   C68   A    
C63   C76   A    
C23   F18   S    
C77   H1    S    
C40   C49   A    
C5    O1    A    
C27   F14   S    
C32   C39   A    
C55   C88   A    
C3    C29   A    
C69   C82   A    
C29   C62   A    
C35   C87   A    
C19   C52   A    
O10   Zn6   S    
C4    C40   A    
C24   C57   A    
C31   C46   A    
C25   C67   A    
C35   C49   A    
C13   O10   A    
O3    Zn2   S    
C36   C48   A    
C53   C86   A    
C57   C70   A    
C37   C47   A    
C26   C59   A    
O18   Zn3   S    
C56   F21   S    
C59   C72   A    
C28   C61   A    
C1    F1    S    
C79   H2    S    
C8    O15   A    
C18   F5    S    
C82   H5    S    
C74   C82   A    
C5    C68   S    
C11   O9    A    
O21   Zn6   S    
C9    O11   A    
C32   C44   A    
C14   O24   A    
O19   Zn4   S    
C33   C40   A    
C57   C90   A    
C20   F7    S    
O13   Zn5   S    
C59   C84   A    
C7    O14   A    
C6    O12   A    
O4    Zn1   S    
C45   F20   S    
O8    Zn4   S    
C23   C50   A    
C21   C34   A    
C38   C78   A    
C33   C50   A    
C81   H4    S    
C4    C30   A    
C14   O7    A    
C10   O21   A    
C14   C76   S    
C83   H6    S    
C37   C43   A    
C33   C86   A    
C12   F12   S    
C72   C77   A    
C70   C83   A    
C61   C88   A    
C26   F13   S    
C17   O4    A    
C20   C23   A    
O23   Zn5   S    
C28   F15   S    
C8    C69   S    
C3    F3    S    
C43   C89   A    
O2    Zn3   S    
C2    F2    S    
C53   C66   A    
C55   C69   A    
C39   C46   A    
C4    F4    S    
C16   O5    A    
C13   C73   S    
C17   C71   S    
O15   Zn3   S    
C15   O8    A    
C63   C86   A    
C61   C74   A    
O1    Zn1   S    
C29   F16   S    
C78   F23   S    
C25   C58   A    
C62   C75   A    
C58   C85   A    
C41   C50   A    
C66   C80   A    
C43   C48   A    
C45   C48   A    
C80   H3    S    
C3    C41   A    
C34   C49   A    
C22   F9    S    
C24   F10   S    
C39   C67   A    
C75   C81   A    
C51   C64   A    
C76   C80   A    
C20   C53   A    
C11   C74   S    
C7    O18   A    
C22   C55   A    
C60   C90   A    
C18   C51   A    
C24   C56   A    
O14   Zn4   S    
C62   C87   A    
C10   C64   S    
C31   C38   A    
O12   Zn2   S    
O22   Zn6   S    
C6    O17   A    
C89   F24   S    
C12   C44   A    
O5    Zn1   S    
C21   F8    S    
C25   F11   S    
C21   C54   A    
C2    C42   A    
C32   C85   A    
C51   C84   A    
C12   C19   A    
C1    C46   A    
C27   C89   A    
C42   C47   A    
C13   O23   A    
C35   C41   A    
C11   O22   A    
C9    C65   S    
C58   C71   A    
C31   C84   A    
C19   F6    S    
C67   F22   S    
C6    C66   S    
C22   C45   A    
C34   F19   S    
O11   Zn6   S    
C2    C28   A    
O9    Zn5   S    
C30   C63   A    
O20   Zn5   S    
C73   C83   A    
O16   Zn2   S    
C52   C65   A    
O7    Zn3   S    
C47   C56   A    
