data_mof_unit_42667.cif
_audit_creation_date              2012-12-10T18:13:51-0500
_audit_creation_method            fapswitch 2.2
_symmetry_space_group_name_H-M    P1
_symmetry_Int_Tables_number       1
_space_group_crystal_system       triclinic
_cell_length_a                    10.884998
_cell_length_b                    9.776611
_cell_length_c                    23.37696
_cell_angle_alpha                 89.128854
_cell_angle_beta                  82.694128
_cell_angle_gamma                 91.351002
_cell_volume                      2466.43999185

loop_
_atom_site_label
_atom_site_type_symbol
_atom_type_description
_atom_site_fract_x
_atom_site_fract_y
_atom_site_fract_z
_atom_type_partial_charge
C1    C     C_R   0.260512 0.499360 0.498364 0.868273
C2    C     C_R   0.241010 0.578309 0.986766 0.424700
C3    C     C_R   0.241300 0.574806 0.046329 -0.121585
C4    C     C_R   0.352892 0.580391 0.070204 -0.075401
C5    C     C_R   0.466157 0.594552 0.033829 -0.052251
C6    C     C_R   0.576520 0.614288 0.058437 -0.160697
C7    C     C_R   0.688645 0.642932 0.021501 0.358713
C8    C     C_R   0.690031 0.644933 0.960912 0.361843
C9    C     C_R   0.353809 0.570136 0.130078 0.674018
C10   C     C_R   0.568811 0.605162 0.119511 0.687832
C11   C     C_R   0.585403 0.464058 0.228646 0.321442
C12   C     C_R   0.502355 0.500443 0.391183 0.930761
C13   C     C_R   0.601828 0.483368 0.287064 0.270527
C14   C     C_R   0.495884 0.498508 0.328346 -0.235894
C15   C     C_R   0.379172 0.476094 0.310564 -0.270081
C16   C     C_R   0.365517 0.464249 0.252045 0.452188
C17   C     C_R   0.469933 0.495278 0.210595 0.029802
C18   C     C_R   0.357934 0.498132 0.771122 0.382212
C19   C     C_R   0.363721 0.508421 0.711023 0.270275
C20   C     C_R   0.479552 0.493359 0.675308 -0.355540
C21   C     C_R   0.578200 0.445971 0.704083 0.231356
C22   C     C_R   0.571208 0.450027 0.765263 0.366605
C23   C     C_R   0.739790 0.502295 0.494232 0.902734
C24   C     C_R   0.467069 0.510858 0.796902 -0.031474
C25   C     C_3   0.084677 0.633688 0.462033 0.140188
C26   C     C_3   0.045811 0.501729 0.556795 0.250335
C27   C     C_3   0.945861 0.623865 0.452077 -0.321074
C28   C     C_3   0.910551 0.535638 0.552357 -0.405023
C29   C     C_3   0.078092 0.378786 0.460618 -0.364078
C30   C     C_3   0.121981 0.501299 0.494708 -0.096013
C31   C     C_3   0.879152 0.507822 0.491198 -0.071045
C32   C     C_3   0.935573 0.371448 0.467653 -0.265643
C33   C     C_3   0.629290 0.086712 0.494446 0.576138
C34   C     C_3   0.629350 0.919980 0.492439 0.592217
C35   C     C_3   0.434343 0.079486 0.557485 0.159004
C36   C     C_3   0.439649 0.914128 0.558390 0.132432
C37   C     C_3   0.437993 0.081151 0.454000 -0.299546
C38   C     C_3   0.431925 0.918283 0.456130 -0.291358
C39   C     C_R   0.492908 0.498554 0.609815 0.969196
C40   C     C_R   0.575294 0.605828 0.875720 0.714130
C41   C     C_R   0.359359 0.595733 0.889484 0.672539
C42   C     C_R   0.354200 0.590098 0.949711 -0.104654
C43   C     C_R   0.467133 0.597898 0.973304 -0.095889
C44   C     C_R   0.579499 0.617513 0.936193 -0.167607
Cu1   Cu    Cu3+1 0.499860 0.642410 0.500030 1.100078
Cu2   Cu    Cu3+1 0.499860 0.357590 0.500030 1.095381
H1    H     H_    0.095352 0.722611 0.489585 0.151033
H2    H     H_    0.084548 0.580479 0.583507 0.201486
H3    H     H_    0.902959 0.723944 0.461615 0.254494
H4    H     H_    0.895367 0.644808 0.563306 0.223065
H5    H     H_    0.940074 0.601009 0.406265 0.269868
H6    H     H_    0.846966 0.476975 0.584113 0.269260
H7    H     H_    0.114755 0.390515 0.414141 0.213634
H8    H     H_    0.112168 0.280725 0.474638 0.260936
H9    H     H_    0.905656 0.349977 0.424962 0.251277
H10   H     H_    0.903872 0.285430 0.497545 0.289176
H11   H     H_    0.153706 0.562144 0.073870 0.242574
H12   H     H_    0.484375 0.113228 0.593426 0.150074
H13   H     H_    0.501919 0.891541 0.591110 0.161939
H14   H     H_    0.344137 0.121317 0.453767 0.223722
H15   H     H_    0.334116 0.882219 0.462589 0.203035
H16   H     H_    0.485763 0.114945 0.411182 0.235191
H17   H     H_    0.467718 0.880000 0.412915 0.249030
H18   H     H_    0.300504 0.453041 0.342707 0.209528
N1    N     N_R   0.467179 0.565813 0.855372 -0.438955
N2    N     N_R   0.463305 0.552696 0.152278 -0.436951
N3    N     N_3   0.500250 0.143650 0.501250 -0.265740
N4    N     N_3   0.500250 0.856350 0.501250 -0.273276
O1    O     O_R   0.317570 0.620260 0.500030 -0.552880
O2    O     O_R   0.317570 0.379740 0.500030 -0.518301
O3    O     O_R   0.499840 0.620290 0.417900 -0.528732
O4    O     O_R   0.499840 0.379710 0.417900 -0.577518
O5    O     O_R   0.682190 0.620260 0.500010 -0.517222
O6    O     O_R   0.682190 0.379740 0.500010 -0.515032
O7    O     O_R   0.499920 0.620230 0.582140 -0.515250
O8    O     O_R   0.499920 0.379770 0.582140 -0.540427
O9    O     O_2   0.675719 0.637133 0.837658 -0.391554
O10   O     O_2   0.262534 0.644717 0.865741 -0.375144
O11   O     O_2   0.247344 0.586264 0.165044 -0.427688
O12   O     O_2   0.661973 0.655896 0.146235 -0.416278
Cl1   Cl    Cl    0.097092 0.549668 0.961480 -0.328153
Cl2   Cl    Cl    0.217613 0.517928 0.686593 -0.342008
Cl3   Cl    Cl    0.703294 0.365425 0.664734 -0.410901
S1    S     S_3+6 0.670272 0.344079 0.801146 0.153251
O13   O     O_2   0.623628 0.325988 0.864202 -0.274182
O14   O     O_2   0.675175 0.205086 0.774422 -0.161929
O15   O     O_3   0.814150 0.414244 0.793189 -0.365350
H19   H     H_    0.863177 0.351818 0.814576 0.416860
Cl4   Cl    Cl    0.179972 0.672013 0.395175 -0.595429
Cl5   Cl    Cl    0.039461 0.343202 0.596120 -0.297622
Cl6   Cl    Cl    0.711219 0.145775 0.553183 -0.445721
Cl7   Cl    Cl    0.722358 0.855213 0.546015 -0.506314
Cl8   Cl    Cl    0.716501 0.158841 0.429727 -0.472131
Cl9   Cl    Cl    0.707264 0.860239 0.425369 -0.505016
S2    S     S_3+6 0.280925 0.147943 0.582199 0.132954
O16   O     O_2   0.198628 0.136695 0.535872 -0.270092
O17   O     O_2   0.213595 0.081377 0.635760 -0.104555
O18   O     O_3   0.289495 0.307913 0.603253 -0.445422
H20   H     H_    0.313723 0.297019 0.642426 0.366220
S3    S     S_3+6 0.297655 0.829110 0.596321 0.119808
O19   O     O_2   0.290376 0.678941 0.595809 -0.259939
O20   O     O_2   0.296396 0.860576 0.659179 -0.159167
O21   O     O_3   0.164253 0.878191 0.574108 -0.407216
H21   H     H_    0.181845 0.886005 0.531838 0.332996
Cl10  Cl    Cl    0.831607 0.669564 0.049071 -0.332077
Cl11  Cl    Cl    0.833231 0.681614 0.917675 -0.275650
S4    S     S_3+6 0.684835 0.355064 0.184331 0.124473
O22   O     O_2   0.799501 0.431328 0.157146 -0.155461
O23   O     O_2   0.722012 0.238094 0.220325 -0.190849
O24   O     O_3   0.608818 0.291543 0.131872 -0.510063
H22   H     H_    0.671061 0.238669 0.107376 0.397273
S5    S     S_3+6 0.752747 0.490985 0.307356 0.079706
O25   O     O_2   0.786850 0.352737 0.328095 -0.197864
O26   O     O_2   0.846215 0.536972 0.257476 -0.178237
O27   O     O_3   0.756009 0.603137 0.360371 -0.566334
H23   H     H_    0.795354 0.686770 0.340977 0.412221
S6    S     S_3+6 0.245568 0.348778 0.237373 0.108944
O28   O     O_2   0.267474 0.299582 0.176388 -0.219055
O29   O     O_2   0.242218 0.227427 0.277897 -0.259275
O30   O     O_3   0.108475 0.426013 0.248991 -0.403396
H24   H     H_    0.046144 0.354065 0.242822 0.419207
Cl12  Cl    Cl    0.229057 0.405885 0.808952 -0.342947

loop_
_geom_bond_atom_site_label_1
_geom_bond_atom_site_label_2
_ccdc_geom_bond_type
O15   H19   S    
Cu1   O3    S    
C11   C13   A    
C41   C42   A    
S2    O16   D    
S1    O15   S    
C36   H13   S    
Cu2   O8    S    
C37   H16   S    
S2    O18   S    
C7    C8    A    
Cu1   Cu2   S    
C17   N2    S    
C29   C30   S    
C35   H12   S    
C18   C24   A    
S1    O14   D    
C29   C32   S    
C33   Cl6   S    
C5    C6    A    
C29   H8    S    
O27   H23   S    
Cu1   O5    S    
C18   C19   A    
C9    O11   S    
C9    N2    A    
C1    C30   S    
O24   H22   S    
C28   H4    S    
C21   Cl3   S    
C16   C17   A    
S4    O22   D    
C7    Cl10  S    
C39   O7    A    
C19   Cl2   S    
C25   H1    S    
C32   H9    S    
Cu2   O4    S    
C26   H2    S    
C38   H15   S    
C12   O4    A    
C21   C22   A    
S4    O23   D    
C23   O5    A    
S5    O26   D    
S5    O25   D    
C27   H5    S    
C10   N2    A    
C15   C16   A    
C27   C31   S    
C34   Cl9   S    
S1    O13   D    
S6    O30   S    
C34   N4    S    
C41   O10   S    
C20   C39   S    
C10   O12   S    
C41   N1    A    
Cu1   O1    S    
S3    O21   S    
C1    O1    A    
C33   Cl8   S    
C35   C36   S    
C23   C31   S    
C43   C44   A    
C37   C38   S    
C31   C32   S    
C35   N3    S    
C26   Cl5   S    
C15   H18   S    
Cu1   N4    S    
S3    O20   D    
C33   C34   S    
C36   S3    S    
C39   O8    A    
C24   N1    S    
C18   Cl12  S    
C3    H11   S    
C12   O3    A    
C38   N4    S    
C26   C30   S    
C40   N1    A    
C11   S4    S    
S4    O24   S    
C22   C24   A    
C25   C27   S    
C42   C43   A    
C23   O6    A    
C3    C4    A    
Cu2   O6    S    
O30   H24   S    
C33   N3    S    
C38   H17   S    
C25   C30   S    
S2    O17   D    
C11   C17   A    
C14   C15   A    
C25   Cl4   S    
C28   C31   S    
C8    C44   A    
C12   C14   S    
C4    C5    A    
C8    Cl11  S    
C6    C10   A    
C36   N4    S    
C6    C7    A    
C35   S2    S    
C13   S5    S    
C26   C28   S    
C1    O2    A    
Cu1   O7    S    
C19   C20   A    
S6    O29   D    
C2    C3    A    
Cu2   N3    S    
S6    O28   D    
C28   H6    S    
C29   H7    S    
C2    C42   A    
C37   N3    S    
S3    O19   D    
C5    C43   A    
C34   Cl7   S    
Cu2   O2    S    
C37   H14   S    
C40   C44   A    
C20   C21   A    
O18   H20   S    
O21   H21   S    
C40   O9    S    
C16   S6    S    
C2    Cl1   S    
C4    C9    A    
C13   C14   A    
C32   H10   S    
S5    O27   S    
C27   H3    S    
C22   S1    S    
