data_mof_unit_50082.cif
_audit_creation_date              2012-12-11T15:55:41-0500
_audit_creation_method            fapswitch 2.2
_symmetry_space_group_name_H-M    P1
_symmetry_Int_Tables_number       1
_space_group_crystal_system       triclinic
_cell_length_a                    6.951002
_cell_length_b                    14.545839
_cell_length_c                    16.118079
_cell_angle_alpha                 89.993663
_cell_angle_beta                  89.730663
_cell_angle_gamma                 89.964674
_cell_volume                      1629.65092052

loop_
_atom_site_label
_atom_site_type_symbol
_atom_type_description
_atom_site_fract_x
_atom_site_fract_y
_atom_site_fract_z
_atom_type_partial_charge
O1    O     O_R   0.505680 0.583900 0.413320 -0.541677
O2    O     O_R   0.176010 0.594950 0.586080 -0.540566
O3    O     O_R   0.005680 0.416100 0.586680 -0.539943
C1    C     C_R   0.344771 0.616274 0.615531 0.803261
O4    O     O_R   0.175960 0.594930 0.413930 -0.551549
O5    O     O_R   0.005640 0.416080 0.413300 -0.548759
C2    C     C_R   0.345316 0.617046 0.385204 0.685775
O6    O     O_R   0.505720 0.583920 0.586700 -0.497701
O7    O     O_3   0.339190 0.441320 0.500000 -0.392649
V1    V     V_3+5 0.064350 0.510890 0.500000 1.442574
O8    O     O_R   0.675920 0.405050 0.413920 -0.548329
C3    C     C_R   0.845936 0.384094 0.383983 0.710840
O9    O     O_R   0.675960 0.405070 0.586070 -0.544701
C4    C     C_R   0.845024 0.382004 0.614022 0.740379
V2    V     V_3+5 0.564340 0.489110 0.500000 1.454021
O10   O     O_3   0.839370 0.558680 0.500000 -0.358003
C5    C     C_R   0.021338 0.306092 0.731451 0.008988
C6    C     C_R   0.855502 0.314730 0.683254 -0.031585
C7    C     C_R   0.702181 0.255692 0.701707 -0.170976
H1    H     H_    0.580415 0.255055 0.661366 0.122229
C8    C     C_R   0.712451 0.192203 0.767515 -0.143118
H2    H     H_    0.595918 0.144264 0.776665 0.183139
C9    C     C_R   0.877538 0.185839 0.817328 -0.042514
C10   C     C_R   0.030972 0.244575 0.798379 -0.065743
C11   C     C_3   0.230555 0.216593 0.776550 0.521614
C12   C     C_3   0.217365 0.279954 0.701671 -0.045974
H3    H     H_    0.335513 0.239141 0.824136 -0.016240
H4    H     H_    0.319067 0.338975 0.702182 0.075181
C13   C     C_R   0.034592 0.242708 0.199797 -0.182783
H5    H     H_    0.163762 0.237783 0.162124 0.189614
C14   C     C_R   0.028234 0.308163 0.263433 0.213751
C15   C     C_R   0.860328 0.316695 0.314153 -0.183736
C16   C     C_R   0.702865 0.259159 0.297072 -0.246673
H6    H     H_    0.573209 0.263210 0.334385 0.161989
C17   C     C_R   0.710398 0.194520 0.232797 0.637558
C18   C     C_R   0.877423 0.185257 0.183487 -0.230598
C19   C     C_R   0.208418 0.747246 0.698722 -0.300330
H7    H     H_    0.084368 0.748674 0.658311 0.198427
C20   C     C_R   0.220389 0.811804 0.762948 0.599162
C21   C     C_R   0.380065 0.813082 0.816879 -0.248191
C22   C     C_R   0.527837 0.747391 0.804522 0.045770
C23   C     C_R   0.515831 0.683761 0.738899 0.579829
C24   C     C_R   0.356261 0.683222 0.685231 -0.274658
C25   C     C_R   0.198295 0.742343 0.299801 -0.122694
H8    H     H_    0.067862 0.736612 0.336549 0.144658
C26   C     C_R   0.205309 0.807716 0.236089 0.203955
C27   C     C_R   0.374747 0.816943 0.186313 -0.091495
C28   C     C_R   0.533422 0.760499 0.204899 -0.166166
H9    H     H_    0.664532 0.765057 0.168652 0.132030
C29   C     C_R   0.524900 0.696355 0.269607 -0.137098
H10   H     H_    0.649813 0.653876 0.281490 0.126367
C30   C     C_R   0.356543 0.686009 0.317313 -0.105008
O11   O     O_R   0.229200 0.915950 0.913350 -0.506964
O12   O     O_R   0.559090 0.905000 0.086080 -0.543141
O13   O     O_R   0.729280 0.083880 0.086680 -0.506012
C31   C     C_R   0.389166 0.884061 0.116138 0.697854
O14   O     O_R   0.558920 0.904980 0.913920 -0.520725
O15   O     O_R   0.729110 0.083860 0.913300 -0.555115
C32   C     C_R   0.390251 0.882373 0.885272 0.835931
O16   O     O_R   0.229360 0.915970 0.086730 -0.557638
O17   O     O_3   0.395680 0.058580 0.000030 -0.371661
V3    V     V_3+5 0.670570 0.989070 0.999990 1.540857
O18   O     O_R   0.058820 0.094950 0.913870 -0.518551
C33   C     C_R   0.890012 0.116550 0.884793 0.753459
O19   O     O_R   0.058990 0.094970 0.086020 -0.552146
C34   C     C_R   0.889436 0.116657 0.115145 0.723957
V4    V     V_3+5 0.170560 0.010930 0.999930 1.542176
O20   O     O_3   0.895590 0.941310 0.999960 -0.374834
F1    F     F_    0.554809 0.139928 0.220371 -0.685898
F2    F     F_    0.076889 0.874638 0.770727 -0.649442
N1    N     N_3   0.688366 0.743142 0.859901 -0.613078
H11   H     H_    0.690633 0.677909 0.887132 0.238119
H12   H     H_    0.814430 0.750749 0.824983 0.294817
F3    F     F_    0.658962 0.620863 0.729445 -0.693690
N2    N     N_3   0.038931 0.864780 0.225778 -0.663600
H13   H     H_    0.975540 0.850346 0.168627 0.236033
H14   H     H_    0.080109 0.933830 0.228490 0.248171
F4    F     F_    0.242031 0.123895 0.756697 -0.648104
N3    N     N_3   0.208181 0.230331 0.622409 -0.579696
H15   H     H_    0.232028 0.277511 0.574625 0.230481
H16   H     H_    0.320357 0.182722 0.618548 0.271350
N4    N     N_3   0.193571 0.366039 0.272727 -0.658197
H17   H     H_    0.150590 0.434878 0.270360 0.222976
H18   H     H_    0.259141 0.351893 0.329494 0.250655

loop_
_geom_bond_atom_site_label_1
_geom_bond_atom_site_label_2
_ccdc_geom_bond_type
O15   V3    S    
C22   C23   A    
C4    C6    S    
C17   C18   A    
C1    O6    A    
O11   C32   A    
O14   V3    S    
C13   C18   A    
C13   H5    S    
C14   N4    S    
C5    C12   S    
C7    C8    A    
C2    C30   S    
O5    C3    A    
C18   C34   S    
O14   C32   A    
V2    O10   S    
O13   V3    S    
C5    C6    A    
C6    C7    A    
O8    V2    S    
C14   C15   A    
O16   V4    S    
O19   V4    S    
C29   C30   A    
C9    C10   A    
O1    V2    S    
O7    V1    S    
C22   N1    S    
C25   C30   A    
C28   C29   A    
C21   C32   S    
O9    C4    A    
C3    C15   S    
C26   N2    S    
C25   C26   A    
C29   H10   S    
O12   C31   A    
O15   C33   A    
O18   V4    S    
C23   F3    S    
C5    C10   A    
V4    O20   S    
C10   C11   S    
C20   C21   A    
O4    C2    A    
O12   V3    S    
C11   C12   S    
C11   F4    S    
C19   C24   A    
O2    C1    A    
N2    H13   S    
C19   H7    S    
O17   V4    S    
C27   C28   A    
C16   H6    S    
N2    H14   S    
O3    C4    A    
C9    C33   S    
N4    H17   S    
O6    V2    S    
N4    H18   S    
O9    V2    S    
N3    H15   S    
C23   C24   A    
O2    V1    S    
O13   C34   A    
C25   H8    S    
N3    H16   S    
C26   C27   A    
C21   C22   A    
O1    C2    A    
O5    V1    S    
O8    C3    A    
C1    C24   S    
C11   H3    S    
C12   H4    S    
C12   N3    S    
V3    O20   S    
C15   C16   A    
C7    H1    S    
C8    C9    A    
O7    V2    S    
N1    H11   S    
C13   C14   A    
O3    V1    S    
V1    O10   S    
C28   H9    S    
C16   C17   A    
C20   F2    S    
O17   V3    S    
O11   V4    S    
O18   C33   A    
C31   O16   A    
O4    V1    S    
C17   F1    S    
C19   C20   A    
O19   C34   A    
N1    H12   S    
C8    H2    S    
C27   C31   S    
