data_mof_unit_51621.cif
_audit_creation_date              2013-03-05T15:51:49-0500
_audit_creation_method            fapswitch 2.2
_symmetry_space_group_name_H-M    P1
_symmetry_Int_Tables_number       1
_space_group_crystal_system       triclinic
_cell_length_a                    10.909436
_cell_length_b                    11.019388
_cell_length_c                    18.746286
_cell_angle_alpha                 90.474181
_cell_angle_beta                  90.092951
_cell_angle_gamma                 60.504901
_cell_volume                      1961.44532645

loop_
_atom_site_label
_atom_site_type_symbol
_atom_site_description
_atom_site_fract_x
_atom_site_fract_y
_atom_site_fract_z
_atom_type_partial_charge
O1    O     O_R   0.507380 0.255700 0.581440 -0.508077
O2    O     O_R   0.280320 0.527350 0.578930 -0.506977
C1    C     C_R   0.234869 0.647014 0.608803 0.533604
O3    O     O_R   0.260510 0.739590 0.584590 -0.491673
O4    O     O_R   0.532300 0.695080 0.573820 -0.437068
C2    C     C_R   0.655154 0.623048 0.600319 0.541686
O5    O     O_R   0.744840 0.503500 0.576370 -0.543560
O6    O     O_R   0.699120 0.276560 0.571960 -0.503024
C3    C     C_R   0.631170 0.224062 0.601409 0.548102
O7    O     O_R   0.498940 0.256500 0.419860 -0.510197
O8    O     O_R   0.272500 0.528080 0.429150 -0.531817
C4    C     C_R   0.221051 0.648134 0.402235 0.534783
O9    O     O_R   0.252060 0.740380 0.423010 -0.510717
O10   O     O_R   0.524480 0.695810 0.424040 -0.505022
C5    C     C_R   0.641624 0.623626 0.392755 0.536119
O11   O     O_R   0.736390 0.504290 0.414790 -0.534115
O12   O     O_R   0.691300 0.277290 0.422170 -0.505345
C6    C     C_R   0.580289 0.293771 0.388076 0.562954
Cr1   Cr    Cr6+3 0.392960 0.397920 0.502240 1.023340
Cr2   Cr    Cr6+3 0.398340 0.708480 0.501250 1.077943
Cr3   Cr    Cr6+3 0.708670 0.393570 0.496460 1.007140
O13   O     O_3   0.499990 0.499990 0.499980 -0.285371
C7    C     C_3   0.650460 0.832280 0.768688 -0.212802
H1    H     H_    0.724237 0.874441 0.770013 0.092033
H2    H     H_    0.552427 0.907176 0.797037 0.182338
C8    C     C_3   0.619362 0.813364 0.689584 0.098544
H3    H     H_    0.678109 0.848949 0.654800 0.103224
H4    H     H_    0.925758 0.648564 0.773121 0.129821
H5    H     H_    0.890897 0.622683 0.657186 0.119038
C9    C     C_3   0.862303 0.596194 0.769430 -0.257190
C10   C     C_3   0.624645 0.626043 0.803713 -0.219037
C11   C     C_3   0.722019 0.690629 0.808007 0.015327
H6    H     H_    0.669804 0.527377 0.834160 0.129154
H7    H     H_    0.520595 0.698342 0.828198 0.161401
C12   C     C_3   0.677263 0.654968 0.674422 0.043450
C13   C     C_3   0.837945 0.579145 0.690833 -0.274649
C14   C     C_3   0.603805 0.598745 0.725309 -0.215559
H8    H     H_    0.489546 0.646879 0.713499 0.179738
H9    H     H_    0.645933 0.485618 0.717145 0.097273
H10   H     H_    0.920865 0.491773 0.794654 0.155325
H11   H     H_    0.890422 0.466058 0.678624 0.152348
C15   C     C_R   0.694140 0.137583 0.819342 0.006348
C16   C     C_R   0.811504 0.117421 0.779313 0.014140
C17   C     C_R   0.803954 0.125743 0.704837 0.004015
C18   C     C_R   0.580567 0.134894 0.708035 -0.176192
C19   C     C_R   0.580195 0.142610 0.781388 -0.185201
C20   C     C_3   0.891209 0.195732 0.782110 -0.277489
C21   C     C_3   0.888846 0.197398 0.701121 -0.272923
C22   C     C_R   0.680837 0.149157 0.668798 0.004354
H12   H     H_    0.489235 0.139533 0.683009 0.199348
H13   H     H_    0.490764 0.145779 0.808054 0.157107
H14   H     H_    0.998777 0.133943 0.804196 0.148207
H15   H     H_    0.829047 0.300629 0.806645 0.135167
H16   H     H_    0.830437 0.301767 0.677715 0.163672
H17   H     H_    0.994019 0.130421 0.676749 0.155289
C23   C     C_R   0.158099 0.686989 0.830195 0.007929
C24   C     C_R   0.175766 0.568769 0.794377 -0.001584
C25   C     C_R   0.184736 0.560154 0.720652 -0.008190
C26   C     C_R   0.138952 0.796345 0.715276 -0.132149
C27   C     C_R   0.134656 0.803236 0.789336 -0.135069
C28   C     C_3   0.287581 0.422299 0.803660 -0.281392
C29   C     C_3   0.298726 0.412868 0.722985 -0.249661
C30   C     C_R   0.174385 0.670515 0.680047 -0.002676
H18   H     H_    0.127270 0.885775 0.686236 0.176973
H19   H     H_    0.112736 0.900237 0.814534 0.157319
H20   H     H_    0.245762 0.357362 0.826805 0.146257
H21   H     H_    0.382408 0.414125 0.830422 0.142924
H22   H     H_    0.399089 0.402503 0.702860 0.162425
H23   H     H_    0.265002 0.341335 0.699166 0.158700
C31   C     C_R   0.675279 0.686015 0.174533 0.030027
C32   C     C_R   0.793352 0.634969 0.218973 0.003639
C33   C     C_R   0.783378 0.627583 0.291444 -0.009435
C34   C     C_R   0.530524 0.744210 0.280386 -0.155585
C35   C     C_R   0.541703 0.751744 0.206201 -0.172338
C36   C     C_3   0.929288 0.501525 0.216054 -0.239022
C37   C     C_3   0.920295 0.494735 0.296359 -0.269487
C38   C     C_R   0.653183 0.670978 0.322697 0.015187
H24   H     H_    0.426437 0.784407 0.303304 0.157106
H25   H     H_    0.447548 0.802548 0.173882 0.140231
H26   H     H_    0.016060 0.515758 0.197033 0.159383
H27   H     H_    0.920008 0.419347 0.187150 0.234366
H28   H     H_    0.911289 0.403666 0.313931 0.169904
H29   H     H_    0.001033 0.509513 0.325104 0.145523
C39   C     C_R   0.627956 0.197094 0.166477 0.004992
C40   C     C_R   0.522561 0.193566 0.206924 -0.025130
C41   C     C_R   0.510314 0.223699 0.278031 -0.014583
C42   C     C_R   0.685124 0.295295 0.269430 -0.161254
C43   C     C_R   0.702009 0.260299 0.196206 0.170135
C44   C     C_3   0.490151 0.077701 0.217876 -0.251290
C45   C     C_3   0.476220 0.112340 0.296659 -0.247546
C46   C     C_R   0.595960 0.266681 0.311804 -0.030456
H30   H     H_    0.746483 0.337097 0.293576 0.146764
H31   H     H_    0.581911 0.974265 0.205235 0.150267
H32   H     H_    0.366721 0.155716 0.316910 0.150817
H33   H     H_    0.559310 0.028196 0.329396 0.158791
C47   C     C_R   0.130157 0.688686 0.186105 0.020210
C48   C     C_R   0.066023 0.804350 0.231965 0.060665
C49   C     C_R   0.085672 0.791683 0.304347 0.024863
C50   C     C_R   0.230008 0.542783 0.286941 -0.169519
C51   C     C_R   0.217995 0.557157 0.213420 -0.186124
C52   C     C_3   0.913072 0.905233 0.239491 -0.252584
C53   C     C_3   0.933695 0.890980 0.319107 -0.288065
C54   C     C_R   0.164763 0.660331 0.332431 0.011481
H34   H     H_    0.291013 0.440566 0.308882 0.152777
H35   H     H_    0.268170 0.466301 0.178839 0.135026
H36   H     H_    0.844737 0.865018 0.218125 0.119842
H37   H     H_    0.889909 0.008074 0.220213 0.197921
H38   H     H_    0.917549 0.988253 0.345818 0.165409
H39   H     H_    0.878512 0.840488 0.344743 0.136670
O14   O     O_R   0.089400 0.825690 0.930570 -0.524551
O15   O     O_R   0.818460 0.054440 0.929850 -0.486595
C55   C     C_R   0.703527 0.098860 0.894723 0.540772
O16   O     O_R   0.606060 0.077150 0.915510 -0.539120
O17   O     O_R   0.646550 0.806680 0.917570 -0.505473
C56   C     C_R   0.752566 0.708417 0.883018 0.545040
O18   O     O_R   0.837170 0.593410 0.915250 -0.508052
O19   O     O_R   0.065200 0.635530 0.931570 -0.510293
C57   C     C_R   0.114177 0.709689 0.904469 0.534078
O20   O     O_R   0.068260 0.828890 0.091840 -0.491952
O21   O     O_R   0.798870 0.057410 0.079340 -0.446972
C58   C     C_R   0.671870 0.113054 0.101793 0.567985
O22   O     O_R   0.584930 0.080350 0.076780 -0.527228
O23   O     O_R   0.626960 0.809650 0.067060 -0.509710
C59   C     C_R   0.698312 0.692387 0.098917 0.573187
O24   O     O_R   0.816040 0.596610 0.076510 -0.476418
O25   O     O_R   0.045610 0.638500 0.081060 -0.517230
C60   C     C_R   0.091190 0.711803 0.112832 0.537211
Cr4   Cr    Cr6+3 0.937650 0.938540 0.007610 1.085208
Cr5   Cr    Cr6+3 0.625330 0.937370 0.994520 1.018530
Cr6   Cr    Cr6+3 0.937940 0.625230 0.001190 1.037931
O26   O     O_3   0.833640 0.833710 0.001100 -0.290428
N1    N     N_R   0.468354 0.898819 0.673520 0.071511
O27   O     O_R   0.372596 0.903685 0.716630 -0.397188
O28   O     O_R   0.428748 0.975526 0.616595 -0.352939
N2    N     N_R   0.808168 0.269431 0.155857 0.055324
O29   O     O_R   0.777216 0.330486 0.094133 -0.333680
O30   O     O_R   0.939662 0.194633 0.174208 -0.390402
H40   H     H_    0.389216 0.099252 0.192606 0.161746

loop_
_geom_bond_atom_site_label_1
_geom_bond_atom_site_label_2
_geom_bond_distance
_ccdc_geom_bond_type
C17   C22   1.409165 A    
C25   C29   1.481919 S    
C21   H17   1.110043 S    
C50   C54   1.409784 A    
C42   C43   1.410322 A    
C52   H37   1.096909 S    
O11   Cr3   2.078398 S    
C42   C46   1.408994 A    
C34   C35   1.402923 A    
O15   C55   1.282056 A    
C33   C37   1.493733 S    
O14   C57   1.263437 A    
C48   C49   1.370886 A    
O23   C59   1.285722 A    
O4    Cr2   1.947485 S    
C40   C41   1.361807 A    
C23   C24   1.387000 A    
C21   H16   1.098671 S    
H5    C13   1.113910 S    
O8    Cr1   1.957597 S    
C51   H35   1.083054 S    
C52   C53   1.506944 S    
O16   Cr5   2.080472 S    
C6    C46   1.451276 S    
C12   C14   1.561165 S    
C41   C46   1.388196 A    
O4    C2    1.276691 A    
O25   Cr6   1.950057 S    
C49   C54   1.377689 A    
C52   H36   1.110829 S    
C2    C12   1.478513 S    
O6    C3    1.271936 A    
C15   C19   1.408722 A    
C7    C8    1.555774 S    
C15   C55   1.468322 S    
C33   C38   1.385134 A    
O24   Cr6   2.070775 S    
C20   C21   1.518524 S    
N1    O27   1.301614 A    
O18   Cr6   2.071587 S    
C31   C35   1.398908 A    
C7    H1    1.110058 S    
C10   H6    1.110192 S    
C53   H38   1.111839 S    
C31   C32   1.400155 A    
C9    C11   1.539804 S    
C36   H26   1.093659 S    
O22   Cr5   2.081539 S    
C20   H15   1.108091 S    
O20   Cr4   2.076638 S    
C50   H34   1.072113 S    
C26   C27   1.389405 A    
Cr3   O13   1.983106 S    
O23   Cr5   1.958889 S    
C13   H11   1.107354 S    
C28   H20   1.111604 S    
C37   H29   1.109473 S    
C55   O16   1.262173 A    
C45   H32   1.111668 S    
O1    Cr1   2.079600 S    
C5    O11   1.279690 A    
C9    H10   1.113509 S    
O10   Cr2   1.955017 S    
N2    O29   1.301316 A    
Cr1   O13   1.981005 S    
C3    C22   1.464733 S    
C39   C40   1.394917 A    
C4    C54   1.423563 S    
C41   C45   1.490986 S    
C37   H28   1.108106 S    
C40   C44   1.498794 S    
C36   H27   1.098107 S    
C39   C58   1.450473 S    
C49   C53   1.494262 S    
C19   H13   1.082004 S    
O12   Cr3   1.955998 S    
C10   C14   1.536668 S    
C29   H23   1.111436 S    
C12   C13   1.557515 S    
C36   C37   1.513636 S    
C14   H8    1.110915 S    
C28   H21   1.112356 S    
C10   C11   1.544241 S    
C18   C22   1.391451 A    
O7    Cr1   2.083734 S    
C34   H24   1.083220 S    
C47   C48   1.399572 A    
O12   C6    1.300383 A    
C26   H18   1.081081 S    
C10   H7    1.113128 S    
O1    C3    1.273730 A    
C24   C28   1.479379 S    
O19   Cr6   1.951199 S    
C58   O22   1.257649 A    
C2    O5    1.271504 A    
Cr2   O13   1.999741 S    
C27   H19   1.078503 S    
C35   H25   1.083014 S    
C16   C17   1.399547 A    
C8    H3    1.114794 S    
O17   Cr5   1.961338 S    
C18   C19   1.376915 A    
C15   C16   1.404293 A    
C1    O3    1.270438 A    
Cr4   O26   1.981094 S    
C8    N1    1.472041 S    
O21   C58   1.278208 A    
C25   C30   1.396749 A    
N2    O30   1.301680 A    
O9    Cr2   2.066409 S    
O2    Cr1   1.963936 S    
C23   C57   1.452314 S    
C39   C43   1.412276 A    
C43   N2    1.429126 S    
O6    Cr3   1.959469 S    
O8    C4    1.264397 A    
O21   Cr4   1.959790 S    
O17   C56   1.298960 A    
C20   H14   1.108343 S    
C1    C30   1.454326 S    
C26   C30   1.402151 A    
C50   C51   1.387226 A    
C9    C13   1.523205 S    
C7    C11   1.551277 S    
H4    C9    1.099822 S    
Cr6   O26   1.999611 S    
C32   C33   1.369382 A    
C14   H9    1.105236 S    
C17   C21   1.485661 S    
O5    Cr3   2.075061 S    
O19   C57   1.284174 A    
C32   C36   1.488676 S    
C24   C25   1.384848 A    
C5    C38   1.445560 S    
C18   H12   1.078983 S    
O7    C6    1.294597 A    
O25   C60   1.281038 A    
C47   C51   1.387159 A    
O2    C1    1.281828 A    
C29   H22   1.109813 S    
C7    H2    1.110310 S    
C11   C56   1.478193 S    
C44   H31   1.109128 S    
C28   C29   1.516021 S    
O3    Cr2   2.076169 S    
C31   C59   1.448321 S    
C8    C12   1.559818 S    
C23   C27   1.409241 A    
C4    O9    1.277106 A    
C47   C60   1.424666 S    
N1    O28   1.301439 A    
C44   H40   1.111746 S    
O15   Cr4   1.958624 S    
C34   C38   1.419435 A    
O10   C5    1.266338 A    
C53   H39   1.112717 S    
C44   C45   1.511392 S    
C42   H30   1.079053 S    
C16   C20   1.497166 S    
C45   H33   1.112656 S    
C48   C52   1.487144 S    
C56   O18   1.296963 A    
O14   Cr4   2.079349 S    
C59   O24   1.264715 A    
Cr5   O26   1.982357 S    
O20   C60   1.253949 A    
