data_mof_unit_5036.cif
_audit_creation_date              2012-12-10T19:28:31-0500
_audit_creation_method            fapswitch 2.2
_symmetry_space_group_name_H-M    P1
_symmetry_Int_Tables_number       1
_space_group_crystal_system       triclinic
_cell_length_a                    27.521053
_cell_length_b                    10.527578
_cell_length_c                    9.819039
_cell_angle_alpha                 88.262428
_cell_angle_beta                  88.770789
_cell_angle_gamma                 89.466176
_cell_volume                      2842.80110874

loop_
_atom_site_label
_atom_site_type_symbol
_atom_type_description
_atom_site_fract_x
_atom_site_fract_y
_atom_site_fract_z
_atom_type_partial_charge
C1    C     C_R   0.499825 0.258053 0.501224 1.058586
C2    C     C_R   0.500175 0.741947 0.498776 1.058590
C3    C     C_R   0.098582 0.514277 0.563715 -0.124994
C4    C     C_R   0.901419 0.485725 0.436303 -0.124994
C5    C     C_R   0.123113 0.403030 0.607942 -0.110628
C6    C     C_R   0.876888 0.596972 0.392078 -0.110628
C7    C     C_R   0.096002 0.301571 0.667617 0.164623
C8    C     C_R   0.903999 0.698432 0.332405 0.164623
C9    C     C_R   0.124127 0.629542 0.542508 -0.184579
C10   C     C_R   0.875874 0.370460 0.457507 -0.184579
C11   C     C_R   0.351819 0.499038 0.509996 -0.337535
C12   C     C_R   0.648181 0.500960 0.490005 -0.337530
C13   C     C_R   0.975438 0.383128 0.517432 -0.088373
C14   C     C_R   0.024563 0.616874 0.482587 -0.088373
C15   C     C_R   0.976825 0.605466 0.434092 0.027003
C16   C     C_R   0.023176 0.394537 0.565928 0.027003
C17   C     C_R   0.951347 0.491490 0.462928 -0.012787
C18   C     C_R   0.048654 0.508512 0.537091 -0.012787
C19   C     C_R   0.952451 0.264735 0.509120 0.584706
C20   C     C_R   0.047550 0.735267 0.490899 0.584706
C21   C     C_R   0.902625 0.257430 0.486606 0.153644
C22   C     C_R   0.097376 0.742572 0.513412 0.153644
C23   C     C_R   0.405667 0.500332 0.501613 0.954897
C24   C     C_R   0.594333 0.499667 0.498387 0.954903
C25   C     C_R   0.045105 0.302460 0.654394 0.194607
C26   C     C_R   0.954896 0.697543 0.345628 0.194607
C27   C     C_3   0.542119 0.039216 0.549210 0.447303
C28   C     C_3   0.457881 0.960783 0.450790 0.447304
C29   C     C_3   0.537088 0.960919 0.420700 0.471817
C30   C     C_3   0.462912 0.039081 0.579299 0.471813
C31   C     C_3   0.500232 0.876411 0.498155 -0.629729
C32   C     C_3   0.499768 0.123589 0.501845 -0.629726
C33   C     C_3   0.505277 0.954221 0.627146 0.506926
C34   C     C_3   0.494723 0.045779 0.372854 0.506924
C35   C     C_3   0.541139 0.462533 0.046970 0.512275
C36   C     C_3   0.458861 0.537466 0.953030 0.512275
C37   C     C_3   0.532716 0.574095 0.947204 0.537067
C38   C     C_3   0.467284 0.425904 0.052796 0.537060
C39   C     C_3   0.508510 0.386950 0.955881 -0.067360
C40   C     C_3   0.491489 0.613050 0.044119 -0.067361
C41   C     C_R   0.173785 0.400250 0.592946 0.612465
C42   C     C_R   0.826216 0.599751 0.407074 0.612465
C43   C     C_R   0.175102 0.624910 0.551725 0.630295
C44   C     C_R   0.824899 0.375090 0.448285 0.630295
C45   C     C_R   0.270997 0.528733 0.415208 0.155491
C46   C     C_R   0.729002 0.471251 0.584796 0.155494
C47   C     C_R   0.321961 0.532317 0.397792 0.111044
C48   C     C_R   0.678038 0.467664 0.602207 0.111040
C49   C     C_R   0.329599 0.466772 0.637439 0.626907
C50   C     C_R   0.670402 0.533239 0.362568 0.626907
C51   C     C_R   0.279679 0.475455 0.656524 0.135332
C52   C     C_R   0.720323 0.524555 0.343486 0.135332
C53   C     C_R   0.250194 0.504838 0.545681 0.020717
C54   C     C_R   0.749806 0.495160 0.454328 0.020714
N1    N     N_R   0.198499 0.510217 0.565268 -0.331018
N2    N     N_R   0.801501 0.489782 0.434745 -0.331018
N3    N     N_3   0.499960 0.500030 0.863290 -0.264498
N4    N     N_3   0.500040 0.499970 0.136710 -0.264499
O1    O     O_R   0.500000 0.313960 0.616610 -0.596723
O2    O     O_R   0.500000 0.686040 0.383390 -0.596721
O3    O     O_R   0.500020 0.313950 0.383350 -0.546558
O4    O     O_R   0.499980 0.686050 0.616650 -0.546557
O5    O     O_R   0.428750 0.500030 0.616610 -0.521617
O6    O     O_R   0.571250 0.499970 0.383390 -0.521619
O7    O     O_R   0.428770 0.500020 0.383360 -0.593488
O8    O     O_R   0.571230 0.499980 0.616640 -0.593487
O9    O     O_2   0.198256 0.288771 0.599087 -0.474112
O10   O     O_2   0.801745 0.711230 0.400937 -0.474113
O11   O     O_2   0.798296 0.268452 0.458421 -0.477700
O12   O     O_2   0.201705 0.731547 0.541579 -0.477700
Zn1   Zn    Zn3+2 0.499990 0.500010 0.655740 1.159094
Zn2   Zn    Zn3+2 0.500010 0.499990 0.344260 1.159093
F1    F     F_    0.356234 0.426692 0.745678 -0.530018
F2    F     F_    0.643768 0.573331 0.254333 -0.530019
F3    F     F_    0.585178 0.083030 0.599688 -0.551133
F4    F     F_    0.414821 0.916969 0.400312 -0.551132
F5    F     F_    0.510858 0.904596 0.757932 -0.518207
F6    F     F_    0.489142 0.095404 0.242068 -0.518206
F7    F     F_    0.567614 0.652627 0.887499 -0.520937
F8    F     F_    0.432387 0.347368 0.112500 -0.520937
F9    F     F_    0.584797 0.421812 0.100552 -0.527523
F10   F     F_    0.415203 0.578190 0.899448 -0.527518
I1    I     I_    0.524224 0.195917 0.902368 0.230190
I2    I     I_    0.475774 0.804082 0.097633 0.230189
I3    I     I_    0.250326 0.446710 0.857178 -0.002537
I4    I     I_    0.749677 0.553313 0.142835 -0.002534
I5    I     I_    0.129655 0.164358 0.802879 -0.043752
I6    I     I_    0.870345 0.835647 0.197146 -0.043751
I7    I     I_    0.649082 0.400723 0.795319 0.060613
I8    I     I_    0.350915 0.599222 0.204663 0.060620
I9    I     I_    0.776252 0.445082 0.754273 -0.123315
I10   I     I_    0.223744 0.554887 0.245735 -0.123324
I11   I     I_    0.873197 0.070501 0.506610 0.046185
I12   I     I_    0.126804 0.929501 0.493415 0.046186
F11   F     F_    0.979067 0.155347 0.513969 -0.584320
F12   F     F_    0.020934 0.844655 0.486053 -0.584320
I13   I     I_    0.001384 0.199161 0.804329 -0.114691
I14   I     I_    0.998616 0.800843 0.195692 -0.114690
F13   F     F_    0.574905 0.917305 0.339211 -0.523658
F14   F     F_    0.425095 0.082694 0.660789 -0.523662

loop_
_geom_bond_atom_site_label_1
_geom_bond_atom_site_label_2
_ccdc_geom_bond_type
C27   C29   S    
C8    C26   A    
C14   C18   A    
C11   C47   A    
C12   C48   A    
N4    Zn2   S    
C51   I3    S    
C35   F9    S    
C41   O9    S    
C27   C33   S    
C37   F7    S    
C21   I11   S    
C35   N4    S    
C11   C49   A    
C35   C37   S    
C37   C40   S    
C1    O1    A    
C38   C39   S    
C2    O2    A    
C9    C22   A    
O2    Zn2   S    
C39   N3    S    
C30   F14   S    
C3    C18   A    
C45   C47   A    
C45   I10   S    
C40   I2    S    
C41   N1    A    
C42   N2    A    
C38   N4    S    
C7    I5    S    
C36   F10   S    
C49   C51   A    
C50   C52   A    
C31   C33   S    
C24   O8    A    
C23   O5    A    
C20   F12   S    
C28   C34   S    
C24   O6    A    
C42   O10   S    
C22   I12   S    
C52   I4    S    
C27   F3    S    
C52   C54   A    
C46   C48   A    
C53   N1    S    
C10   C21   A    
C54   N2    S    
C9    C43   A    
C40   N4    S    
C29   F13   S    
C10   C44   A    
C14   C20   A    
C36   C40   S    
C4    C6    A    
C36   N3    S    
C5    C7    A    
C13   C19   A    
C15   C26   A    
C6    C8    A    
C46   I9    S    
C29   C34   S    
C1    C32   S    
C2    C31   S    
C8    I6    S    
C32   C34   S    
C35   C39   S    
C3    C9    A    
C44   N2    A    
O8    Zn1   S    
C46   C54   A    
C44   O11   S    
N3    Zn1   S    
C26   I14   S    
C4    C17   A    
O3    Zn2   S    
C25   I13   S    
C20   C22   A    
C43   O12   S    
C48   I7    S    
C47   I8    S    
C49   F1    S    
C4    C10   A    
C36   C38   S    
C28   F4    S    
C19   F11   S    
C43   N1    A    
C16   C25   A    
C15   C17   A    
C5    C41   A    
C30   C33   S    
C19   C21   A    
C27   C32   S    
C28   C31   S    
O5    Zn1   S    
C3    C5    A    
C1    O3    A    
C12   C50   A    
O7    Zn2   S    
C12   C24   S    
C7    C25   A    
C13   C17   A    
C23   O7    A    
C50   F2    S    
C39   I1    S    
C28   C30   S    
C29   C31   S    
C34   F6    S    
C30   C32   S    
C33   F5    S    
C38   F8    S    
C11   C23   S    
O4    Zn1   S    
O6    Zn2   S    
C45   C53   A    
C16   C18   A    
C6    C42   A    
C13   C16   A    
C14   C15   A    
C51   C53   A    
C37   N3    S    
C2    O4    A    
O1    Zn1   S    
