data_mof_unit_13645.cif
_audit_creation_date              2012-12-11T14:44:12-0500
_audit_creation_method            fapswitch 2.2
_symmetry_space_group_name_H-M    P1
_symmetry_Int_Tables_number       1
_space_group_crystal_system       triclinic
_cell_length_a                    18.964007
_cell_length_b                    10.899718
_cell_length_c                    18.885158
_cell_angle_alpha                 89.929683
_cell_angle_beta                  90.004298
_cell_angle_gamma                 89.955348
_cell_volume                      3903.60199531

loop_
_atom_site_label
_atom_site_type_symbol
_atom_type_description
_atom_site_fract_x
_atom_site_fract_y
_atom_site_fract_z
_atom_type_partial_charge
C1    C     C_R   0.727330 0.370773 0.143259 0.546278
C2    C     C_R   0.973549 0.996244 0.041316 -0.135094
C3    C     C_R   0.993389 0.774995 0.038404 0.024601
C4    C     C_R   0.477262 0.053200 0.045811 -0.148707
C5    C     C_R   0.461415 0.054721 0.974883 -0.154014
C6    C     C_R   0.012901 0.554075 0.033185 -0.149226
C7    C     C_R   0.009871 0.556837 0.960661 -0.155688
C8    C     C_2   0.845706 0.094555 0.582039 0.223043
C9    C     C_2   0.150833 0.090355 0.419203 0.228845
C10   C     C_2   0.345689 0.594573 0.582046 0.223261
C11   C     C_2   0.650834 0.590356 0.419202 0.228775
C12   C     C_R   0.456919 0.505039 0.985006 -0.148616
C13   C     C_R   0.458334 0.497846 0.058137 -0.125798
C14   C     C_R   0.703029 0.856988 0.039316 -0.137449
C15   C     C_R   0.305381 0.871139 0.961312 -0.144638
C16   C     C_R   0.205663 0.352270 0.040098 -0.143030
C17   C     C_R   0.808593 0.383399 0.962764 -0.138395
C18   C     C_R   0.705557 0.841016 0.966321 -0.129313
C19   C     C_R   0.301393 0.861621 0.034723 -0.147128
C20   C     C_R   0.208210 0.335392 0.967168 -0.136045
C21   C     C_R   0.269754 0.376365 0.854234 0.538153
C22   C     C_R   0.802737 0.370675 0.035753 -0.149316
C23   C     C_R   0.750447 0.914863 0.925021 0.031527
C24   C     C_R   0.240096 0.899989 0.069635 0.033695
C25   C     C_R   0.249486 0.414062 0.924922 0.030459
C26   C     C_R   0.737738 0.392456 0.068270 0.033344
C27   C     C_R   0.789114 0.009097 0.956430 -0.122689
C28   C     C_R   0.182503 0.944289 0.030387 -0.128372
C29   C     C_R   0.283696 0.514139 0.955197 -0.126513
C30   C     C_R   0.677818 0.418263 0.026928 -0.127141
C31   C     C_R   0.787722 0.023153 0.028755 -0.116218
C32   C     C_R   0.228257 0.873186 0.144006 0.544087
C33   C     C_R   0.186021 0.951426 0.958043 -0.137649
C34   C     C_R   0.282381 0.529138 0.027581 -0.109707
C35   C     C_R   0.683382 0.429033 0.954585 -0.136869
C36   C     C_R   0.745996 0.945589 0.070930 0.033145
C37   C     C_R   0.248352 0.920234 0.923103 0.029199
C38   C     C_R   0.245128 0.446556 0.070701 0.037527
C39   C     C_R   0.749230 0.417240 0.922404 0.028369
C40   C     C_R   0.528656 0.056718 0.471100 -0.120074
C41   C     C_R   0.521047 0.060293 0.543368 -0.130398
C42   C     C_R   0.028700 0.556727 0.471117 -0.120205
C43   C     C_R   0.769861 0.876541 0.854219 0.547807
C44   C     C_R   0.021088 0.560302 0.543386 -0.130184
C45   C     C_R   0.497756 0.167738 0.576025 0.014797
C46   C     C_R   0.516589 0.162182 0.429987 0.022048
C47   C     C_R   0.997787 0.667743 0.576041 0.016273
C48   C     C_R   0.016625 0.662185 0.430003 0.021434
C49   C     C_R   0.528605 0.155194 0.148871 0.538760
C50   C     C_R   0.438538 0.152654 0.861506 0.559245
C51   C     C_R   0.031749 0.655136 0.146356 0.537341
C52   C     C_R   0.969034 0.656077 0.853114 0.539407
C53   C     C_R   0.488310 0.275427 0.535910 -0.117381
C54   C     C_R   0.456945 0.398478 0.944232 -0.095034
C55   C     C_R   0.498466 0.272876 0.462871 -0.120371
C56   C     C_R   0.988349 0.775434 0.535926 -0.117000
C57   C     C_R   0.998506 0.772881 0.462888 -0.120541
C58   C     C_R   0.796045 0.015557 0.470821 -0.095054
C59   C     C_R   0.201944 0.011155 0.529776 -0.091955
C60   C     C_R   0.296038 0.515572 0.470825 -0.095037
C61   C     C_R   0.701947 0.511163 0.529775 -0.091615
C62   C     C_R   0.796290 0.012000 0.543951 0.007048
C63   C     C_R   0.201648 0.009069 0.456655 0.011246
C64   C     C_R   0.296281 0.512012 0.543954 0.006700
C65   C     C_R   0.464429 0.384318 0.090830 -0.086927
C66   C     C_R   0.701649 0.509072 0.456654 0.011165
C67   C     C_R   0.750232 0.929383 0.578888 -0.013480
C68   C     C_R   0.249244 0.929649 0.421177 -0.016381
C69   C     C_R   0.250228 0.429385 0.578890 -0.014744
C70   C     C_R   0.749243 0.429645 0.421178 -0.016335
C71   C     C_R   0.697492 0.868752 0.540149 -0.145665
C72   C     C_R   0.303622 0.872336 0.459404 -0.139472
C73   C     C_R   0.197494 0.368743 0.540149 -0.146064
C74   C     C_R   0.803619 0.372326 0.459405 -0.139432
C75   C     C_R   0.694649 0.881066 0.466990 -0.150942
C76   C     C_R   0.997103 0.895873 0.930079 -0.084940
C77   C     C_R   0.306974 0.884970 0.532549 -0.138806
C78   C     C_R   0.194653 0.381056 0.466989 -0.150844
C79   C     C_R   0.806971 0.384962 0.532550 -0.138444
C80   C     C_R   0.746050 0.949577 0.431784 -0.006540
C81   C     C_R   0.253918 0.948907 0.568327 -0.010295
C82   C     C_R   0.246050 0.449578 0.431785 -0.006574
C83   C     C_R   0.753918 0.448909 0.568327 -0.009504
C84   C     C_R   0.740209 0.974360 0.145604 0.546341
C85   C     C_R   0.258382 0.968035 0.852128 0.538805
C86   C     C_R   0.240108 0.474439 0.145550 0.545444
C87   C     C_R   0.977647 0.883673 0.076086 -0.088684
C88   C     C_R   0.758561 0.467931 0.852070 0.548171
C89   C     C_R   0.730490 0.381865 0.351394 0.533207
C90   C     C_R   0.269435 0.381841 0.648630 0.530835
C91   C     C_R   0.230491 0.881867 0.351393 0.532214
C92   C     C_R   0.769436 0.881838 0.648628 0.529820
C93   C     C_R   0.535193 0.156545 0.355443 0.544942
C94   C     C_R   0.468139 0.157637 0.646647 0.556933
C95   C     C_R   0.035210 0.656544 0.355453 0.546905
C96   C     C_R   0.968149 0.657638 0.646653 0.545628
C97   C     C_R   0.740040 0.976872 0.356686 0.542687
C98   C     C_R   0.985397 0.002768 0.968821 -0.142340
C99   C     C_R   0.259966 0.976749 0.643350 0.543808
C100  C     C_R   0.240040 0.476870 0.356685 0.542445
C101  C     C_R   0.759966 0.476752 0.643348 0.542991
C102  C     C_R   0.456108 0.165185 0.937548 0.003737
C103  C     C_R   0.487360 0.162589 0.083042 -0.001097
C104  C     C_R   0.998735 0.667110 0.924694 0.000187
C105  C     C_R   0.006046 0.661849 0.073185 0.001830
C106  C     C_R   0.460578 0.279753 0.975839 0.025857
C107  C     C_R   0.470619 0.275556 0.050527 0.020283
C108  C     C_R   0.996570 0.779422 0.963398 0.032976
Cr1   Cr    Cr6+3 0.772000 0.169640 0.250110 1.018515
Cr2   Cr    Cr6+3 0.383330 0.010620 0.749160 1.018768
Cr3   Cr    Cr6+3 0.116670 0.510620 0.250840 1.021433
Cr4   Cr    Cr6+3 0.883330 0.510620 0.749160 1.021767
Cr5   Cr    Cr6+3 0.228000 0.169640 0.749890 1.012145
Cr6   Cr    Cr6+3 0.272000 0.669640 0.250110 1.015793
Cr7   Cr    Cr6+3 0.728000 0.669640 0.749890 1.025282
Cr8   Cr    Cr6+3 0.614960 0.323350 0.249260 1.021785
Cr9   Cr    Cr6+3 0.385040 0.323350 0.750740 1.013868
Cr10  Cr    Cr6+3 0.114960 0.823350 0.249260 1.024667
Cr11  Cr    Cr6+3 0.885040 0.823350 0.750740 1.023038
Cr12  Cr    Cr6+3 0.616670 0.010620 0.250840 1.021713
H1    H     H_    0.486011 0.964559 0.070330 0.138907
H2    H     H_    0.341779 0.813951 0.433234 0.156202
H3    H     H_    0.160546 0.307477 0.565874 0.152501
H4    H     H_    0.841773 0.313934 0.433237 0.156302
H5    H     H_    0.652662 0.837270 0.437880 0.162255
H6    H     H_    0.350681 0.845052 0.561144 0.177666
H7    H     H_    0.152671 0.337250 0.437877 0.162261
H8    H     H_    0.850675 0.345035 0.561145 0.177681
H9    H     H_    0.455589 0.416110 0.888586 0.170668
H10   H     H_    0.462812 0.382630 0.148027 0.134296
H11   H     H_    0.008990 0.906611 0.874498 0.132928
H12   H     H_    0.456152 0.967070 0.948558 0.132341
H13   H     H_    0.966929 0.882570 0.132295 0.133509
H14   H     H_    0.984978 0.090916 0.942350 0.102335
H15   H     H_    0.962322 0.078957 0.070932 0.107746
H16   H     H_    0.453722 0.593967 0.959549 0.099802
H17   H     H_    0.454952 0.580558 0.089639 0.110772
H18   H     H_    0.668756 0.799382 0.070962 0.123282
H19   H     H_    0.353742 0.845060 0.934907 0.113809
H20   H     H_    0.174532 0.290658 0.072502 0.118432
H21   H     H_    0.860171 0.373976 0.938726 0.131831
H22   H     H_    0.675527 0.766909 0.942923 0.137773
H23   H     H_    0.022967 0.465832 0.057673 0.142486
H24   H     H_    0.345635 0.824197 0.063920 0.110938
H25   H     H_    0.181386 0.256929 0.944585 0.135018
H26   H     H_    0.848787 0.346321 0.066689 0.115382
H27   H     H_    0.823552 0.067748 0.925553 0.130737
H28   H     H_    0.133440 0.971535 0.055156 0.151049
H29   H     H_    0.314960 0.576531 0.923386 0.122945
H30   H     H_    0.626030 0.429567 0.050272 0.152239
H31   H     H_    0.819017 0.096324 0.051418 0.137151
H32   H     H_    0.141101 0.988965 0.929986 0.132810
H33   H     H_    0.310793 0.605944 0.049801 0.136683
H34   H     H_    0.013228 0.470118 0.932828 0.135715
H35   H     H_    0.636838 0.453612 0.924398 0.134450
H36   H     H_    0.545107 0.970678 0.447743 0.155198
H37   H     H_    0.529360 0.976407 0.573115 0.147653
H38   H     H_    0.045152 0.470689 0.447758 0.155115
H39   H     H_    0.029400 0.476418 0.573135 0.147014
H40   H     H_    0.469846 0.359454 0.560256 0.177220
H41   H     H_    0.491200 0.356000 0.432219 0.161102
H42   H     H_    0.969883 0.859461 0.560272 0.177043
H43   H     H_    0.991238 0.856005 0.432236 0.161321
H44   H     H_    0.832603 0.128073 0.634519 0.120854
H45   H     H_    0.833051 0.076150 0.444582 0.178800
H46   H     H_    0.163092 0.125119 0.366746 0.119504
H47   H     H_    0.332582 0.628086 0.634527 0.120629
H48   H     H_    0.663093 0.625121 0.366746 0.119802
H49   H     H_    0.163506 0.068446 0.556401 0.180463
H50   H     H_    0.333039 0.576175 0.444586 0.178719
H51   H     H_    0.663512 0.568462 0.556399 0.180652
H52   H     H_    0.660541 0.807495 0.565876 0.152750
O1    O     O_R   0.787540 0.042690 0.170470 -0.529737
O2    O     O_R   0.454130 0.051100 0.669160 -0.513901
O3    O     O_R   0.045870 0.551100 0.330840 -0.523454
O4    O     O_R   0.954130 0.551100 0.669160 -0.518952
O5    O     O_R   0.681340 0.959300 0.325510 -0.506747
O6    O     O_R   0.318660 0.959300 0.674490 -0.502679
O7    O     O_R   0.181340 0.459300 0.325510 -0.506704
O8    O     O_R   0.818660 0.459300 0.674490 -0.503818
O9    O     O_3   0.667880 0.167870 0.250070 -0.246301
O10   O     O_3   0.332120 0.167870 0.749930 -0.258647
O11   O     O_3   0.167880 0.667870 0.250070 -0.246214
O12   O     O_R   0.212460 0.042690 0.829530 -0.527960
O13   O     O_3   0.832120 0.667870 0.749930 -0.243199
O14   O     O_R   0.765660 0.292160 0.175050 -0.507896
O15   O     O_R   0.234340 0.292160 0.824950 -0.508187
O16   O     O_R   0.265660 0.792160 0.175050 -0.509054
O17   O     O_R   0.734340 0.792160 0.824950 -0.505863
O18   O     O_R   0.670190 0.408980 0.168550 -0.529445
O19   O     O_R   0.329810 0.408980 0.831450 -0.543663
O20   O     O_R   0.170190 0.908980 0.168550 -0.530355
O21   O     O_R   0.829810 0.908980 0.831450 -0.523277
O22   O     O_R   0.556580 0.251450 0.175160 -0.513588
O23   O     O_R   0.287540 0.542690 0.170470 -0.529109
O24   O     O_R   0.443420 0.251450 0.824840 -0.522210
O25   O     O_R   0.056580 0.751450 0.175160 -0.509837
O26   O     O_R   0.943420 0.751450 0.824840 -0.509328
O27   O     O_R   0.545920 0.049510 0.170320 -0.520325
O28   O     O_R   0.454080 0.049510 0.829680 -0.516150
O29   O     O_R   0.045920 0.549510 0.170320 -0.522097
O30   O     O_R   0.954080 0.549510 0.829680 -0.524206
O31   O     O_R   0.681390 0.957840 0.176710 -0.500518
O32   O     O_R   0.318610 0.957840 0.823290 -0.520850
O33   O     O_R   0.181390 0.457840 0.176710 -0.502833
O34   O     O_R   0.712460 0.542690 0.829530 -0.522377
O35   O     O_R   0.818610 0.457840 0.823290 -0.507462
O36   O     O_R   0.787500 0.044280 0.330990 -0.523890
O37   O     O_R   0.212500 0.044280 0.669010 -0.523396
O38   O     O_R   0.287500 0.544280 0.330990 -0.524301
O39   O     O_R   0.712500 0.544280 0.669010 -0.523821
O40   O     O_R   0.765610 0.293630 0.323860 -0.501781
O41   O     O_R   0.234390 0.293630 0.676140 -0.501223
O42   O     O_R   0.265610 0.793630 0.323860 -0.502163
O43   O     O_R   0.734390 0.793630 0.676140 -0.503023
O44   O     O_R   0.670140 0.410570 0.329080 -0.518869
O45   O     O_R   0.556540 0.252920 0.323970 -0.497883
O46   O     O_R   0.329860 0.410570 0.670920 -0.521496
O47   O     O_R   0.170140 0.910570 0.329080 -0.519266
O48   O     O_R   0.829860 0.910570 0.670920 -0.523192
O49   O     O_2   0.901714 0.125126 0.555386 -0.526534
O50   O     O_2   0.094817 0.119190 0.446501 -0.523086
O51   O     O_2   0.401698 0.625152 0.555397 -0.525960
O52   O     O_2   0.594817 0.619189 0.446499 -0.523081
O53   O     O_R   0.443460 0.252920 0.676030 -0.494391
O54   O     O_R   0.056540 0.752920 0.323970 -0.496055
O55   O     O_R   0.943460 0.752920 0.676030 -0.501912
O56   O     O_R   0.545870 0.051100 0.330840 -0.524906

loop_
_geom_bond_atom_site_label_1
_geom_bond_atom_site_label_2
_ccdc_geom_bond_type
C58   C62   A    
C74   H4    S    
C79   H8    S    
C53   H40   S    
C19   H24   S    
C48   C95   S    
C80   C97   S    
Cr11  O26   S    
C14   C18   A    
Cr4   O30   S    
Cr8   O44   S    
Cr3   O29   S    
C24   C32   S    
C65   H10   S    
Cr6   O16   S    
C48   C57   A    
C13   C65   A    
Cr10  O11   S    
Cr10  O54   S    
C15   C19   A    
C46   C93   S    
Cr9   O53   S    
C62   C67   A    
C38   C86   S    
Cr3   O3    S    
C37   C85   S    
C9    H46   S    
C35   H35   S    
C91   O42   A    
C14   C36   A    
C87   H13   S    
Cr7   O13   S    
C76   H11   S    
Cr1   O1    S    
C30   H30   S    
Cr5   O12   S    
C20   C25   A    
Cr2   O6    S    
C76   C98   A    
Cr6   O11   S    
Cr5   O15   S    
C4    C103  A    
C56   H42   S    
Cr12  O27   S    
C23   C43   S    
C56   C57   A    
C32   O20   A    
C92   O43   A    
C93   O45   A    
C17   C39   A    
C92   O48   A    
C58   H45   S    
Cr6   O42   S    
C15   C37   A    
C43   O17   A    
C95   O3    A    
Cr9   O19   S    
C94   O53   A    
C63   C68   A    
C60   C82   A    
C61   C66   A    
C5    H12   S    
C52   C104  S    
C14   H18   S    
C10   H47   S    
C73   H3    S    
C57   H43   S    
C46   C55   A    
C70   C74   A    
C73   C78   A    
C69   C73   A    
C61   H51   S    
C17   C22   A    
Cr5   O41   S    
Cr1   O40   S    
C51   O25   A    
Cr12  O9    S    
Cr3   O33   S    
C52   O30   A    
C85   O32   A    
C44   C47   A    
C58   C80   A    
Cr4   O8    S    
Cr8   O22   S    
C1    O18   A    
C53   C55   A    
C45   C53   A    
C76   C108  A    
C34   C38   A    
Cr12  O56   S    
Cr3   O7    S    
C16   H20   S    
C42   C44   A    
C39   C88   S    
C71   H52   S    
C78   H7    S    
C9    O50   D    
C86   O33   A    
C21   O15   A    
C89   O40   A    
C15   H19   S    
Cr2   O2    S    
C25   C29   A    
C28   H28   S    
Cr6   O23   S    
C32   O16   A    
C27   C31   A    
C18   C23   A    
C96   O55   A    
C22   H26   S    
C18   H22   S    
C55   H41   S    
C99   O6    A    
C8    H44   S    
Cr4   O13   S    
C50   O28   A    
Cr9   O10   S    
C42   C48   A    
C81   C99   S    
C1    O14   A    
C3    C87   A    
C29   C34   A    
C101  O39   A    
C68   C72   A    
Cr11  O21   S    
C13   H17   S    
Cr1   O36   S    
C35   C39   A    
Cr12  O5    S    
Cr11  O13   S    
C49   C103  S    
C72   C77   A    
C86   O23   A    
C31   H31   S    
C78   C82   A    
C97   O5    A    
Cr5   O10   S    
C3    C105  A    
C77   C81   A    
C68   C91   S    
C47   C96   S    
Cr8   O9    S    
Cr3   O11   S    
Cr7   O43   S    
Cr9   O46   S    
C20   H25   S    
C16   C20   A    
C64   C69   A    
C54   C106  A    
Cr2   O10   S    
C6    C7    A    
C22   C26   A    
C10   O51   D    
C94   O2    A    
C89   O44   A    
C41   H37   S    
C30   C35   A    
C84   O31   A    
C40   C41   A    
Cr4   O4    S    
C8    C62   S    
C28   C33   A    
C50   C102  S    
C85   O12   A    
C23   C27   A    
C74   C79   A    
C12   H16   S    
C1    C26   S    
Cr1   O14   S    
C70   C89   S    
C52   O26   A    
C40   C46   A    
C88   O35   A    
C69   C90   S    
C104  C108  A    
C24   C28   A    
C33   C37   A    
C11   H48   S    
C49   O27   A    
C34   H33   S    
Cr1   O9    S    
Cr12  O31   S    
C54   H9    S    
C21   C25   S    
C5    C102  A    
C42   H38   S    
Cr2   O32   S    
C83   C101  S    
C72   H2    S    
C9    C63   S    
C82   C100  S    
C10   C64   S    
C59   C81   A    
Cr4   O35   S    
C88   O34   A    
C4    C5    A    
C33   H32   S    
C11   O52   D    
C96   O4    A    
C11   C66   S    
C26   C30   A    
C49   O22   A    
Cr7   O17   S    
C61   C83   A    
C3    C108  A    
C43   O21   A    
C98   H14   S    
C59   C63   A    
C2    H15   S    
Cr2   O28   S    
Cr7   O39   S    
C60   C64   A    
C60   H50   S    
Cr6   O38   S    
C36   C84   S    
C19   C24   A    
Cr8   O45   S    
C95   O54   A    
Cr5   O37   S    
C101  O8    A    
C84   O1    A    
C71   C75   A    
C100  O7    A    
C93   O56   A    
C66   C70   A    
C7    H34   S    
Cr8   O18   S    
C7    C104  A    
Cr10  O20   S    
C100  O38   A    
C67   C92   S    
C6    C105  A    
C4    H1    S    
C102  C106  A    
C67   C71   A    
C90   O41   A    
C97   O36   A    
C91   O47   A    
C17   H21   S    
C45   C94   S    
C51   C105  S    
C90   O46   A    
C21   O19   A    
C8    O49   D    
C29   H29   S    
C79   C83   A    
C2    C87   A    
C75   C80   A    
C12   C13   A    
C2    C98   A    
C27   H27   S    
C106  C107  A    
Cr7   O34   S    
C50   O24   A    
Cr10  O47   S    
Cr9   O24   S    
C44   H39   S    
C41   C45   A    
C31   C36   A    
C40   H36   S    
C103  C107  A    
C75   H5    S    
C6    H23   S    
C59   H49   S    
Cr10  O25   S    
C65   C107  A    
Cr11  O48   S    
C12   C54   A    
C77   H6    S    
C51   O29   A    
Cr11  O55   S    
C16   C38   A    
C47   C56   A    
C99   O37   A    
