data_mof_unit_23661.cif
_audit_creation_date              2013-03-05T15:44:01-0500
_audit_creation_method            fapswitch 2.2
_symmetry_space_group_name_H-M    P1
_symmetry_Int_Tables_number       1
_space_group_crystal_system       triclinic
_cell_length_a                    31.209919
_cell_length_b                    22.484029
_cell_length_c                    18.069573
_cell_angle_alpha                 90.005091
_cell_angle_beta                  124.377731
_cell_angle_gamma                 89.997657
_cell_volume                      10465.1121619

loop_
_atom_site_label
_atom_site_type_symbol
_atom_site_description
_atom_site_fract_x
_atom_site_fract_y
_atom_site_fract_z
_atom_type_partial_charge
C1    C     C_R   0.546082 0.580909 0.745204 -0.107949
C2    C     C_R   0.453922 0.419095 0.254802 -0.107936
C3    C     C_R   0.453925 0.580903 0.254809 -0.107720
C4    C     C_R   0.546076 0.419098 0.745193 -0.107908
C5    C     C_R   0.033931 0.108707 0.709037 -0.077082
C6    C     C_R   0.966068 0.891314 0.290930 -0.076914
C7    C     C_R   0.966063 0.108706 0.290963 -0.077020
C8    C     C_R   0.033952 0.891307 0.709074 -0.076526
H1    H     H_    0.521188 0.577776 0.768874 0.107932
H2    H     H_    0.478819 0.422235 0.231141 0.107905
H3    H     H_    0.478826 0.577762 0.231154 0.107869
H4    H     H_    0.521176 0.422240 0.768850 0.107884
H5    H     H_    0.004277 0.120693 0.719392 0.114356
H6    H     H_    0.995721 0.879338 0.280569 0.114302
H7    H     H_    0.995710 0.120692 0.280594 0.114323
H8    H     H_    0.004321 0.879331 0.719486 0.114233
N1    N     N_R   0.532970 0.559900 0.665210 -0.046448
N2    N     N_R   0.467030 0.440100 0.334790 -0.046449
N3    N     N_R   0.467030 0.559900 0.334790 -0.046470
N4    N     N_R   0.532970 0.440100 0.665210 -0.046434
N5    N     N_R   0.032970 0.059900 0.665210 -0.055230
N6    N     N_R   0.967030 0.940100 0.334790 -0.055192
N7    N     N_R   0.967030 0.059900 0.334790 -0.055224
N8    N     N_R   0.032970 0.940100 0.665210 -0.055271
C9    C     C_R   0.625420 0.610483 0.572156 0.335206
C10   C     C_R   0.374533 0.389545 0.427858 0.335895
C11   C     C_R   0.374526 0.610449 0.427870 0.336012
C12   C     C_R   0.625464 0.389544 0.572130 0.335877
C13   C     C_R   0.143096 0.084983 0.570915 0.339027
C14   C     C_R   0.856966 0.914825 0.429047 0.337173
C15   C     C_R   0.856877 0.084904 0.429084 0.339660
C16   C     C_R   0.143114 0.915073 0.570907 0.339592
N9    N     N_R   0.597900 0.559930 0.545530 -0.081338
N10   N     N_R   0.402100 0.440070 0.454470 -0.081375
N11   N     N_R   0.402100 0.559930 0.454470 -0.081379
N12   N     N_R   0.597900 0.440070 0.545530 -0.081363
N13   N     N_R   0.097900 0.059930 0.545530 -0.082255
N14   N     N_R   0.902100 0.940070 0.454470 -0.082078
N15   N     N_R   0.902100 0.059930 0.454470 -0.082213
N16   N     N_R   0.097900 0.940070 0.545530 -0.082259
C17   C     C_R   0.571625 0.611023 0.422998 -0.151047
C18   C     C_R   0.428343 0.389006 0.577019 -0.151717
C19   C     C_R   0.428335 0.610989 0.577033 -0.151852
C20   C     C_R   0.571657 0.389006 0.422969 -0.151672
C21   C     C_R   0.091539 0.085430 0.421946 -0.135188
C22   C     C_R   0.908519 0.914402 0.578037 -0.133828
C23   C     C_R   0.908433 0.085374 0.578047 -0.135370
C24   C     C_R   0.091557 0.914616 0.421943 -0.135385
H9    H     H_    0.553872 0.621523 0.353139 0.150366
H10   H     H_    0.446115 0.378504 0.646883 0.150299
H11   H     H_    0.446111 0.621489 0.646900 0.150292
H12   H     H_    0.553881 0.378502 0.353102 0.150304
H13   H     H_    0.078329 0.086633 0.352302 0.122944
H14   H     H_    0.921701 0.913184 0.647667 0.122590
H15   H     H_    0.921647 0.086583 0.647694 0.123036
H16   H     H_    0.078344 0.913414 0.352297 0.122998
N17   N     N_R   0.567170 0.559950 0.454460 -0.071652
N18   N     N_R   0.432830 0.440050 0.545540 -0.071516
N19   N     N_R   0.432830 0.559950 0.545540 -0.071498
N20   N     N_R   0.567170 0.440050 0.454460 -0.071521
N21   N     N_R   0.067170 0.059950 0.454460 -0.066272
N22   N     N_R   0.932830 0.940050 0.545540 -0.066309
N23   N     N_R   0.932830 0.059950 0.545540 -0.066283
N24   N     N_R   0.067170 0.940050 0.454460 -0.066256
C25   C     C_R   0.382425 0.578174 0.253699 -0.062720
C26   C     C_R   0.617576 0.421829 0.746302 -0.062724
C27   C     C_R   0.617577 0.578168 0.746304 -0.063111
C28   C     C_R   0.382424 0.421827 0.253698 -0.062798
C29   C     C_R   0.894187 0.108654 0.291044 -0.067010
C30   C     C_R   0.105820 0.891356 0.708976 -0.067066
C31   C     C_R   0.105813 0.108651 0.708977 -0.067175
C32   C     C_R   0.894177 0.891363 0.290958 -0.067762
H17   H     H_    0.342598 0.567837 0.227197 0.137559
H18   H     H_    0.657403 0.432169 0.772806 0.137587
H19   H     H_    0.657402 0.567803 0.772816 0.137685
H20   H     H_    0.342598 0.432171 0.227200 0.137579
H21   H     H_    0.857803 0.120270 0.279887 0.153838
H22   H     H_    0.142204 0.879744 0.720138 0.153884
H23   H     H_    0.142203 0.120263 0.720164 0.153797
H24   H     H_    0.857761 0.879756 0.279674 0.153477
N25   N     N_R   0.421470 0.559970 0.334770 -0.050226
N26   N     N_R   0.578530 0.440030 0.665230 -0.050205
N27   N     N_R   0.578530 0.559970 0.665230 -0.050199
N28   N     N_R   0.421470 0.440030 0.334770 -0.050228
N29   N     N_R   0.921470 0.059970 0.334770 -0.046407
N30   N     N_R   0.078530 0.940030 0.665230 -0.046441
N31   N     N_R   0.078530 0.059970 0.665230 -0.046401
N32   N     N_R   0.921470 0.940030 0.334770 -0.046238
C33   C     C_R   0.598914 0.593200 0.797651 0.080599
C34   C     C_R   0.401091 0.406808 0.202353 0.080724
C35   C     C_R   0.401095 0.593190 0.202359 0.080782
C36   C     C_R   0.598907 0.406812 0.797644 0.080700
C37   C     C_R   0.078713 0.141006 0.735993 0.069134
C38   C     C_R   0.921280 0.859024 0.263943 0.069104
C39   C     C_R   0.921282 0.141006 0.264022 0.069109
C40   C     C_R   0.078732 0.859008 0.736016 0.069131
C41   C     C_R   0.607732 0.643913 0.495651 0.079702
C42   C     C_R   0.392210 0.356132 0.504372 0.079443
C43   C     C_R   0.392201 0.643858 0.504394 0.079389
C44   C     C_R   0.607786 0.356131 0.495607 0.079409
C45   C     C_R   0.138709 0.101873 0.494139 0.020700
C46   C     C_R   0.861423 0.897771 0.505815 0.022059
C47   C     C_R   0.861236 0.101745 0.505854 0.020195
C48   C     C_R   0.138746 0.898228 0.494130 0.020316
Ni1   Ni    Ni4+2 0.483030 0.500000 0.604430 0.230140
Ni2   Ni    Ni4+2 0.516970 0.500000 0.395570 0.230165
Ni3   Ni    Ni4+2 0.983030 1.000000 0.604430 0.223636
Ni4   Ni    Ni4+2 0.016970 1.000000 0.395570 0.223618
Ni5   Ni    Ni4+2 0.587400 0.500000 0.604430 0.273924
Ni6   Ni    Ni4+2 0.412600 0.500000 0.395570 0.273967
Ni7   Ni    Ni4+2 0.087400 1.000000 0.604430 0.299392
Ni8   Ni    Ni4+2 0.912600 1.000000 0.395570 0.299480
C49   C     C_R   0.640259 0.254227 0.509695 0.319742
C50   C     C_R   0.359686 0.745750 0.490195 0.319720
C51   C     C_R   0.359692 0.254247 0.490238 0.319770
C52   C     C_R   0.640032 0.745803 0.508867 0.319545
C53   C     C_R   0.174706 0.801161 0.507804 0.327766
C54   C     C_R   0.825293 0.198819 0.492235 0.327765
C55   C     C_R   0.825664 0.800614 0.492739 0.326526
C56   C     C_R   0.174657 0.198948 0.507754 0.327560
C57   C     C_R   0.638915 0.314194 0.487844 -0.042173
C58   C     C_R   0.361074 0.685798 0.512156 -0.042166
C59   C     C_R   0.361065 0.314215 0.512126 -0.042214
C60   C     C_R   0.638960 0.685694 0.487903 -0.042501
C61   C     C_R   0.174192 0.861765 0.490516 -0.028322
C62   C     C_R   0.825779 0.138205 0.509450 -0.028361
C63   C     C_R   0.825986 0.861309 0.509437 -0.029160
C64   C     C_R   0.174155 0.138331 0.490525 -0.028431
C65   C     C_R   0.671561 0.338047 0.466274 -0.210064
C66   C     C_R   0.328467 0.661958 0.533820 -0.210106
C67   C     C_R   0.328428 0.338093 0.533700 -0.210034
C68   C     C_R   0.671935 0.661582 0.467251 -0.209339
C69   C     C_R   0.209446 0.888162 0.477077 -0.221851
C70   C     C_R   0.790489 0.111800 0.522793 -0.221797
C71   C     C_R   0.790495 0.887838 0.522168 -0.221366
C72   C     C_R   0.209427 0.111911 0.477142 -0.221797
C73   C     C_R   0.708676 0.303109 0.470357 0.144364
C74   C     C_R   0.291345 0.696892 0.529725 0.144343
C75   C     C_R   0.291296 0.303180 0.529599 0.144406
C76   C     C_R   0.709099 0.696431 0.471363 0.144780
C77   C     C_R   0.247527 0.853530 0.482137 0.144495
C78   C     C_R   0.752407 0.146435 0.517728 0.144467
C79   C     C_R   0.752367 0.853281 0.517035 0.144609
C80   C     C_R   0.247513 0.146526 0.482196 0.144521
C81   C     C_R   0.711500 0.242468 0.492281 0.050160
C82   C     C_R   0.288478 0.757517 0.507694 0.050150
C83   C     C_R   0.288450 0.242537 0.507658 0.050145
C84   C     C_R   0.711661 0.757214 0.492392 0.050206
C85   C     C_R   0.250060 0.792452 0.502298 0.047455
C86   C     C_R   0.749913 0.207527 0.497666 0.047458
C87   C     C_R   0.750101 0.792079 0.497740 0.047381
C88   C     C_R   0.250027 0.207619 0.502279 0.047438
C89   C     C_R   0.676494 0.217187 0.510085 -0.051963
C90   C     C_R   0.323447 0.782787 0.489794 -0.051943
C91   C     C_R   0.323442 0.217231 0.489838 -0.051936
C92   C     C_R   0.676349 0.782724 0.509313 -0.051988
C93   C     C_R   0.213719 0.766090 0.515910 -0.047989
C94   C     C_R   0.786287 0.233896 0.484140 -0.048001
C95   C     C_R   0.786715 0.765536 0.484934 -0.047524
C96   C     C_R   0.213664 0.234012 0.515821 -0.047875
C97   C     C_R   0.743939 0.328777 0.455649 -0.106935
C98   C     C_R   0.256115 0.671232 0.544521 -0.106890
C99   C     C_R   0.256037 0.328878 0.544290 -0.107041
C100  C     C_R   0.744669 0.670542 0.457600 -0.107950
C101  C     C_R   0.283330 0.879100 0.468448 -0.166460
C102  C     C_R   0.716567 0.120857 0.531319 -0.166478
C103  C     C_R   0.716268 0.879053 0.529826 -0.166169
C104  C     C_R   0.283333 0.120925 0.468572 -0.166429
C105  C     C_R   0.321075 0.843975 0.472128 -0.077214
C106  C     C_R   0.678825 0.155985 0.527644 -0.077185
C107  C     C_R   0.678457 0.844027 0.526074 -0.077340
C108  C     C_R   0.321085 0.156031 0.472244 -0.077242
C109  C     C_R   0.783095 0.294567 0.463797 -0.063007
C110  C     C_R   0.216950 0.705433 0.536354 -0.063078
C111  C     C_R   0.216865 0.294695 0.536131 -0.062931
C112  C     C_R   0.783832 0.704691 0.465674 -0.062408
H25   H     H_    0.669704 0.385134 0.451055 0.156443
H26   H     H_    0.330354 0.614881 0.549117 0.156455
H27   H     H_    0.330304 0.385182 0.548934 0.156447
H28   H     H_    0.670264 0.614394 0.452703 0.156398
H29   H     H_    0.207497 0.935588 0.464199 0.141978
H30   H     H_    0.792413 0.064367 0.535605 0.141987
H31   H     H_    0.792272 0.935334 0.534483 0.142203
H32   H     H_    0.207488 0.064477 0.464314 0.141998
H33   H     H_    0.741794 0.375588 0.439462 0.151396
H34   H     H_    0.258293 0.624432 0.560789 0.151420
H35   H     H_    0.258191 0.375694 0.560467 0.151396
H36   H     H_    0.742765 0.623604 0.442225 0.151118
H37   H     H_    0.281893 0.926184 0.454284 0.134534
H38   H     H_    0.717974 0.073763 0.545403 0.134547
H39   H     H_    0.717509 0.926231 0.543314 0.134522
H40   H     H_    0.281907 0.073830 0.454465 0.134521
H41   H     H_    0.348323 0.865167 0.461574 0.183396
H42   H     H_    0.651548 0.134786 0.538117 0.183406
H43   H     H_    0.650961 0.865378 0.535874 0.183438
H44   H     H_    0.348346 0.134816 0.461744 0.183377
H45   H     H_    0.810534 0.315986 0.453888 0.184155
H46   H     H_    0.189537 0.684020 0.546332 0.184152
H47   H     H_    0.189424 0.316150 0.545998 0.184361
H48   H     H_    0.811541 0.683041 0.456671 0.185093
C113  C     C_R   0.368343 0.608441 0.105552 0.064152
C114  C     C_R   0.631662 0.391563 0.894454 0.064161
C115  C     C_R   0.631694 0.608444 0.894469 0.064170
C116  C     C_R   0.368330 0.391563 0.105539 0.064160
C117  C     C_R   0.905243 0.199172 0.216808 0.072538
C118  C     C_R   0.094772 0.800841 0.783226 0.072626
C119  C     C_R   0.094747 0.199175 0.783207 0.072489
C120  C     C_R   0.905244 0.800883 0.216662 0.072606
C121  C     C_R   0.358126 0.633363 0.965017 0.385484
C122  C     C_R   0.641888 0.366663 0.035004 0.385486
C123  C     C_R   0.642030 0.633163 0.035172 0.385417
C124  C     C_R   0.358087 0.366677 0.964966 0.385477
C125  C     C_R   0.911173 0.273847 0.125394 0.361777
C126  C     C_R   0.088812 0.726128 0.874562 0.361713
C127  C     C_R   0.088810 0.273863 0.874612 0.361796
C128  C     C_R   0.911068 0.726372 0.124930 0.361932
C129  C     C_R   0.388922 0.613463 0.054220 -0.253839
C130  C     C_R   0.611089 0.386555 0.945796 -0.253858
C131  C     C_R   0.611182 0.613337 0.945921 -0.253785
C132  C     C_R   0.388895 0.386562 0.054182 -0.253890
C133  C     C_R   0.929836 0.222570 0.178406 -0.225573
C134  C     C_R   0.070159 0.777418 0.821577 -0.225582
C135  C     C_R   0.070150 0.222580 0.821599 -0.225523
C136  C     C_R   0.929749 0.777614 0.178027 -0.225747
C137  C     C_R   0.315378 0.618835 0.064195 -0.196114
C138  C     C_R   0.684624 0.381159 0.935802 -0.196124
C139  C     C_R   0.684634 0.618935 0.935721 -0.196299
C140  C     C_R   0.315369 0.381159 0.064200 -0.196159
C141  C     C_R   0.863005 0.229748 0.205866 -0.140337
C142  C     C_R   0.137020 0.770278 0.794189 -0.140279
C143  C     C_R   0.136985 0.229749 0.794152 -0.140305
C144  C     C_R   0.863091 0.770210 0.205891 -0.140486
C145  C     C_R   0.283469 0.638627 0.975359 0.052876
C146  C     C_R   0.716538 0.361377 0.024644 0.052904
C147  C     C_R   0.716599 0.638620 0.024609 0.052927
C148  C     C_R   0.283447 0.361384 0.975354 0.052872
C149  C     C_R   0.842611 0.281315 0.152857 0.056608
C150  C     C_R   0.157402 0.718696 0.847164 0.056616
C151  C     C_R   0.157377 0.281321 0.847160 0.056693
C152  C     C_R   0.842661 0.718701 0.152741 0.056993
C153  C     C_R   0.306140 0.652118 0.927818 -0.124569
C154  C     C_R   0.693873 0.347905 0.072202 -0.124572
C155  C     C_R   0.694008 0.651947 0.072332 -0.125091
C156  C     C_R   0.306103 0.347917 0.927778 -0.124630
C157  C     C_R   0.867189 0.304181 0.111847 -0.148553
C158  C     C_R   0.132810 0.695809 0.888138 -0.148580
C159  C     C_R   0.132800 0.304191 0.888174 -0.148625
C160  C     C_R   0.867155 0.695958 0.111510 -0.148682
C161  C     C_R   0.230629 0.651838 0.937915 0.053332
C162  C     C_R   0.769378 0.348164 0.062084 0.053335
C163  C     C_R   0.769418 0.651863 0.061959 0.053211
C164  C     C_R   0.230610 0.348172 0.937926 0.053296
C165  C     C_R   0.795561 0.307472 0.133324 0.053834
C166  C     C_R   0.204452 0.692544 0.866696 0.053845
C167  C     C_R   0.204423 0.307478 0.866684 0.053777
C168  C     C_R   0.795645 0.692483 0.133295 0.053430
C169  C     C_R   0.796694 0.375064 0.030293 -0.257563
C170  C     C_R   0.203306 0.624925 0.969687 -0.257588
C171  C     C_R   0.203300 0.375071 0.969737 -0.257572
C172  C     C_R   0.796670 0.625059 0.029974 -0.257543
C173  C     C_R   0.227619 0.707546 0.820934 -0.238087
C174  C     C_R   0.772402 0.292490 0.179105 -0.238075
C175  C     C_R   0.772567 0.707333 0.179256 -0.236842
C176  C     C_R   0.227576 0.292492 0.820889 -0.237864
C177  C     C_R   0.846000 0.355864 0.057999 0.387724
C178  C     C_R   0.153998 0.644121 0.941977 0.387718
C179  C     C_R   0.153996 0.355871 0.942040 0.387754
C180  C     C_R   0.845944 0.644314 0.057563 0.387813
C181  C     C_R   0.276861 0.686951 0.848861 0.364566
C182  C     C_R   0.723160 0.313088 0.151177 0.364594
C183  C     C_R   0.723364 0.686645 0.151442 0.364977
C184  C     C_R   0.276811 0.313099 0.848798 0.364615
H49   H     H_    0.700412 0.383090 0.896074 0.152668
H50   H     H_    0.299586 0.616890 0.103914 0.152661
H51   H     H_    0.299588 0.383083 0.103939 0.152687
H52   H     H_    0.700363 0.617135 0.895892 0.152800
H53   H     H_    0.155662 0.789281 0.765022 0.145132
H54   H     H_    0.844380 0.210763 0.235076 0.145138
H55   H     H_    0.844574 0.789084 0.235370 0.144219
H56   H     H_    0.155610 0.210758 0.764944 0.144964
H57   H     H_    0.571123 0.398603 0.917342 0.170259
H58   H     H_    0.428889 0.601422 0.082679 0.170272
H59   H     H_    0.428860 0.398611 0.082631 0.170273
H60   H     H_    0.571231 0.601244 0.917519 0.170215
H61   H     H_    0.038117 0.800968 0.815603 0.159342
H62   H     H_    0.961863 0.199003 0.184353 0.159381
H63   H     H_    0.961704 0.801258 0.183851 0.159298
H64   H     H_    0.038118 0.199019 0.815641 0.159389
H65   H     H_    0.780686 0.413251 0.986203 0.169866
H66   H     H_    0.219312 0.586734 0.013767 0.169853
H67   H     H_    0.219314 0.413255 0.013839 0.169865
H68   H     H_    0.780642 0.586911 0.985798 0.169942
H69   H     H_    0.208061 0.735074 0.762024 0.209198
H70   H     H_    0.791967 0.264975 0.238030 0.209147
H71   H     H_    0.792177 0.734793 0.238252 0.208885
H72   H     H_    0.208011 0.264968 0.761969 0.209176
N33   N     N_R   0.379344 0.629851 0.912530 0.259724
O1    O     O_R   0.426938 0.646623 0.946775 -0.310600
O2    O     O_R   0.355559 0.598223 0.839434 -0.338215
N34   N     N_R   0.620674 0.370187 0.087495 0.259728
O3    O     O_R   0.573084 0.353402 0.053264 -0.310534
O4    O     O_R   0.644453 0.401838 0.160567 -0.337947
N35   N     N_R   0.620861 0.629552 0.087725 0.259665
O5    O     O_R   0.573315 0.646442 0.053656 -0.310647
O6    O     O_R   0.644591 0.597698 0.160592 -0.337499
N36   N     N_R   0.379288 0.370215 0.912456 0.259717
O7    O     O_R   0.426878 0.353446 0.946665 -0.310541
O8    O     O_R   0.355495 0.401866 0.839391 -0.338178
N37   N     N_R   0.933215 0.288681 0.076569 0.260867
O9    O     O_R   0.983193 0.295590 0.119398 -0.292632
O10   O     O_R   0.905842 0.280478 0.990204 -0.304467
N38   N     N_R   0.066732 0.711254 0.923311 0.260879
O11   O     O_R   0.016755 0.704290 0.880406 -0.292755
O12   O     O_R   0.094054 0.719481 0.009669 -0.304391
N39   N     N_R   0.066753 0.288714 0.923407 0.260865
O13   O     O_R   0.016777 0.295668 0.880541 -0.292561
O14   O     O_R   0.094096 0.280477 0.009760 -0.304486
N40   N     N_R   0.933018 0.711657 0.075919 0.260842
O15   O     O_R   0.982988 0.704762 0.118576 -0.292526
O16   O     O_R   0.905549 0.719965 0.989570 -0.304869
Br1   Br    Br    0.691660 0.621650 0.683005 -0.497693
Br2   Br    Br    0.308303 0.378384 0.317001 -0.496886
Br3   Br    Br    0.308297 0.621605 0.317013 -0.496802
Br4   Br    Br    0.691691 0.378375 0.682987 -0.496926
Br5   Br    Br    0.207937 0.078087 0.685436 -0.456931
Br6   Br    Br    0.792080 0.921763 0.314601 -0.457754
Br7   Br    Br    0.792058 0.077941 0.314544 -0.456775
Br8   Br    Br    0.207942 0.921981 0.685447 -0.456746
N41   N     N_R   0.606528 0.232401 0.534092 0.237570
O17   O     O_R   0.557028 0.243818 0.483653 -0.328291
O18   O     O_R   0.626048 0.207508 0.611875 -0.343077
N42   N     N_R   0.393377 0.767558 0.465699 0.237605
O19   O     O_R   0.442885 0.756181 0.516114 -0.328329
O20   O     O_R   0.373814 0.792390 0.387866 -0.342946
N43   N     N_R   0.393407 0.232399 0.465812 0.237565
O21   O     O_R   0.442914 0.243767 0.516263 -0.328257
O22   O     O_R   0.373865 0.207533 0.387999 -0.343095
N44   N     N_R   0.605935 0.767906 0.532308 0.237640
O23   O     O_R   0.556475 0.756334 0.481467 -0.328323
O24   O     O_R   0.625074 0.793261 0.609678 -0.343102
N45   N     N_R   0.135520 0.776040 0.516849 0.230361
O25   O     O_R   0.087072 0.776732 0.449271 -0.372176
O26   O     O_R   0.147502 0.758081 0.594740 -0.418161
N46   N     N_R   0.864495 0.223943 0.483229 0.230366
O27   O     O_R   0.912933 0.223245 0.550838 -0.372273
O28   O     O_R   0.852531 0.241930 0.405366 -0.418157
N47   N     N_R   0.864908 0.775442 0.483831 0.230669
O29   O     O_R   0.913530 0.777718 0.550545 -0.373172
O30   O     O_R   0.852642 0.755466 0.406649 -0.416808
N48   N     N_R   0.135457 0.224087 0.516761 0.230410
O31   O     O_R   0.086980 0.223137 0.449313 -0.372360
O32   O     O_R   0.147485 0.242428 0.594531 -0.417993
Br9   Br    Br    0.881775 0.406368 0.023518 -0.287926
Br10  Br    Br    0.118230 0.593611 0.976464 -0.287807
Br11  Br    Br    0.118242 0.406365 0.976580 -0.287713
Br12  Br    Br    0.881642 0.593945 0.022774 -0.287617
Br13  Br    Br    0.303677 0.720136 0.784417 -0.408214
Br14  Br    Br    0.696358 0.279938 0.215663 -0.408264
Br15  Br    Br    0.696749 0.719449 0.216422 -0.407548
Br16  Br    Br    0.303600 0.279958 0.784279 -0.408139

loop_
_geom_bond_atom_site_label_1
_geom_bond_atom_site_label_2
_geom_bond_distance
_ccdc_geom_bond_type
C127  C159  1.424791 A    
N33   O2    1.301514 A    
C84   C87   1.390072 A    
C18   N18   1.323041 A    
C115  C139  1.396549 A    
N35   O6    1.301524 A    
C76   C100  1.394566 A    
C130  H57   1.081337 S    
C55   N47   1.438359 S    
C11   C43   1.385272 A    
C22   N22   1.325252 A    
C19   C43   1.367217 A    
C41   C60   1.416377 S    
C45   C64   1.407742 S    
C14   N14   1.336657 A    
C2    C34   1.388706 A    
C47   C62   1.407793 S    
C125  N37   1.431182 S    
C126  C134  1.398616 A    
C166  C173  1.412652 A    
C6    C38   1.396090 A    
C28   C34   1.387288 A    
C16   C48   1.368596 A    
C3    N3    1.345936 A    
C140  C148  1.400463 A    
C121  N33   1.433002 S    
C4    H4    1.080171 S    
C83   C91   1.420247 A    
C98   C110  1.379656 A    
C148  C164  1.416163 A    
C5    H5    1.076892 S    
N41   O17   1.301218 A    
C32   C38   1.395985 A    
C162  C165  1.405030 A    
C7    H7    1.076885 S    
C8    H8    1.076842 S    
C146  C162  1.416184 A    
C17   H9    1.079992 S    
C34   C116  1.484327 S    
C101  C105  1.388267 A    
C51   C59   1.398935 A    
C169  C177  1.391038 A    
C122  C154  1.424944 A    
C107  H43   1.081579 S    
N43   O22   1.301149 A    
C103  C107  1.388193 A    
C124  C132  1.404523 A    
C11   N11   1.339688 A    
C53   C93   1.387177 A    
C113  C137  1.396612 A    
C128  C136  1.398582 A    
C163  C172  1.405592 A    
C26   N26   1.335143 A    
N35   O5    1.301350 A    
C82   C90   1.420311 A    
C14   C46   1.368520 A    
N36   O7    1.301359 A    
C149  C157  1.429642 A    
C16   Br8   1.916347 S    
N8    Ni3   1.875193 S    
C124  N36   1.432998 S    
C147  C155  1.420220 A    
C120  C144  1.398290 A    
C150  C166  1.428754 A    
C151  C167  1.428750 A    
C108  H44   1.081515 S    
C181  Br13  1.927171 S    
C66   C74   1.366659 A    
C179  Br11  1.926129 S    
N34   O3    1.301365 A    
C149  C165  1.428770 A    
C25   C35   1.387324 A    
C177  Br9   1.926172 S    
C156  C184  1.418389 A    
C157  C177  1.417002 A    
C100  H36   1.084327 S    
C56   N48   1.437886 S    
C31   C37   1.396078 A    
N20   Ni2   1.876494 S    
C51   N43   1.437941 S    
C128  C160  1.424621 A    
C103  H39   1.084167 S    
C104  H40   1.084138 S    
C121  C129  1.404505 A    
C18   C42   1.367251 A    
C126  N38   1.431170 S    
C163  C168  1.404987 A    
C14   Br6   1.916397 S    
N48   O31   1.300963 A    
C50   N42   1.437949 S    
C52   C92   1.401307 A    
C3    H3    1.080172 S    
N43   O21   1.301192 A    
C4    N4    1.345951 A    
N3    Ni2   1.875190 S    
C65   C73   1.366648 A    
N25   Ni6   1.856199 S    
C62   C70   1.386966 A    
C55   C95   1.387828 A    
N10   N18   1.358494 A    
C127  N39   1.431159 S    
C102  H38   1.084122 S    
C50   C90   1.401213 A    
N14   N22   1.358494 A    
C73   C97   1.394754 A    
C172  H68   1.082623 S    
C119  C135  1.396023 A    
C173  H69   1.074760 S    
C117  C141  1.398266 A    
C71   H31   1.085833 S    
C161  C170  1.405659 A    
N29   Ni8   1.856199 S    
C99   C111  1.379697 A    
C31   H23   1.067547 S    
C169  H65   1.082624 S    
C3    C35   1.388695 A    
C49   N41   1.437928 S    
C182  Br14  1.927151 S    
C6    H6    1.076888 S    
C26   H18   1.075273 S    
N38   O11   1.301108 A    
C60   C68   1.387790 A    
C178  Br10  1.926166 S    
N40   O16   1.301457 A    
C37   C119  1.485438 S    
C89   C106  1.404805 A    
C54   N46   1.437830 S    
C138  H49   1.076783 S    
C172  C180  1.391107 A    
C173  C181  1.398248 A    
C81   C86   1.390011 A    
C19   N19   1.323040 A    
C93   C110  1.401651 A    
C159  C179  1.417000 A    
C20   H12   1.079990 S    
C175  C183  1.398394 A    
N17   Ni2   1.876448 S    
C21   H13   1.080968 S    
C131  H60   1.081359 S    
N41   O18   1.301149 A    
C125  C133  1.398614 A    
C70   H30   1.085789 S    
N24   Ni4   1.876494 S    
N45   O26   1.299812 A    
C152  C168  1.428957 A    
N13   Ni7   1.857403 S    
C109  H45   1.081909 S    
N26   Ni5   1.856199 S    
N42   O19   1.301220 A    
C121  C153  1.424933 A    
C26   C36   1.387316 A    
C176  H72   1.074764 S    
C9    Br1   1.916401 S    
C87   C95   1.419180 A    
C30   C40   1.396063 A    
N2    Ni2   1.875143 S    
C78   C102  1.397341 A    
N36   O8    1.301498 A    
C79   C103  1.397315 A    
C5    N5    1.343626 A    
C35   C113  1.484319 S    
C125  C157  1.424769 A    
C111  H47   1.081845 S    
C18   H10   1.079988 S    
C164  C167  1.404998 A    
C9    C41   1.385325 A    
C146  C154  1.420263 A    
C102  C106  1.388275 A    
N44   O24   1.301197 A    
C95   C112  1.401906 A    
N10   Ni6   1.857403 S    
C96   C111  1.401705 A    
C17   C41   1.367293 A    
C27   H19   1.075301 S    
N14   Ni8   1.857403 S    
C170  C178  1.391055 A    
C36   C114  1.484342 S    
C56   C96   1.387289 A    
C69   H29   1.085797 S    
C139  C147  1.400468 A    
C120  C136  1.396011 A    
C123  C131  1.404633 A    
C1    N1    1.346051 A    
C138  C146  1.400499 A    
C68   H28   1.087203 S    
N18   Ni1   1.876450 S    
C114  C130  1.399431 A    
C75   C99   1.394672 A    
N30   Ni7   1.856199 S    
N2    N28   1.421721 A    
C32   H24   1.067549 S    
N32   Ni8   1.856043 S    
C20   C44   1.367230 A    
C129  H58   1.081336 S    
C118  C134  1.396046 A    
C7    N7    1.343651 A    
C79   C87   1.411444 A    
C8    N8    1.343667 A    
C153  C181  1.418378 A    
C122  N34   1.432996 S    
C67   C75   1.366673 A    
C135  H64   1.081721 S    
N39   O13   1.301108 A    
C136  H63   1.081569 S    
C49   C57   1.398929 A    
N46   O27   1.300957 A    
C29   C39   1.396091 A    
C175  H71   1.074847 S    
C183  Br15  1.927127 S    
N3    N25   1.421721 A    
N8    N30   1.421719 A    
C9    N9    1.339577 A    
C2    H2    1.080166 S    
N39   O14   1.301379 A    
C88   C96   1.418979 A    
C145  C161  1.416172 A    
C114  C138  1.396613 A    
C128  N40   1.431126 S    
N19   Ni1   1.876492 S    
C116  C132  1.399418 A    
C73   C81   1.408686 A    
C63   C71   1.386857 A    
N4    N26   1.421719 A    
C64   C72   1.386984 A    
C23   N23   1.325369 A    
C24   N24   1.325331 A    
C118  C142  1.398247 A    
C6    N6    1.343558 A    
C151  C159  1.429647 A    
C44   C57   1.416508 S    
C137  H50   1.076776 S    
C97   H33   1.084312 S    
C66   H26   1.087155 S    
C29   H21   1.067596 S    
C91   C108  1.404801 A    
C184  Br16  1.927159 S    
C48   C61   1.407730 S    
C101  H37   1.084125 S    
C174  H70   1.074780 S    
N6    N32   1.421721 A    
C162  C169  1.405652 A    
C170  H66   1.082625 S    
C161  C166  1.405009 A    
C176  C184  1.398254 A    
C112  H48   1.081721 S    
N34   O4    1.301499 A    
C23   C47   1.355371 A    
C28   N28   1.335105 A    
C123  C155  1.425037 A    
C1    H1    1.080176 S    
N47   O29   1.301074 A    
C106  H42   1.081536 S    
N31   Ni7   1.856040 S    
N22   Ni3   1.876450 S    
N45   O25   1.300980 A    
C65   H25   1.087144 S    
C90   C105  1.404795 A    
C139  H52   1.076823 S    
C29   N29   1.337086 A    
C123  N35   1.432982 S    
C70   C78   1.380047 A    
C82   C85   1.389987 A    
C97   C109  1.379665 A    
C94   C109  1.401649 A    
C25   N25   1.335136 A    
C22   H14   1.080964 S    
C38   C120  1.485336 S    
N48   O32   1.299974 A    
N11   Ni6   1.857244 S    
C21   C45   1.355331 A    
C43   C58   1.416489 S    
C31   N31   1.337069 A    
N15   Ni8   1.857244 S    
C12   Br4   1.916300 S    
C28   H20   1.075274 S    
N15   N23   1.358494 A    
N4    Ni1   1.875193 S    
C86   C94   1.418943 A    
C59   C67   1.387833 A    
C77   C101  1.397325 A    
C57   C65   1.387866 A    
N16   N24   1.358495 A    
C105  H41   1.081562 S    
C56   C64   1.396107 A    
C68   C76   1.366569 A    
C69   C77   1.380020 A    
C137  C145  1.400486 A    
C78   C86   1.411527 A    
C17   N17   1.323090 A    
C72   C80   1.380038 A    
C53   N45   1.437814 S    
C19   H11   1.079980 S    
C20   N20   1.323039 A    
N6    Ni4   1.875143 S    
N7    Ni4   1.875190 S    
C21   N21   1.325323 A    
N38   O12   1.301392 A    
C100  C112  1.379649 A    
C132  H59   1.081348 S    
C13   Br5   1.916362 S    
C133  H62   1.081719 S    
C155  C183  1.418560 A    
C171  C179  1.391044 A    
C10   Br2   1.916310 S    
C104  C108  1.388320 A    
C167  C176  1.412644 A    
C12   N12   1.339676 A    
C80   C88   1.411533 A    
C168  C175  1.412593 A    
C13   N13   1.336698 A    
C152  C160  1.429694 A    
C84   C92   1.420393 A    
C85   C93   1.418941 A    
C164  C171  1.405648 A    
C4    C36   1.388707 A    
C165  C174  1.412643 A    
C39   C117  1.485467 S    
N5    N31   1.421719 A    
C30   H22   1.067554 S    
N33   O1    1.301358 A    
C8    C40   1.396165 A    
C147  C163  1.416067 A    
C76   C84   1.408595 A    
C77   C85   1.411531 A    
N37   O9    1.301103 A    
C22   C46   1.355431 A    
C75   C83   1.408673 A    
C143  H56   1.070115 S    
C80   C104  1.397273 A    
C154  C182  1.418406 A    
C144  H55   1.070213 S    
C143  C151  1.406583 A    
C74   C82   1.408680 A    
C134  H61   1.081713 S    
C174  C182  1.398274 A    
C140  H51   1.076781 S    
C24   C48   1.355300 A    
C141  H54   1.070138 S    
C27   C33   1.387273 A    
C25   H17   1.075267 S    
C99   H35   1.084318 S    
N21   Ni4   1.876448 S    
C10   N10   1.339670 A    
C52   C60   1.398839 A    
N27   Ni5   1.856040 S    
C116  C140  1.396608 A    
C81   C89   1.420304 A    
C5    C37   1.396152 A    
C12   C44   1.385302 A    
C72   H32   1.085797 S    
C32   N32   1.337167 A    
N16   Ni7   1.857248 S    
C42   C59   1.416541 S    
N11   N19   1.358494 A    
C110  H46   1.081908 S    
C11   Br3   1.916287 S    
C142  H53   1.070115 S    
C13   C45   1.368627 A    
C74   C98   1.394776 A    
C46   C63   1.407612 S    
C98   H34   1.084316 S    
C67   H27   1.087157 S    
N28   Ni6   1.856043 S    
N1    N27   1.421719 A    
C15   C47   1.368582 A    
N40   O15   1.301082 A    
N1    Ni1   1.875143 S    
N47   O30   1.300126 A    
C40   C118  1.485467 S    
C150  C158  1.429644 A    
C171  H67   1.082620 S    
C126  C158  1.424792 A    
C27   N27   1.335102 A    
N5    Ni3   1.875143 S    
C10   C42   1.385303 A    
C145  C153  1.420263 A    
C33   C115  1.484405 S    
N46   O28   1.299745 A    
C142  C150  1.406592 A    
N9    Ni5   1.857403 S    
N23   Ni3   1.876492 S    
C30   N30   1.337064 A    
C23   H15   1.080959 S    
C61   C69   1.386958 A    
C24   H16   1.080956 S    
C1    C33   1.388739 A    
C51   C91   1.401267 A    
C49   C89   1.401225 A    
C2    N2    1.345955 A    
N12   N20   1.358495 A    
C127  C135  1.398607 A    
N13   N21   1.358495 A    
C160  C180  1.416988 A    
N9    N17   1.358495 A    
C7    C39   1.396189 A    
C92   C107  1.404735 A    
C122  C130  1.404517 A    
C115  C131  1.399446 A    
C148  C156  1.420254 A    
C15   Br7   1.916324 S    
C83   C88   1.390081 A    
C113  C129  1.399430 A    
C124  C156  1.424941 A    
C158  C178  1.417018 A    
C119  C143  1.398230 A    
N37   O10   1.301404 A    
C53   C61   1.396058 A    
C117  C133  1.396044 A    
C71   C79   1.379763 A    
C15   N15   1.336638 A    
C16   N16   1.336673 A    
C180  Br12  1.926062 S    
C54   C94   1.387192 A    
C50   C58   1.398935 A    
N42   O20   1.301114 A    
N44   O23   1.301176 A    
N7    N29   1.421721 A    
N12   Ni5   1.857248 S    
C144  C152  1.406598 A    
C52   N44   1.437959 S    
C54   C62   1.396095 A    
C141  C149  1.406613 A    
C58   C66   1.387855 A    
C55   C63   1.396397 A    
