data_mof_unit_32421.cif
_audit_creation_date              2012-12-11T14:14:03-0500
_audit_creation_method            fapswitch 2.2
_symmetry_space_group_name_H-M    P1
_symmetry_Int_Tables_number       1
_space_group_crystal_system       triclinic
_cell_length_a                    16.952375
_cell_length_b                    7.245632
_cell_length_c                    16.995034
_cell_angle_alpha                 90.004918
_cell_angle_beta                  99.311448
_cell_angle_gamma                 90.004587
_cell_volume                      2060.00512157

loop_
_atom_site_label
_atom_site_type_symbol
_atom_type_description
_atom_site_fract_x
_atom_site_fract_y
_atom_site_fract_z
_atom_type_partial_charge
O1    O     O_R   0.414560 0.494370 0.416770 -0.530943
O2    O     O_R   0.585440 0.994370 0.583230 -0.530961
O3    O     O_R   0.578370 0.819590 0.429320 -0.531374
O4    O     O_R   0.421630 0.319590 0.570680 -0.531359
C1    C     C_R   0.604750 0.655676 0.414002 0.760176
C2    C     C_R   0.395244 0.155674 0.585990 0.760200
O5    O     O_R   0.414740 0.823790 0.407360 -0.540849
O6    O     O_R   0.585260 0.323790 0.592640 -0.540836
O7    O     O_R   0.420650 0.998510 0.561120 -0.545781
O8    O     O_R   0.579350 0.498510 0.438880 -0.545764
C3    C     C_R   0.388765 0.655824 0.384247 0.717935
C4    C     C_R   0.611260 0.155850 0.615733 0.717753
O9    O     O_3   0.502130 0.662240 0.550470 -0.380268
O10   O     O_3   0.497870 0.162240 0.449530 -0.380274
V1    V     V_3+5 0.499600 0.935390 0.490640 1.418619
V2    V     V_3+5 0.500400 0.435390 0.509360 1.418697
C5    C     C_2   0.772531 0.252565 0.802840 -0.180828
C6    C     C_2   0.227544 0.752410 0.197110 -0.180120
C7    C     C_2   0.828361 0.117220 0.811178 0.110757
C8    C     C_2   0.171582 0.617319 0.188880 0.111074
H1    H     H_    0.774397 0.353949 0.850236 0.139891
H2    H     H_    0.225748 0.853573 0.149644 0.139830
C9    C     C_2   0.711569 0.285347 0.730491 0.309740
C10   C     C_2   0.288584 0.785237 0.269393 0.308979
C11   C     C_2   0.674316 0.142414 0.687302 -0.333861
C12   C     C_2   0.325740 0.642329 0.312654 -0.334614
H3    H     H_    0.688486 0.002867 0.707919 0.159616
H4    H     H_    0.311468 0.502753 0.292106 0.160042
C13   C     C_R   0.330128 0.151280 0.634520 -0.184594
C14   C     C_R   0.669852 0.651313 0.365455 -0.184607
C15   C     C_R   0.166380 0.117533 0.861589 -0.231736
C16   C     C_R   0.833586 0.617544 0.138377 -0.231628
C17   C     C_R   0.297957 0.021037 0.837795 -0.229180
C18   C     C_R   0.702045 0.520803 0.162206 -0.229291
C19   C     C_R   0.237907 0.019430 0.885600 0.377308
C20   C     C_R   0.762094 0.519246 0.114395 0.377274
C21   C     C_R   0.153903 0.209905 0.786785 0.188506
C22   C     C_R   0.846007 0.710166 0.213130 0.188616
C23   C     C_R   0.210758 0.189129 0.733554 0.000693
C24   C     C_R   0.789171 0.689337 0.266376 0.000660
C25   C     C_R   0.284653 0.100425 0.761753 -0.005287
C26   C     C_R   0.715322 0.600356 0.238223 -0.005258
C27   C     C_R   0.344646 0.089817 0.713495 -0.276706
C28   C     C_R   0.655345 0.589672 0.286499 -0.276763
C29   C     C_R   0.253348 0.214912 0.602312 0.342245
C30   C     C_R   0.746606 0.715209 0.397623 0.342253
C31   C     C_R   0.195295 0.246201 0.652189 0.224387
C32   C     C_R   0.804621 0.746619 0.347717 0.224373
H5    H     H_    0.402705 0.032274 0.737177 0.133382
H6    H     H_    0.597311 0.531929 0.262848 0.133413
H7    H     H_    0.354351 0.953425 0.859426 0.140850
H8    H     H_    0.645676 0.453037 0.140599 0.140839
O11   O     O_R   0.920750 0.773600 0.061260 -0.537540
O12   O     O_R   0.079250 0.273600 0.938740 -0.537498
O13   O     O_R   0.085340 0.439850 0.092570 -0.540499
O14   O     O_R   0.914660 0.939850 0.907430 -0.540528
C33   C     C_R   0.110988 0.608314 0.115552 0.656640
C34   C     C_R   0.888987 0.108288 0.884472 0.657253
O15   O     O_R   0.921720 0.444130 0.070790 -0.539924
O16   O     O_R   0.078280 0.944130 0.929210 -0.539943
O17   O     O_R   0.914480 0.269530 0.916840 -0.538600
O18   O     O_R   0.085520 0.769530 0.083160 -0.538559
C35   C     C_R   0.896302 0.612313 0.086495 0.753004
C36   C     C_R   0.103682 0.112314 0.913489 0.753155
O19   O     O_3   0.997840 0.601520 0.949550 -0.381797
O20   O     O_3   0.002160 0.101520 0.050450 -0.381778
V3    V     V_3+5 0.000400 0.328340 0.009360 1.392920
V4    V     V_3+5 0.999600 0.828340 0.990640 1.392834
N1    N     N_2   0.084908 0.322937 0.765303 -0.480023
H9    H     H_    0.033586 0.274678 0.783437 0.239090
C37   C     C_3   0.098400 0.517204 0.782487 -0.442243
H10   H     H_    0.044893 0.597337 0.755757 0.182042
H11   H     H_    0.150741 0.568274 0.757213 0.181201
H12   H     H_    0.109476 0.541236 0.847789 0.182623
N2    N     N_2   0.914921 0.823517 0.234547 -0.480051
H13   H     H_    0.966258 0.775463 0.216384 0.238967
C38   C     C_3   0.901283 0.017701 0.217308 -0.442101
H14   H     H_    0.954710 0.098106 0.244058 0.182052
H15   H     H_    0.848872 0.068563 0.242519 0.181127
H16   H     H_    0.890251 0.041603 0.151999 0.182498
N3    N     N_2   0.834536 0.992382 0.747489 -0.518237
H17   H     H_    0.856856 0.864122 0.765478 0.271444
C39   C     C_3   0.873233 0.069576 0.685065 -0.563995
H18   H     H_    0.863106 0.979013 0.632070 0.214733
H19   H     H_    0.938495 0.082371 0.705852 0.182450
H20   H     H_    0.847787 0.206369 0.666273 0.212802
N4    N     N_2   0.165300 0.492670 0.252615 -0.518194
H21   H     H_    0.142365 0.364897 0.234650 0.271276
C40   C     C_3   0.127251 0.570658 0.315339 -0.563571
H22   H     H_    0.136032 0.478300 0.367758 0.213888
H23   H     H_    0.062215 0.587821 0.294431 0.182680
H24   H     H_    0.154281 0.705394 0.335082 0.212969
N5    N     N_2   0.693133 0.473585 0.711263 -0.514532
H25   H     H_    0.690634 0.510794 0.652467 0.273501
C41   C     C_3   0.631626 0.553270 0.750553 -0.493067
H26   H     H_    0.624012 0.701325 0.734360 0.186245
H27   H     H_    0.648746 0.543078 0.816325 0.194189
H28   H     H_    0.573772 0.481274 0.731867 0.191682
N6    N     N_2   0.307124 0.973486 0.288527 -0.514272
H29   H     H_    0.309559 0.010959 0.347288 0.273511
C42   C     C_3   0.368733 0.052794 0.249265 -0.492741
H30   H     H_    0.376356 0.200943 0.265309 0.186189
H31   H     H_    0.351713 0.042206 0.183493 0.194198
H32   H     H_    0.426551 0.980800 0.268116 0.191609
O21   O     O_3   0.232936 0.237343 0.520745 -0.556007
C43   C     C_3   0.202583 0.067267 0.487323 0.088949
H33   H     H_    0.169267 0.986351 0.527354 0.095022
H34   H     H_    0.252685 0.980700 0.473414 0.122552
C44   C     C_3   0.144610 0.103729 0.410897 -0.742470
H35   H     H_    0.176924 0.163298 0.365076 0.240172
H36   H     H_    0.115571 0.973305 0.387832 0.183304
H37   H     H_    0.096979 0.199779 0.422993 0.213174
O22   O     O_3   0.767054 0.737639 0.479188 -0.556106
C45   C     C_3   0.797542 0.567642 0.512554 0.089057
H38   H     H_    0.830880 0.486925 0.472477 0.095015
H39   H     H_    0.747512 0.480832 0.526471 0.122603
C46   C     C_3   0.855538 0.604213 0.588958 -0.742572
H40   H     H_    0.823199 0.663212 0.634877 0.240050
H41   H     H_    0.884777 0.473905 0.611870 0.183145
H42   H     H_    0.903006 0.700783 0.576897 0.213369
N7    N     N_2   0.118575 0.314945 0.618016 -0.466223
H43   H     H_    0.083504 0.220203 0.583087 0.248384
C47   C     C_3   0.116677 0.497364 0.582810 -0.485129
H44   H     H_    0.055861 0.556379 0.579970 0.180763
H45   H     H_    0.130445 0.490228 0.521248 0.207928
H46   H     H_    0.160077 0.591011 0.619066 0.180561
N8    N     N_2   0.881308 0.815665 0.381848 -0.466224
H47   H     H_    0.916443 0.721087 0.416794 0.248413
C48   C     C_3   0.883109 0.998132 0.417011 -0.485187
H48   H     H_    0.943913 0.057270 0.419902 0.180712
H49   H     H_    0.869274 0.991062 0.478549 0.207911
H50   H     H_    0.839712 0.091645 0.380691 0.180581
O23   O     O_3   0.252245 0.936802 0.960056 -0.557004
C49   C     C_3   0.254223 0.742083 0.952375 0.109450
H51   H     H_    0.255754 0.690737 0.890640 0.095446
H52   H     H_    0.199779 0.683886 0.971564 0.138731
C50   C     C_3   0.327081 0.666347 0.006860 -0.742481
H53   H     H_    0.326221 0.709481 0.069384 0.219443
H54   H     H_    0.326977 0.513208 0.003933 0.189283
H55   H     H_    0.382514 0.718964 0.987719 0.219166
O24   O     O_3   0.747767 0.436584 0.039936 -0.556998
C51   C     C_3   0.745725 0.241873 0.047604 0.109393
H56   H     H_    0.744065 0.190558 0.109313 0.095453
H57   H     H_    0.800203 0.183617 0.028510 0.138628
C52   C     C_3   0.672926 0.166189 0.993000 -0.742429
H58   H     H_    0.673923 0.209249 0.930495 0.219443
H59   H     H_    0.672974 0.013053 0.995938 0.189227
H60   H     H_    0.617457 0.218914 0.012024 0.219203

loop_
_geom_bond_atom_site_label_1
_geom_bond_atom_site_label_2
_ccdc_geom_bond_type
N4    H21   S    
N5    H25   S    
C21   N1    S    
C10   N6    S    
C41   H26   S    
O1    C3    A    
C20   O24   S    
O2    C4    A    
C19   O23   S    
C49   C50   S    
C45   H38   S    
C41   H28   S    
C47   H44   S    
C23   C25   A    
C38   H14   S    
O5    C3    A    
C50   H54   S    
C5    C9    S    
C43   H34   S    
C6    C10   S    
C16   C20   A    
N3    H17   S    
C10   C12   D    
O22   C45   S    
C44   H36   S    
C17   C19   A    
C47   H45   S    
C43   H33   S    
C8    N4    S    
N1    C37   S    
O11   V4    S    
C52   H59   S    
O24   C51   S    
C39   H18   S    
C18   C26   A    
C16   C22   A    
C40   H23   S    
C18   C20   A    
C48   H50   S    
O15   V3    S    
C34   O17   A    
C29   C31   A    
O20   V3    S    
O6    V2    S    
C13   C27   A    
C25   C27   A    
C51   C52   S    
C14   C28   A    
C26   C28   A    
C2    O7    A    
N3    C39   S    
C29   O21   S    
C52   H58   S    
C22   N2    S    
C38   H15   S    
C7    C34   S    
C50   H55   S    
C30   C32   A    
C42   H30   S    
C33   O18   A    
O4    C2    A    
C44   H37   S    
C37   H11   S    
C27   H5    S    
C47   H46   S    
C49   H52   S    
O12   V3    S    
C3    C12   S    
O14   V4    S    
C5    H1    S    
C15   C21   A    
C13   C29   A    
O4    V2    S    
N2    H13   S    
N8    C48   S    
O13   C33   A    
C8    C33   S    
O17   V3    S    
C45   H39   S    
N6    H29   S    
O10   V1    S    
O6    C4    A    
O19   V4    S    
C2    C13   S    
O1    V2    S    
C40   H24   S    
O2    V1    S    
N2    C38   S    
N7    H43   S    
C39   H19   S    
C42   H32   S    
N4    C40   S    
O23   C49   S    
C15   C19   A    
O15   C35   A    
C46   H42   S    
C17   H7    S    
N8    H47   S    
C52   H60   S    
O3    V1    S    
C23   C31   A    
C48   H48   S    
O21   C43   S    
C38   H16   S    
C28   H6    S    
C24   C32   A    
C30   O22   S    
N6    C42   S    
C6    H2    S    
C18   H8    S    
C15   C36   S    
C14   C30   A    
C16   C35   S    
O3    C1    A    
C37   H12   S    
O13   V3    S    
C41   H27   S    
C49   H51   S    
C11   H3    S    
C50   H53   S    
C12   H4    S    
O18   V4    S    
C4    C11   S    
O16   C36   A    
C17   C25   A    
C46   H41   S    
O7    V1    S    
C1    O8    A    
C21   C23   A    
O8    V2    S    
C46   H40   S    
C32   N8    S    
C22   C24   A    
O11   C35   A    
N5    C41   S    
O12   C36   A    
O5    V1    S    
C24   C26   A    
C5    C7    D    
O14   C34   A    
C6    C8    D    
C9    C11   D    
N1    H9    S    
N7    C47   S    
C45   C46   S    
C31   N7    S    
C9    N5    S    
C37   H10   S    
C39   H20   S    
O16   V4    S    
C42   H31   S    
C1    C14   S    
O9    V2    S    
C44   H35   S    
C51   H56   S    
C40   H22   S    
C7    N3    S    
C51   H57   S    
C48   H49   S    
C43   C44   S    
