data_mof_unit_18331.cif
_audit_creation_date              2012-10-26T21:08:37-0400
_audit_creation_method            fapswitch 2.2
_symmetry_space_group_name_H-M    P1
_symmetry_Int_Tables_number       1
_space_group_crystal_system       triclinic
_cell_length_a                    22.503944
_cell_length_b                    22.49202
_cell_length_c                    14.661101
_cell_angle_alpha                 90.140276
_cell_angle_beta                  90.196593
_cell_angle_gamma                 90.051504
_cell_volume                      7420.78156716

loop_
_atom_site_label
_atom_site_type_symbol
_atom_type_description
_atom_site_fract_x
_atom_site_fract_y
_atom_site_fract_z
_atom_type_partial_charge
C1    C     C_R   0.419848 0.919810 0.499830 0.547310
C2    C     C_1   0.662378 0.837593 0.500100 -0.055595
C3    C     C_R   0.108523 0.596821 0.138666 -0.114827
C4    C     C_3   0.146891 0.147258 0.384410 -0.305243
C5    C     C_3   0.844602 0.844215 0.645942 -0.304944
C6    C     C_3   0.865327 0.134605 0.517165 -0.305741
C7    C     C_3   0.134728 0.865384 0.482466 -0.305517
C8    C     C_3   0.655399 0.655786 0.354058 -0.304945
C9    C     C_3   0.353103 0.352735 0.615593 -0.305243
C10   C     C_3   0.365269 0.634622 0.517545 -0.305515
C11   C     C_3   0.634717 0.365341 0.482819 -0.305738
C12   C     C_3   0.645192 0.644530 0.603828 -0.307038
C13   C     C_1   0.662334 0.162445 0.500551 -0.059380
C14   C     C_3   0.346917 0.347569 0.364894 -0.307058
C15   C     C_3   0.313280 0.684370 0.291747 -0.308046
C16   C     C_3   0.686862 0.315447 0.708460 -0.308057
C17   C     C_3   0.153076 0.152425 0.635106 -0.307056
C18   C     C_3   0.854809 0.855471 0.396172 -0.307039
C19   C     C_3   0.813188 0.184503 0.291525 -0.308070
C20   C     C_3   0.186716 0.815635 0.708262 -0.308045
C21   C     C_3   0.760697 0.760730 0.250161 -0.305883
C22   C     C_3   0.255672 0.255665 0.750767 -0.305678
C23   C     C_3   0.301334 0.700153 0.725953 -0.309034
C24   C     C_1   0.337693 0.837528 0.499445 -0.059330
C25   C     C_3   0.698529 0.299957 0.274189 -0.309021
C26   C     C_3   0.244322 0.244326 0.249236 -0.305680
C27   C     C_3   0.739304 0.739271 0.749839 -0.305881
C28   C     C_3   0.801516 0.199988 0.725790 -0.309027
C29   C     C_3   0.198661 0.799851 0.274056 -0.309037
C30   C     C_3   0.342590 0.042904 0.004163 -0.313553
C31   C     C_3   0.657396 0.957112 0.995846 -0.313390
C32   C     C_3   0.459862 0.157829 0.997972 -0.293803
C33   C     C_3   0.540126 0.842187 0.002018 -0.293961
C34   C     C_3   0.842587 0.542843 0.004160 -0.313390
C35   C     C_1   0.837622 0.662408 0.499900 -0.055595
C36   C     C_3   0.157417 0.457139 0.995830 -0.313560
C37   C     C_3   0.959835 0.657807 0.997972 -0.293985
C38   C     C_3   0.040182 0.342184 0.002042 -0.293824
C39   C     C_1   0.162386 0.337600 0.500098 -0.055649
C40   C     C_1   0.162304 0.662475 0.500560 -0.059328
C41   C     C_1   0.837701 0.337518 0.499440 -0.059376
C42   C     C_1   0.500634 0.000585 0.194590 0.110571
C43   C     C_1   0.499360 0.999421 0.805410 0.110699
C44   C     C_1   0.000639 0.500582 0.194590 0.110698
C45   C     C_R   0.580156 0.080186 0.500170 0.547312
C46   C     C_1   0.999363 0.499414 0.805410 0.110583
C47   C     C_3   0.486830 0.053680 0.968305 0.146319
C48   C     C_3   0.513157 0.946334 0.031694 0.146400
C49   C     C_3   0.447174 0.016219 0.031882 0.137794
C50   C     C_3   0.552813 0.983796 0.968119 0.137751
C51   C     C_3   0.986824 0.553664 0.968304 0.146397
C52   C     C_3   0.013182 0.446327 0.031697 0.146317
C53   C     C_3   0.947179 0.516193 0.031883 0.137746
C54   C     C_3   0.052826 0.483799 0.968117 0.137788
C55   C     C_3   0.699590 0.727125 0.533372 0.153349
C56   C     C_R   0.580170 0.919818 0.500040 0.547513
C57   C     C_3   0.297843 0.270304 0.455709 0.153376
C58   C     C_3   0.286704 0.740295 0.429756 0.154074
C59   C     C_3   0.713362 0.259628 0.570312 0.154082
C60   C     C_3   0.202151 0.229690 0.544293 0.153377
C61   C     C_3   0.800411 0.772876 0.466629 0.153348
C62   C     C_3   0.786685 0.240322 0.429671 0.154082
C63   C     C_3   0.213292 0.759710 0.570252 0.154074
C64   C     C_3   0.228976 0.201349 0.457944 0.153268
C65   C     C_3   0.767951 0.795573 0.552295 0.153245
C66   C     C_3   0.775706 0.196556 0.508573 0.154263
C67   C     C_R   0.419827 0.080179 0.499960 0.547515
C68   C     C_3   0.224331 0.803420 0.491299 0.154235
C69   C     C_3   0.732050 0.704428 0.447706 0.153245
C70   C     C_3   0.271018 0.298645 0.542058 0.153267
C71   C     C_3   0.275665 0.696585 0.508710 0.154235
C72   C     C_3   0.724340 0.303394 0.491410 0.154259
C73   C     C_1   0.375204 0.124802 0.499910 -0.028997
C74   C     C_1   0.624787 0.875190 0.500092 -0.028970
C75   C     C_1   0.624747 0.124830 0.500480 -0.032417
C76   C     C_1   0.375269 0.875152 0.499518 -0.032387
C77   C     C_1   0.875213 0.624811 0.499909 -0.028970
C78   C     C_R   0.919848 0.419810 0.499830 0.547310
C79   C     C_1   0.124793 0.375196 0.500091 -0.028997
C80   C     C_1   0.124729 0.624849 0.500484 -0.032387
C81   C     C_1   0.875273 0.375148 0.499516 -0.032419
C82   C     C_3   0.264631 0.236886 0.586292 0.153340
C83   C     C_3   0.740992 0.768747 0.414394 0.153383
C84   C     C_3   0.719476 0.252334 0.421474 0.153140
C85   C     C_3   0.280494 0.747690 0.578571 0.153128
C86   C     C_3   0.759009 0.731254 0.585606 0.153383
C87   C     C_3   0.235363 0.263107 0.413710 0.153339
C88   C     C_3   0.219502 0.752314 0.421438 0.153126
C89   C     C_R   0.080152 0.580190 0.500170 0.547309
C90   C     C_3   0.780571 0.247616 0.578509 0.153144
C91   C     C_3   0.291982 0.208019 0.499940 -0.012558
C92   C     C_3   0.708007 0.791969 0.500063 -0.012550
C93   C     C_3   0.707971 0.208047 0.500384 -0.012824
C94   C     C_3   0.292059 0.791922 0.499609 -0.012815
C95   C     C_3   0.791994 0.708032 0.499937 -0.012550
C96   C     C_3   0.208013 0.291974 0.500062 -0.012558
C97   C     C_3   0.207937 0.708083 0.500399 -0.012816
C98   C     C_3   0.792076 0.291904 0.499599 -0.012823
C99   C     C_3   0.542053 0.039619 0.028028 -0.001535
C100  C     C_R   0.080172 0.419820 0.500040 0.547511
C101  C     C_3   0.457934 0.960396 0.971972 -0.001482
C102  C     C_3   0.042052 0.539619 0.028025 -0.001476
C103  C     C_3   0.957953 0.460371 0.971976 -0.001530
C104  C     C_3   0.501799 0.001644 0.092665 -0.042182
C105  C     C_3   0.498189 0.998370 0.907335 -0.042192
C106  C     C_3   0.001809 0.501635 0.092665 -0.042189
C107  C     C_3   0.998196 0.498356 0.907335 -0.042176
C108  C     C_R   0.410098 0.915177 0.951112 0.034061
C109  C     C_R   0.383083 0.884565 0.023474 -0.079852
C110  C     C_R   0.338555 0.842580 0.006325 -0.123969
C111  C     C_R   0.919830 0.580182 0.499960 0.547516
C112  C     C_R   0.320465 0.830872 0.916838 -0.112468
C113  C     C_R   0.346851 0.861204 0.844443 -0.122460
C114  C     C_R   0.391470 0.903188 0.861326 -0.114833
C115  C     C_R   0.589890 0.084835 0.048890 0.034033
C116  C     C_R   0.616913 0.115440 0.976528 -0.079910
C117  C     C_R   0.661452 0.157414 0.993678 -0.123986
C118  C     C_R   0.679539 0.169119 0.083166 -0.112422
C119  C     C_R   0.653143 0.138798 0.155561 -0.122277
C120  C     C_R   0.608516 0.096824 0.138677 -0.114713
C121  C     C_R   0.910136 0.415130 0.951122 0.034036
C122  C     C_1   0.337610 0.162395 0.499903 -0.055650
C123  C     C_R   0.883131 0.384517 0.023491 -0.079899
C124  C     C_R   0.838635 0.342495 0.006346 -0.123974
C125  C     C_R   0.820571 0.330753 0.916858 -0.112433
C126  C     C_R   0.846945 0.361089 0.844457 -0.122301
C127  C     C_R   0.891530 0.403110 0.861335 -0.114714
C128  C     C_R   0.089881 0.584845 0.048883 0.034053
C129  C     C_R   0.116882 0.615470 0.976522 -0.079877
C130  C     C_R   0.161411 0.657456 0.993669 -0.123979
C131  C     C_R   0.179514 0.669149 0.083154 -0.112469
C132  C     C_R   0.153143 0.638804 0.155547 -0.122458
Cu1   Cu    Cu3+1 0.500000 0.000000 0.590220 0.975430
Cu2   Cu    Cu3+1 0.500000 0.000000 0.409780 0.975543
Cu3   Cu    Cu3+1 0.000000 0.500000 0.590220 0.975546
Cu4   Cu    Cu3+1 0.000000 0.500000 0.409780 0.975432
H1    H     H_    0.396535 0.893270 0.093244 0.126756
H2    H     H_    0.589293 0.073913 0.195922 0.127473
H3    H     H_    0.680981 0.342833 0.300064 0.168891
H4    H     H_    0.173445 0.286320 0.313607 0.245888
H5    H     H_    0.236318 0.266721 0.182949 0.123725
H6    H     H_    0.223727 0.199540 0.246573 0.167055
H7    H     H_    0.292974 0.239603 0.258910 0.157585
H8    H     H_    0.814237 0.701338 0.690570 0.245597
H9    H     H_    0.743076 0.712634 0.813222 0.123696
H10   H     H_    0.691484 0.744818 0.733546 0.157415
H11   H     H_    0.759409 0.783578 0.762479 0.166949
H12   H     H_    0.859445 0.254335 0.653293 0.245588
H13   H     H_    0.896567 0.393245 0.093261 0.126685
H14   H     H_    0.822976 0.209776 0.792434 0.128737
H15   H     H_    0.819076 0.157114 0.699923 0.168884
H16   H     H_    0.752989 0.195796 0.736900 0.153926
H17   H     H_    0.140674 0.745569 0.346552 0.245445
H18   H     H_    0.177202 0.790050 0.207416 0.128676
H19   H     H_    0.247195 0.803992 0.262958 0.153970
H20   H     H_    0.181138 0.842753 0.299866 0.169030
H21   H     H_    0.377933 0.011003 0.125607 0.250582
H22   H     H_    0.306141 0.068151 0.037174 0.134962
H23   H     H_    0.324772 0.999219 0.981829 0.151064
H24   H     H_    0.818114 0.319083 0.062477 0.095910
H25   H     H_    0.357596 0.068234 0.943725 0.154114
H26   H     H_    0.622057 0.989020 0.874404 0.250616
H27   H     H_    0.693852 0.931878 0.962830 0.135397
H28   H     H_    0.642392 0.931769 0.056272 0.153686
H29   H     H_    0.675205 0.000795 0.018200 0.151067
H30   H     H_    0.443137 0.110713 0.877973 0.245264
H31   H     H_    0.457928 0.201499 0.962999 0.128090
H32   H     H_    0.495042 0.160125 0.051028 0.168782
H33   H     H_    0.416348 0.149540 0.030912 0.165868
H34   H     H_    0.556851 0.889299 0.122020 0.244845
H35   H     H_    0.786077 0.298254 0.903684 0.098354
H36   H     H_    0.542056 0.798515 0.036985 0.127828
H37   H     H_    0.583642 0.850477 0.969083 0.166082
H38   H     H_    0.504948 0.839896 0.948958 0.168820
H39   H     H_    0.877940 0.510962 0.125610 0.250617
H40   H     H_    0.806130 0.568082 0.037167 0.135402
H41   H     H_    0.824782 0.499152 0.981834 0.151048
H42   H     H_    0.857584 0.568173 0.943717 0.153690
H43   H     H_    0.122064 0.489038 0.874393 0.250588
H44   H     H_    0.193873 0.431905 0.962813 0.134966
H45   H     H_    0.142419 0.431800 0.056264 0.154111
H46   H     H_    0.832751 0.352180 0.775146 0.134658
H47   H     H_    0.175222 0.500827 0.018173 0.151075
H48   H     H_    0.943104 0.610683 0.877982 0.244849
H49   H     H_    0.957858 0.701472 0.962992 0.127814
H50   H     H_    0.995036 0.660129 0.050992 0.168815
H51   H     H_    0.916341 0.649491 0.030959 0.166126
H52   H     H_    0.056898 0.389314 0.122030 0.245265
H53   H     H_    0.042171 0.298521 0.037030 0.128071
H54   H     H_    0.083672 0.350507 0.969050 0.165909
H55   H     H_    0.004979 0.339849 0.949025 0.168792
H56   H     H_    0.910741 0.426027 0.804085 0.127469
H57   H     H_    0.103420 0.606774 0.906754 0.126771
H58   H     H_    0.181932 0.680874 0.937544 0.095929
H59   H     H_    0.214039 0.701614 0.096330 0.098386
H60   H     H_    0.167369 0.647673 0.224855 0.134592
H61   H     H_    0.318024 0.819171 0.062452 0.095924
H62   H     H_    0.089322 0.573889 0.195911 0.127429
H63   H     H_    0.221903 0.109229 0.443803 0.245090
H64   H     H_    0.139112 0.109241 0.337450 0.127021
H65   H     H_    0.134948 0.188779 0.348121 0.156483
H66   H     H_    0.117589 0.141986 0.444519 0.165266
H67   H     H_    0.773634 0.886297 0.581503 0.245494
H68   H     H_    0.849100 0.878942 0.699440 0.127017
H69   H     H_    0.877660 0.853253 0.591781 0.165722
H70   H     H_    0.854322 0.800466 0.677298 0.156280
H71   H     H_    0.780858 0.105902 0.478832 0.242963
H72   H     H_    0.285942 0.798405 0.903661 0.098383
H73   H     H_    0.879676 0.089903 0.540309 0.124657
H74   H     H_    0.885333 0.168251 0.563384 0.157539
H75   H     H_    0.882065 0.141713 0.446969 0.166259
H76   H     H_    0.219180 0.894097 0.520877 0.242902
H77   H     H_    0.120406 0.910068 0.459200 0.124805
H78   H     H_    0.117943 0.858348 0.552651 0.166510
H79   H     H_    0.114742 0.831702 0.436292 0.157346
H80   H     H_    0.726367 0.613704 0.418497 0.245494
H81   H     H_    0.650901 0.621059 0.300561 0.127016
H82   H     H_    0.645679 0.699535 0.322703 0.156280
H83   H     H_    0.332637 0.852323 0.775133 0.134602
H84   H     H_    0.622341 0.646748 0.408219 0.165722
H85   H     H_    0.278092 0.390765 0.556199 0.245090
H86   H     H_    0.360883 0.390752 0.662552 0.127021
H87   H     H_    0.382405 0.358006 0.555484 0.165267
H88   H     H_    0.365046 0.311214 0.651884 0.156481
H89   H     H_    0.280818 0.605908 0.479132 0.242902
H90   H     H_    0.379592 0.589940 0.540815 0.124806
H91   H     H_    0.385255 0.668307 0.563717 0.157346
H92   H     H_    0.382054 0.641657 0.447359 0.166507
H93   H     H_    0.719185 0.394048 0.521150 0.242968
H94   H     H_    0.410684 0.926106 0.804079 0.127433
H95   H     H_    0.620365 0.410041 0.459668 0.124662
H96   H     H_    0.617981 0.358239 0.553018 0.166256
H97   H     H_    0.614712 0.331691 0.436608 0.157541
H98   H     H_    0.621603 0.733958 0.609369 0.245751
H99   H     H_    0.598997 0.628545 0.613778 0.124968
H100  H     H_    0.668474 0.643589 0.670600 0.165680
H101  H     H_    0.667775 0.613784 0.555980 0.155138
H102  H     H_    0.370500 0.258128 0.369528 0.246242
H103  H     H_    0.392132 0.362581 0.345519 0.125354
H104  H     H_    0.327394 0.381394 0.411021 0.154987
H105  H     H_    0.603462 0.106735 0.906758 0.126688
H106  H     H_    0.319420 0.344263 0.302167 0.165569
H107  H     H_    0.340958 0.770244 0.324141 0.247172
H108  H     H_    0.352325 0.675019 0.247973 0.129669
H109  H     H_    0.275737 0.697922 0.247326 0.158198
H110  H     H_    0.301243 0.642916 0.328078 0.154199
H111  H     H_    0.659185 0.229590 0.675962 0.247083
H112  H     H_    0.647847 0.324753 0.752318 0.129574
H113  H     H_    0.698859 0.356932 0.672182 0.154393
H114  H     H_    0.724442 0.301872 0.752792 0.158253
H115  H     H_    0.129494 0.241866 0.630474 0.246240
H116  H     H_    0.681992 0.180814 0.937552 0.095908
H117  H     H_    0.107861 0.137411 0.654473 0.125354
H118  H     H_    0.180569 0.155731 0.697837 0.165563
H119  H     H_    0.172604 0.118601 0.588981 0.154989
H120  H     H_    0.878398 0.766043 0.390631 0.245752
H121  H     H_    0.901004 0.871456 0.386222 0.124968
H122  H     H_    0.832226 0.886217 0.444021 0.155137
H123  H     H_    0.831527 0.856412 0.329401 0.165681
H124  H     H_    0.840864 0.270360 0.324023 0.247083
H125  H     H_    0.852205 0.175195 0.247671 0.129570
H126  H     H_    0.775611 0.198078 0.247188 0.158228
H127  H     H_    0.714069 0.201577 0.096344 0.098348
H128  H     H_    0.801187 0.143019 0.327802 0.154390
H129  H     H_    0.159037 0.729761 0.675867 0.247170
H130  H     H_    0.147671 0.824987 0.752034 0.129668
H131  H     H_    0.198756 0.857088 0.671932 0.154202
H132  H     H_    0.224258 0.802081 0.752685 0.158196
H133  H     H_    0.685764 0.798663 0.309430 0.245595
H134  H     H_    0.756925 0.787367 0.186778 0.123695
H135  H     H_    0.740592 0.716423 0.237522 0.166950
H136  H     H_    0.808517 0.755183 0.266454 0.157415
H137  H     H_    0.326550 0.213672 0.686394 0.245886
H138  H     H_    0.667355 0.147678 0.224873 0.134625
H139  H     H_    0.263675 0.233268 0.817053 0.123724
H140  H     H_    0.207020 0.260389 0.741092 0.157584
H141  H     H_    0.276268 0.300450 0.753434 0.167050
H142  H     H_    0.359322 0.754437 0.653458 0.245441
H143  H     H_    0.322790 0.709956 0.792595 0.128676
H144  H     H_    0.318861 0.657252 0.700146 0.169028
H145  H     H_    0.252800 0.696010 0.737046 0.153973
H146  H     H_    0.640601 0.245612 0.346692 0.245598
H147  H     H_    0.677057 0.290172 0.207553 0.128771
H148  H     H_    0.747055 0.304139 0.263061 0.153917
N1    N     N_1   0.499980 0.000000 0.274190 -0.201120
N2    N     N_2   0.291357 0.352115 0.587870 -0.515663
N3    N     N_2   0.301089 0.637812 0.519101 -0.517058
N4    N     N_2   0.698897 0.362169 0.481155 -0.517188
N5    N     N_2   0.643798 0.704366 0.567951 -0.516957
N6    N     N_2   0.350962 0.290386 0.409409 -0.517062
N7    N     N_2   0.328072 0.731363 0.355450 -0.515380
N8    N     N_2   0.672039 0.268497 0.644699 -0.515580
N9    N     N_2   0.149032 0.209608 0.590592 -0.517062
N10   N     N_2   0.856203 0.795635 0.432049 -0.516957
N11   N     N_2   0.828009 0.231453 0.355286 -0.515578
N12   N     N_1   0.500020 0.000000 0.725810 -0.201053
N13   N     N_2   0.171923 0.768642 0.644559 -0.515382
N14   N     N_2   0.730039 0.791080 0.323244 -0.517692
N15   N     N_2   0.281573 0.220552 0.678327 -0.517709
N16   N     N_2   0.314463 0.747614 0.662730 -0.525368
N17   N     N_2   0.685452 0.252455 0.337365 -0.525297
N18   N     N_2   0.218421 0.279440 0.321675 -0.517712
N19   N     N_2   0.769962 0.708921 0.676756 -0.517692
N20   N     N_2   0.814594 0.247492 0.662618 -0.525319
N21   N     N_2   0.185532 0.752391 0.337279 -0.525362
N22   N     N_2   0.390517 0.034921 0.068981 -0.516605
N23   N     N_1   0.999980 0.500000 0.274190 -0.201053
N24   N     N_2   0.609472 0.965096 0.931023 -0.516264
N25   N     N_2   0.472682 0.111843 0.931795 -0.517442
N26   N     N_2   0.527305 0.888171 0.068199 -0.517444
N27   N     N_2   0.890516 0.534880 0.068980 -0.516281
N28   N     N_2   0.109488 0.465113 0.931014 -0.516616
N29   N     N_2   0.972657 0.611822 0.931794 -0.517448
N30   N     N_2   0.027349 0.388171 0.068213 -0.517435
N31   N     N_1   0.000020 0.500000 0.725810 -0.201116
N32   N     N_2   0.208638 0.147879 0.412132 -0.515667
N33   N     N_2   0.784955 0.845702 0.608942 -0.515553
N34   N     N_2   0.801147 0.137780 0.518828 -0.517185
N35   N     N_2   0.198908 0.862193 0.480908 -0.517059
N36   N     N_2   0.715046 0.654299 0.391058 -0.515553
O1    O     O_R   0.439540 0.939530 0.576170 -0.498746
O2    O     O_R   0.560470 0.060470 0.576200 -0.489065
O3    O     O_R   0.560470 0.939530 0.576200 -0.488820
O4    O     O_R   0.439530 0.060470 0.423800 -0.488867
O5    O     O_R   0.939530 0.439530 0.423800 -0.489065
O6    O     O_R   0.060470 0.560470 0.576200 -0.488884
O7    O     O_R   0.060470 0.439530 0.576200 -0.488869
O8    O     O_R   0.939530 0.560470 0.423800 -0.488819
O9    O     O_R   0.560460 0.060470 0.423830 -0.498588
O10   O     O_R   0.560460 0.939530 0.423830 -0.493492
O11   O     O_R   0.439540 0.060470 0.576170 -0.493457
O12   O     O_R   0.939540 0.439530 0.576170 -0.498589
O13   O     O_R   0.060460 0.560470 0.423830 -0.498744
O14   O     O_R   0.060460 0.439530 0.423830 -0.493459
O15   O     O_R   0.939540 0.560470 0.576170 -0.493488
O16   O     O_R   0.439530 0.939530 0.423800 -0.488884

loop_
_geom_bond_atom_site_label_1
_geom_bond_atom_site_label_2
_ccdc_geom_bond_type
C126  C127  A    
C36   N28   S    
C78   O5    A    
C22   N15   S    
C4    N32   S    
C5    H68   S    
C22   H141  S    
C5    N33   S    
C7    N35   S    
H30   N25   S    
C54   C107  S    
H89   N3    S    
C45   O9    A    
C14   H103  S    
C85   N16   S    
C108  C109  A    
C53   C106  S    
C37   H49   S    
C38   H54   S    
C91   C122  S    
H111  N8    S    
C14   N6    S    
C88   C97   S    
C29   H19   S    
C48   C50   S    
C63   C85   S    
C110  H61   S    
C101  C105  S    
Cu4   O5    S    
C20   H131  S    
C21   H134  S    
C16   H112  S    
H107  N7    S    
C2    C92   S    
C26   N18   S    
Cu3   Cu4   S    
H48   N29   S    
C49   N22   S    
C1    O16   A    
C24   C76   T    
C82   C91   S    
C55   C92   S    
H124  N11   S    
C27   H9    S    
C18   H123  S    
C72   C84   S    
C58   N7    S    
Cu3   N31   S    
C44   C106  S    
C32   H32   S    
C120  H2    S    
C103  C121  S    
C22   H139  S    
C55   N5    S    
H4    N18   S    
C11   H95   S    
C38   N30   S    
C100  O14   A    
C131  H59   S    
C69   C95   S    
C58   C88   S    
Cu2   O16   S    
C60   C64   S    
C55   C86   S    
C130  C131  A    
C30   N22   S    
C49   C101  S    
C4    H65   S    
C37   H51   S    
C48   C101  S    
C124  H24   S    
C84   C93   S    
C53   N27   S    
C70   C82   S    
C89   O13   A    
C121  C123  A    
C56   O10   A    
C86   C95   S    
C83   N14   S    
C61   C65   S    
Cu2   O9    S    
Cu3   O15   S    
C61   N10   S    
C34   H41   S    
C103  C107  S    
C36   H45   S    
C64   C91   S    
C33   H36   S    
C23   N16   S    
C21   H136  S    
Cu1   O2    S    
C11   H97   S    
C52   C103  S    
C128  C129  A    
C49   C104  S    
C123  C124  A    
C17   N9    S    
C51   C102  S    
C71   C97   S    
C19   N11   S    
C8    H84   S    
C44   N23   T    
C102  C128  S    
C115  C116  A    
C47   C99   S    
H98   N5    S    
C18   H121  S    
C8    H81   S    
C19   H128  S    
C14   H106  S    
C9    H86   S    
C118  H127  S    
C13   C75   T    
C50   C105  S    
C25   H147  S    
C64   C87   S    
C6    N34   S    
C87   C96   S    
C125  H35   S    
H133  N14   S    
C117  H116  S    
C30   H23   S    
H142  N16   S    
C17   H118  S    
C62   C66   S    
C20   H130  S    
C45   O2    A    
C23   H143  S    
C3    C128  A    
C6    H75   S    
C47   C105  S    
C68   C94   S    
C57   C87   S    
C51   C53   S    
C70   C96   S    
C46   N31   T    
C60   N9    S    
C15   H110  S    
C20   N13   S    
C36   H47   S    
C48   N26   S    
C33   H38   S    
C55   C69   S    
C66   C93   S    
H8    N19   S    
C51   C107  S    
C86   N19   S    
C10   H91   S    
C111  O8    A    
C26   H7    S    
C56   O3    A    
C129  C130  A    
C62   C84   S    
C31   H28   S    
C1    C76   S    
Cu1   O11   S    
C50   N24   S    
C16   H113  S    
C51   N29   S    
C63   C97   S    
C117  C118  A    
C119  H138  S    
H120  N10   S    
C9    H88   S    
H12   N20   S    
Cu3   O6    S    
C15   N7    S    
Cu4   O13   S    
C54   N28   S    
C7    H78   S    
C57   N6    S    
C90   N20   S    
C4    H64   S    
C28   H15   S    
C38   H55   S    
C29   H18   S    
C12   H99   S    
C32   H33   S    
Cu3   O12   S    
C36   H44   S    
C20   H132  S    
H102  N6    S    
C65   C86   S    
C66   C90   S    
C6    H73   S    
C52   N30   S    
C25   H3    S    
C121  C127  A    
C99   C115  S    
C58   C71   S    
C100  O7    A    
C3    H62   S    
C12   H100  S    
Cu1   N12   S    
C108  C114  A    
C80   C89   S    
C77   C111  S    
H52   N30   S    
C5    H70   S    
C63   C68   S    
H93   N4    S    
C65   N33   S    
C67   C73   S    
C57   C70   S    
C26   H5    S    
C59   C72   S    
C101  C108  S    
C99   C104  S    
C18   N10   S    
C43   N12   T    
C113  H83   S    
C22   H140  S    
C23   H145  S    
C63   N13   S    
C56   C74   S    
C3    C132  A    
C111  O15   A    
C79   C100  S    
C61   C83   S    
C40   C97   S    
C82   N15   S    
C59   N8    S    
C35   C77   T    
C13   C93   S    
C39   C79   T    
H137  N15   S    
C4    H66   S    
C37   H50   S    
C31   N24   S    
C38   H53   S    
C41   C81   T    
C62   N11   S    
C29   H20   S    
C60   C96   S    
C12   H101  S    
Cu2   O10   S    
H21   N22   S    
Cu1   Cu2   S    
C34   H42   S    
C131  C132  A    
C21   H135  S    
Cu1   O1    S    
C113  C114  A    
H80   N36   S    
C116  H105  S    
C57   C91   S    
C54   C102  S    
C130  H58   S    
C42   C104  S    
C1    O1    A    
C119  C120  A    
C61   C95   S    
C35   C95   S    
H129  N13   S    
C47   N25   S    
C109  C110  A    
C78   C81   S    
C53   C103  S    
C27   H10   S    
H85   N2    S    
C18   H122  S    
C42   N1    T    
C8    H82   S    
C84   N17   S    
C73   C122  T    
C32   H31   S    
C30   H25   S    
C7    H79   S    
C19   H126  S    
C65   C92   S    
C14   H104  S    
C123  H13   S    
C28   H14   S    
C11   H96   S    
C71   N3    S    
H26   N24   S    
C72   N4    S    
H63   N32   S    
C47   C49   S    
C72   C98   S    
H34   N26   S    
C83   C92   S    
C17   H117  S    
C50   C99   S    
C9    N2    S    
C8    N36   S    
C69   N36   S    
H67   N33   S    
C11   N4    S    
H17   N21   S    
C67   O11   A    
C48   C104  S    
C25   N17   S    
C32   N25   S    
Cu2   N1    S    
C116  C117  A    
H76   N35   S    
C109  H1    S    
C43   C105  S    
C27   N19   S    
C33   N26   S    
C118  C119  A    
C28   N20   S    
H146  N17   S    
C62   C98   S    
C60   C82   S    
C15   H109  S    
C70   N2    S    
H71   N34   S    
C40   C80   T    
C33   H37   S    
C2    C74   T    
Cu1   O3    S    
C52   C106  S    
C88   N21   S    
C71   C85   S    
C16   N8    S    
C10   H92   S    
C89   O6    A    
C64   N32   S    
C112  C113  A    
C52   C54   S    
C110  C112  A    
Cu3   O7    S    
C31   H27   S    
C21   N14   S    
H115  N9    S    
C31   H29   S    
C34   H40   S    
C112  H72   S    
H43   N28   S    
C16   H114  S    
C12   N5    S    
C37   N29   S    
C59   C90   S    
C69   C83   S    
C24   C94   S    
C19   H125  S    
C85   C94   S    
C9    H87   S    
C46   C107  S    
Cu2   O4    S    
C29   N21   S    
C25   H148  S    
Cu4   O14   S    
C7    H77   S    
C66   N34   S    
H39   N27   S    
C28   H16   S    
C68   C88   S    
C126  H46   S    
C132  H60   S    
C30   H22   S    
C15   H108  S    
C17   H119  S    
C68   N35   S    
C10   N3    S    
C114  H94   S    
C129  H57   S    
C23   H144  S    
C6    H74   S    
C127  H56   S    
C45   C75   S    
C58   C94   S    
C34   N27   S    
Cu4   N23   S    
C125  C126  A    
C78   O12   A    
C102  C106  S    
C39   C96   S    
Cu4   O8    S    
C5    H69   S    
C67   O4    A    
C27   H11   S    
C115  C120  A    
C10   H90   S    
C87   N18   S    
C41   C98   S    
C59   C93   S    
C26   H6    S    
C90   C98   S    
C124  C125  A    
