data_mof_unit_59027.cif
_audit_creation_date              2012-12-11T16:17:02-0500
_audit_creation_method            fapswitch 2.2
_symmetry_space_group_name_H-M    P1
_symmetry_Int_Tables_number       1
_space_group_crystal_system       triclinic
_cell_length_a                    13.288616
_cell_length_b                    13.283899
_cell_length_c                    28.587368
_cell_angle_alpha                 89.999954
_cell_angle_beta                  90.000029
_cell_angle_gamma                 120.019332
_cell_volume                      4369.43704422

loop_
_atom_site_label
_atom_site_type_symbol
_atom_type_description
_atom_site_fract_x
_atom_site_fract_y
_atom_site_fract_z
_atom_type_partial_charge
C1    C     C_R   0.438997 0.549902 0.316309 0.541897
C2    C     C_R   0.550021 0.438888 0.683601 0.543075
C3    C     C_R   0.561256 0.111365 0.816485 0.543481
C4    C     C_R   0.888919 0.450012 0.683636 0.542396
C5    C     C_1   0.061700 0.525335 0.361786 0.012465
C6    C     C_1   0.464900 0.941454 0.138821 0.019058
C7    C     C_1   0.475457 0.536008 0.361478 0.010040
C8    C     C_1   0.061700 0.525335 0.138214 0.012464
C9    C     C_1   0.464906 0.941474 0.361175 0.019079
C10   C     C_1   0.475447 0.536016 0.138519 0.010040
C11   C     C_1   0.526885 0.064294 0.862305 0.017866
C12   C     C_R   0.111083 0.561071 0.183612 0.542842
C13   C     C_1   0.938623 0.463677 0.638336 0.011724
C14   C     C_1   0.536844 0.473857 0.861999 0.010700
C15   C     C_1   0.526893 0.064313 0.637690 0.017883
C16   C     C_1   0.938622 0.463677 0.861664 0.011725
C17   C     C_1   0.536851 0.473849 0.637998 0.010706
C18   C     C_R   0.980382 0.383701 0.474150 -0.009284
C19   C     C_R   0.378459 0.970776 0.023927 -0.012360
C20   C     C_R   0.559384 0.626897 0.478506 -0.005790
C21   C     C_R   0.980384 0.383702 0.025850 -0.009282
C22   C     C_R   0.378466 0.970812 0.476067 -0.012364
C23   C     C_R   0.450115 0.889131 0.316317 0.542637
C24   C     C_R   0.559513 0.626926 0.021496 -0.005801
C25   C     C_R   0.385367 0.981128 0.974719 -0.012521
C26   C     C_R   0.969701 0.377204 0.523357 -0.009741
C27   C     C_R   0.563260 0.618220 0.972400 -0.006650
C28   C     C_R   0.385376 0.981161 0.525276 -0.012523
C29   C     C_R   0.969702 0.377206 0.976643 -0.009737
C30   C     C_R   0.563123 0.618184 0.527602 -0.006638
C31   C     C_R   0.021359 0.580785 0.525782 -0.115372
C32   C     C_R   0.592668 0.049245 0.978904 -0.107988
C33   C     C_R   0.484610 0.409358 0.520000 -0.114691
C34   C     C_R   0.438995 0.549904 0.183691 0.541895
C35   C     C_R   0.021352 0.580784 0.974218 -0.115375
C36   C     C_R   0.592687 0.049330 0.521087 -0.107971
C37   C     C_R   0.484404 0.409339 0.979987 -0.114694
C38   C     C_R   0.585914 0.039124 0.027322 -0.102228
C39   C     C_R   0.031928 0.587129 0.477393 -0.116667
C40   C     C_R   0.480219 0.417845 0.028319 -0.114506
C41   C     C_R   0.585931 0.039212 0.472669 -0.102189
C42   C     C_R   0.031924 0.587129 0.022607 -0.116668
C43   C     C_R   0.480422 0.417869 0.471668 -0.114501
C44   C     C_R   0.011289 0.489480 0.451432 0.008086
C45   C     C_R   0.111083 0.561071 0.316388 0.542845
C46   C     C_R   0.479424 0.998936 0.049951 0.009119
C47   C     C_R   0.516989 0.525724 0.450799 0.011490
C48   C     C_R   0.011288 0.489480 0.048568 0.008088
C49   C     C_R   0.479435 0.998994 0.450041 0.009147
C50   C     C_R   0.516956 0.525725 0.049196 0.011481
C51   C     C_R   0.493149 0.019404 0.952441 0.008790
C52   C     C_R   0.990433 0.476688 0.548911 0.009852
C53   C     C_R   0.524498 0.508393 0.951918 0.011537
C54   C     C_R   0.493164 0.019459 0.547552 0.008808
C55   C     C_R   0.990431 0.476688 0.951089 0.009851
C56   C     C_R   0.450115 0.889130 0.183683 0.542630
C57   C     C_R   0.524529 0.508379 0.548076 0.011546
C58   C     C_1   0.967713 0.470830 0.598191 -0.033920
C59   C     C_1   0.507094 0.038217 0.902836 -0.025576
C60   C     C_1   0.529978 0.494067 0.597591 -0.033677
C61   C     C_1   0.967711 0.470830 0.901809 -0.033920
C62   C     C_1   0.507106 0.038252 0.597158 -0.025544
C63   C     C_1   0.529962 0.494082 0.902404 -0.033686
C64   C     C_1   0.473050 0.973332 0.099012 -0.022863
C65   C     C_1   0.033071 0.504347 0.402030 -0.032665
C66   C     C_1   0.498274 0.529441 0.098446 -0.035603
C67   C     C_R   0.550021 0.438889 0.816399 0.543079
C68   C     C_1   0.473058 0.973370 0.400982 -0.022815
C69   C     C_1   0.033070 0.504347 0.097970 -0.032666
C70   C     C_1   0.498294 0.529431 0.401549 -0.035597
C71   C     C_1   0.959769 0.282773 0.447154 0.201748
C72   C     C_1   0.268583 0.931242 0.047674 0.196986
C73   C     C_1   0.597618 0.738666 0.456549 0.216640
C74   C     C_1   0.959768 0.282773 0.052847 0.201756
C75   C     C_1   0.268585 0.931255 0.452321 0.196993
C76   C     C_1   0.597902 0.738721 0.043458 0.216633
C77   C     C_1   0.282722 0.952287 0.947260 0.201557
C78   C     C_R   0.561257 0.111367 0.683513 0.543477
C79   C     C_1   0.937299 0.269247 0.547530 0.197051
C80   C     C_1   0.605552 0.720862 0.943269 0.215487
C81   C     C_1   0.282727 0.952294 0.552736 0.201574
C82   C     C_1   0.937302 0.269249 0.952470 0.197060
C83   C     C_1   0.605228 0.720788 0.556743 0.215499
C84   C     C_R   0.888920 0.450012 0.816364 0.542398
Cr1   Cr    Cr6+3 0.505050 0.756260 0.250000 1.066088
Cr2   Cr    Cr6+3 0.251210 0.494950 0.250000 1.060021
Cr3   Cr    Cr6+3 0.243740 0.748790 0.250000 1.060998
Cr4   Cr    Cr6+3 0.756260 0.505050 0.750000 1.062496
Cr5   Cr    Cr6+3 0.494950 0.251210 0.750000 1.060095
Cr6   Cr    Cr6+3 0.748790 0.243740 0.750000 1.068931
H1    H     H_    0.035784 0.656988 0.545192 0.150839
H2    H     H_    0.663640 0.060366 0.452883 0.161524
H3    H     H_    0.056795 0.668822 0.039897 0.157758
H4    H     H_    0.446564 0.339785 0.450576 0.131766
H5    H     H_    0.675980 0.080373 0.961970 0.158845
H6    H     H_    0.455975 0.324892 0.535611 0.130896
H7    H     H_    0.035773 0.656987 0.954808 0.150837
H8    H     H_    0.676003 0.080475 0.538020 0.158816
H9    H     H_    0.455638 0.324853 0.964371 0.130930
H10   H     H_    0.663620 0.060262 0.047107 0.161557
H11   H     H_    0.056803 0.668823 0.460103 0.157760
H12   H     H_    0.446232 0.339739 0.049403 0.131794
N1    N     N_1   0.943212 0.202141 0.425605 -0.263393
N2    N     N_1   0.200738 0.929173 0.574658 -0.273604
N3    N     N_1   0.911650 0.183176 0.933125 -0.262763
N4    N     N_1   0.638760 0.802764 0.579964 -0.261455
N5    N     N_1   0.181060 0.900105 0.066729 -0.283271
N6    N     N_1   0.628278 0.827696 0.438852 -0.278034
N7    N     N_1   0.943207 0.202141 0.074396 -0.263367
N8    N     N_1   0.181058 0.900100 0.433267 -0.283280
N9    N     N_1   0.628685 0.827774 0.061157 -0.277965
N10   N     N_1   0.200736 0.929188 0.925340 -0.273596
N11   N     N_1   0.911647 0.183174 0.566875 -0.262784
N12   N     N_1   0.639235 0.802873 0.920058 -0.261393
O1    O     O_R   0.530190 0.870330 0.301660 -0.492290
O2    O     O_R   0.870330 0.530190 0.698340 -0.497684
O3    O     O_R   0.469810 0.340140 0.801660 -0.498473
O4    O     O_R   0.659860 0.129670 0.698340 -0.491119
O5    O     O_R   0.494300 0.651190 0.297490 -0.487420
O6    O     O_R   0.156890 0.505700 0.202510 -0.488764
O7    O     O_R   0.348810 0.843110 0.297490 -0.490903
O8    O     O_R   0.494300 0.651190 0.202510 -0.487427
O9    O     O_R   0.156890 0.505700 0.297490 -0.488761
O10   O     O_R   0.348810 0.843110 0.202510 -0.490901
O11   O     O_R   0.651190 0.494300 0.797490 -0.488487
O12   O     O_R   0.340140 0.469810 0.198340 -0.499701
O13   O     O_R   0.505700 0.156890 0.702510 -0.491283
O14   O     O_R   0.843110 0.348810 0.797490 -0.488572
O15   O     O_R   0.651190 0.494300 0.702510 -0.488492
O16   O     O_R   0.505700 0.156890 0.797490 -0.491277
O17   O     O_R   0.843110 0.348810 0.702510 -0.488575
O18   O     O_3   0.333333 0.666667 0.250000 -0.260593
O19   O     O_3   0.666667 0.333333 0.750000 -0.263293
O20   O     O_R   0.129670 0.659860 0.301660 -0.496436
O21   O     O_R   0.530190 0.870330 0.198340 -0.492299
O22   O     O_R   0.340140 0.469810 0.301660 -0.499696
O23   O     O_R   0.129670 0.659860 0.198340 -0.496436
O24   O     O_R   0.870330 0.530190 0.801660 -0.497681
O25   O     O_R   0.469810 0.340140 0.698340 -0.498471
O26   O     O_R   0.659860 0.129670 0.801660 -0.491123

loop_
_geom_bond_atom_site_label_1
_geom_bond_atom_site_label_2
_ccdc_geom_bond_type
C84   O14   A    
C49   C68   S    
Cr2   O12   S    
C42   H3    S    
C18   C26   A    
C24   C27   A    
C31   C52   A    
C2    O15   A    
C7    C70   T    
C19   C72   S    
C19   C46   A    
C23   O7    A    
C20   C30   A    
C45   O9    A    
Cr2   O6    S    
C8    C69   T    
C4    C13   S    
C25   C77   S    
C2    O25   A    
C56   O10   A    
C78   O4    A    
Cr3   O23   S    
Cr4   O19   S    
C37   C40   A    
C26   C52   A    
C67   O11   A    
Cr1   O18   S    
Cr3   O10   S    
C15   C78   S    
C3    O16   A    
C30   C57   A    
C16   C84   S    
C43   H4    S    
C1    O5    A    
C82   N3    T    
C6    C64   T    
C30   C83   S    
Cr1   O5    S    
C35   C42   A    
C12   O6    A    
Cr5   O25   S    
C14   C67   S    
C32   C38   A    
C1    O22   A    
C48   C69   S    
C8    C12   S    
C21   C48   A    
C37   C53   A    
C84   O24   A    
C34   O8    A    
C22   C28   A    
C2    C17   S    
Cr3   O20   S    
C36   C41   A    
Cr4   O15   S    
C74   N7    T    
C11   C59   T    
C78   O13   A    
C41   C49   A    
C39   H11   S    
C4    O17   A    
C10   C66   T    
C24   C50   A    
Cr5   O19   S    
C35   C55   A    
C33   C43   A    
Cr1   O1    S    
C36   C54   A    
C5    C65   T    
C27   C80   S    
C6    C56   S    
Cr3   O7    S    
Cr6   O19   S    
C28   C54   A    
C9    C23   S    
C57   C60   S    
C13   C58   T    
C29   C55   A    
C40   H12   S    
C21   C29   A    
C21   C74   S    
Cr5   O16   S    
C46   C64   S    
Cr3   O18   S    
Cr4   O2    S    
C77   N10   T    
C25   C51   A    
C47   C70   S    
Cr4   O11   S    
C18   C44   A    
C67   O3    A    
C72   N5    T    
C34   O12   A    
C32   H5    S    
C45   O20   A    
Cr1   O8    S    
C10   C34   S    
C42   C48   A    
C50   C66   S    
Cr4   O24   S    
C52   C58   S    
Cr1   O21   S    
C22   C49   A    
Cr6   O17   S    
Cr2   O22   S    
C80   N12   T    
C31   H1    S    
C79   N11   T    
C51   C59   S    
C16   C61   T    
C22   C75   S    
C33   H6    S    
Cr6   O4    S    
C37   H9    S    
C56   O21   A    
Cr5   O13   S    
C32   C51   A    
C18   C71   S    
C71   N1    T    
C75   N8    T    
C33   C57   A    
C28   C81   S    
C1    C7    S    
C4    O2    A    
C24   C76   S    
Cr5   O3    S    
C73   N6    T    
Cr6   O26   S    
C27   C53   A    
C39   C44   A    
C54   C62   S    
C26   C79   S    
C83   N4    T    
C9    C68   T    
C29   C82   S    
C53   C63   S    
C38   H10   S    
Cr2   O18   S    
C5    C45   S    
C76   N9    T    
C40   C50   A    
C14   C63   T    
C55   C61   S    
C44   C65   S    
C15   C62   T    
C31   C39   A    
C20   C73   S    
C19   C25   A    
C38   C46   A    
C20   C47   A    
C3    C11   S    
C17   C60   T    
C23   O1    A    
C41   H2    S    
Cr2   O9    S    
Cr6   O14   S    
C12   O23   A    
C36   H8    S    
C3    O26   A    
C35   H7    S    
C43   C47   A    
C81   N2    T    
