data_mof_unit_57633.cif
_audit_creation_date              2012-12-10T16:53:54-0500
_audit_creation_method            fapswitch 2.2
_symmetry_space_group_name_H-M    P1
_symmetry_Int_Tables_number       1
_space_group_crystal_system       triclinic
_cell_length_a                    7.785521
_cell_length_b                    8.559374
_cell_length_c                    10.611008
_cell_angle_alpha                 91.269307
_cell_angle_beta                  85.07935
_cell_angle_gamma                 93.626143
_cell_volume                      702.99292374

loop_
_atom_site_label
_atom_site_type_symbol
_atom_type_description
_atom_site_fract_x
_atom_site_fract_y
_atom_site_fract_z
_atom_type_partial_charge
C1    C     C_R   0.545697 0.794658 0.496447 0.953672
C2    C     C_3   0.499169 0.491836 0.121073 0.103102
C3    C     C_3   0.352985 0.374531 0.080276 -0.392850
C4    C     C_3   0.676986 0.440425 0.060793 -0.423241
C5    C     C_2   0.569739 0.958101 0.493554 -0.324338
C6    C     C_2   0.430055 0.041756 0.503800 -0.354037
C7    C     C_R   0.499574 0.489852 0.741660 0.894990
C8    C     C_R   0.454214 0.205288 0.502326 0.995399
C9    C     C_R   0.498896 0.496837 0.257742 0.838131
C10   C     C_3   0.483941 0.653870 0.929258 -0.474099
C11   C     C_3   0.470644 0.656706 0.074158 -0.407129
C12   C     C_3   0.346105 0.378723 0.936187 -0.304755
C13   C     C_3   0.674530 0.421606 0.917460 0.343341
C14   C     C_3   0.501556 0.483449 0.877853 -0.007688
H1    H     H_    0.367211 0.704273 0.896751 0.211651
H2    H     H_    0.710086 0.330371 0.104464 0.224717
H3    H     H_    0.346481 0.258124 0.895165 0.234897
H4    H     H_    0.375894 0.254239 0.109700 0.210086
H5    H     H_    0.701684 0.009069 0.483438 0.188937
H6    H     H_    0.298110 0.990791 0.513906 0.172235
H7    H     H_    0.013858 0.381398 0.404947 0.164547
H8    H     H_    0.598150 0.729568 0.892740 0.180364
H9    H     H_    0.568950 0.744087 0.108376 0.169909
H10   H     H_    0.341038 0.693566 0.111380 0.196553
H11   H     H_    0.222300 0.426904 0.915129 0.193964
H12   H     H_    0.225404 0.404768 0.126745 0.176402
H13   H     H_    0.785337 0.495926 0.873665 0.078551
H14   H     H_    0.780874 0.530639 0.081541 0.145343
N1    N     N_2   0.950330 0.457950 0.465890 -0.112090
N2    N     N_2   0.049670 0.542050 0.534110 -0.042548
O1    O     O_R   0.389250 0.738570 0.508370 -0.623371
O2    O     O_R   0.678390 0.711620 0.486510 -0.611927
O3    O     O_R   0.355430 0.513500 0.696140 -0.632320
O4    O     O_R   0.644580 0.486550 0.674270 -0.580636
O5    O     O_R   0.321610 0.288380 0.513490 -0.633735
O6    O     O_R   0.610750 0.261430 0.491630 -0.587054
O7    O     O_R   0.355420 0.513450 0.325730 -0.643524
O8    O     O_R   0.644570 0.486500 0.303860 -0.639361
Zn1   Zn    Zn3+2 0.306940 0.517990 0.514600 0.954967
Zn2   Zn    Zn3+2 0.693060 0.482010 0.485400 0.995058
N3    N     N_3   0.967838 0.646950 0.616412 -0.299623
H15   H     H_    0.022617 0.758346 0.593494 0.182432
H16   H     H_    0.001990 0.623371 0.706826 0.177086
S1    S     S_3+6 0.713721 0.220725 0.870779 -0.024524
O9    O     O_2   0.665192 0.183220 0.739322 -0.293733
O10   O     O_2   0.903260 0.199161 0.875407 -0.339704
O11   O     O_3   0.600432 0.095189 0.970973 -0.606728
H17   H     H_    0.669627 0.002015 0.970636 0.372681

loop_
_geom_bond_atom_site_label_1
_geom_bond_atom_site_label_2
_ccdc_geom_bond_type
C12   H3    S    
C4    H2    S    
O5    Zn1   S    
N2    N3    S    
N1    N2    D    
C5    H5    S    
C6    H6    S    
N3    H15   S    
C2    C4    S    
O11   H17   S    
S1    O11   S    
C1    O1    A    
C12   H11   S    
C9    O7    A    
C2    C3    S    
O7    Zn1   S    
C13   C14   S    
C10   H8    S    
O8    Zn2   S    
N3    H16   S    
O3    Zn1   S    
O4    Zn2   S    
C2    C11   S    
N1    Zn2   S    
C11   H9    S    
C9    O8    A    
C4    H14   S    
C12   C14   S    
N2    Zn1   S    
C10   H1    S    
O2    Zn2   S    
C10   C14   S    
C5    C6    D    
C7    O4    A    
C1    C5    S    
C10   C11   S    
C7    O3    A    
C11   H10   S    
O6    Zn2   S    
S1    O9    D    
C3    H4    S    
C8    O6    A    
C4    C13   S    
C3    H12   S    
C13   H13   S    
C6    C8    S    
C3    C12   S    
S1    O10   D    
C13   S1    S    
C2    C9    S    
H7    N1    S    
C7    C14   S    
C1    O2    A    
O1    Zn1   S    
C8    O5    A    
