data_mof_unit_48068.cif
_audit_creation_date              2013-03-05T15:41:39-0500
_audit_creation_method            fapswitch 2.2
_symmetry_space_group_name_H-M    P1
_symmetry_Int_Tables_number       1
_space_group_crystal_system       triclinic
_cell_length_a                    7.770512
_cell_length_b                    8.578678
_cell_length_c                    15.72
_cell_angle_alpha                 90.835226
_cell_angle_beta                  85.848209
_cell_angle_gamma                 93.623534
_cell_volume                      1043.01447773

loop_
_atom_site_label
_atom_site_type_symbol
_atom_site_description
_atom_site_fract_x
_atom_site_fract_y
_atom_site_fract_z
_atom_type_partial_charge
O1    O     O_R   0.389240 0.738570 0.505550 -0.614098
O2    O     O_R   0.678400 0.711630 0.491050 -0.631976
C1    C     C_R   0.545770 0.794733 0.497821 0.958782
O3    O     O_R   0.355360 0.513470 0.630110 -0.597690
O4    O     O_R   0.644510 0.486530 0.615610 -0.609940
C2    C     C_R   0.502033 0.500040 0.661595 0.901236
Zn1   Zn    Zn3+2 0.306930 0.517990 0.509680 0.964689
Zn2   Zn    Zn3+2 0.693070 0.482010 0.490320 0.958433
O5    O     O_R   0.321600 0.288370 0.508950 -0.628028
O6    O     O_R   0.610760 0.261430 0.494450 -0.612832
O7    O     O_R   0.355490 0.513470 0.384390 -0.625188
O8    O     O_R   0.644640 0.486530 0.369890 -0.614222
C3    C     C_R   0.454231 0.205267 0.502203 0.960814
C4    C     C_R   0.497994 0.499976 0.338396 0.899725
C5    C     C_3   0.388081 0.626707 0.954381 -0.453057
C6    C     C_3   0.691974 0.538341 0.946584 0.196262
C7    C     C_3   0.687073 0.535327 0.045300 -0.455628
H1    H     H_    0.429692 0.744227 0.076093 0.176483
H2    H     H_    0.436494 0.743975 0.930270 0.177393
H3    H     H_    0.732917 0.659879 0.926152 0.102505
H4    H     H_    0.738387 0.650544 0.069377 0.149520
H5    H     H_    0.771554 0.446325 0.067431 0.205825
C8    C     C_1   0.494076 0.500482 0.249629 -0.177385
C9    C     C_3   0.506270 0.499556 0.917158 0.206445
C10   C     C_3   0.383484 0.626885 0.052744 -0.403650
C11   C     C_3   0.498791 0.500460 0.082694 0.301697
C12   C     C_3   0.431652 0.338406 0.049913 -0.391068
C13   C     C_3   0.430269 0.339498 0.951874 -0.348114
C14   C     C_1   0.494433 0.500628 0.174259 -0.096382
C15   C     C_1   0.507624 0.499549 0.825621 -0.040037
C16   C     C_1   0.506372 0.499674 0.750324 -0.113538
H6    H     H_    0.294774 0.318386 0.933731 0.205034
H7    H     H_    0.502957 0.241845 0.923445 0.213671
H8    H     H_    0.298535 0.308392 0.078440 0.177132
H9    H     H_    0.254451 0.604437 0.933896 0.234594
C17   C     C_2   0.569866 0.958196 0.496582 -0.372513
H10   H     H_    0.701851 0.009210 0.489994 0.182392
C18   C     C_2   0.430137 0.041806 0.503481 -0.371867
H11   H     H_    0.298152 0.990793 0.510073 0.182815
N1    N     N_2   0.950340 0.457950 0.477370 -0.171710
H12   H     H_    0.013436 0.381841 0.436641 0.190897
N2    N     N_2   0.049660 0.542050 0.522630 -0.164629
H13   H     H_    0.986562 0.618141 0.563371 0.202449
H14   H     H_    0.247808 0.603818 0.079554 0.187840
H15   H     H_    0.515714 0.246612 0.069217 0.188652
N3    N     N_R   0.819182 0.433943 0.907737 0.208486
O9    O     O_R   0.942165 0.489729 0.853999 -0.414880
O10   O     O_R   0.817463 0.288174 0.929778 -0.425339

loop_
_geom_bond_atom_site_label_1
_geom_bond_atom_site_label_2
_geom_bond_distance
_ccdc_geom_bond_type
C4    C8    1.398018 S    
O4    Zn2   1.978649 S    
Zn1   O7    1.978649 S    
C7    H5    1.113152 S    
C6    H3    1.115572 S    
Zn2   O8    1.958143 S    
C12   H15   1.113358 S    
N1    N2    1.271422 D    
C2    C16   1.397710 S    
C3    C18   1.403193 S    
C6    C9    1.561559 S    
C5    C9    1.551078 S    
C5    H2    1.113499 S    
C11   C12   1.548154 S    
O4    C2    1.288253 A    
H1    C10   1.113366 S    
C1    C17   1.403194 S    
O3    Zn1   1.958144 S    
C7    C11   1.549460 S    
C8    C14   1.184652 T    
C10   H14   1.113545 S    
C5    H9    1.113539 S    
N1    H12   1.029292 S    
O8    C4    1.287194 A    
C13   H7    1.110352 S    
O2    C1    1.287051 A    
N3    O10   1.301482 A    
C12   H8    1.113503 S    
C15   C16   1.184438 T    
O7    C4    1.288483 A    
C9    C15   1.438237 S    
C5    C10   1.544070 S    
N2    H13   1.029301 S    
C17   C18   1.335750 D    
C13   H6    1.113796 S    
C18   H11   1.087794 S    
C11   C14   1.437323 S    
O3    C2    1.287311 A    
Zn1   N2    2.018050 S    
C6    N3    1.469912 S    
C12   C13   1.542146 S    
Zn1   O5    1.980130 S    
O5    C3    1.287049 A    
N3    O9    1.301148 A    
C17   H10   1.087793 S    
Zn2   N1    2.018050 S    
C10   C11   1.549041 S    
O1    Zn1   1.959240 S    
Zn2   O6    1.959240 S    
O2    Zn2   1.980131 S    
C9    C13   1.550694 S    
C6    C7    1.550072 S    
O1    C1    1.277717 A    
O6    C3    1.277718 A    
C7    H4    1.113706 S    
