data_mof_unit_20002.cif
_audit_creation_date              2012-10-26T19:39:35-0400
_audit_creation_method            fapswitch 2.2
_symmetry_space_group_name_H-M    P1
_symmetry_Int_Tables_number       1
_space_group_crystal_system       triclinic
_cell_length_a                    10.86037
_cell_length_b                    8.724378
_cell_length_c                    7.443373
_cell_angle_alpha                 103.018345
_cell_angle_beta                  93.853534
_cell_angle_gamma                 92.494269
_cell_volume                      684.329971772

loop_
_atom_site_label
_atom_site_type_symbol
_atom_type_description
_atom_site_fract_x
_atom_site_fract_y
_atom_site_fract_z
_atom_type_partial_charge
C1    C     C_R   0.491678 0.199959 0.453173 0.551213
C2    C     C_2   0.474405 0.032281 0.425546 0.100436
C3    C     C_2   0.874892 0.664052 0.252437 0.587112
C4    C     C_3   0.293115 0.911515 0.230253 -0.270782
C5    C     C_2   0.502281 0.967386 0.568967 -0.102057
C6    C     C_R   0.265503 0.505892 0.503689 0.541851
C7    C     C_R   0.501164 0.799953 0.546205 0.575361
C8    C     C_R   0.734772 0.504634 0.497704 0.584046
C9    C     C_2   0.931048 0.567669 0.374483 0.024274
C10   C     C_2   0.867194 0.502998 0.491302 -0.117529
C11   C     C_2   0.063543 0.543227 0.366187 -0.168298
C12   C     C_2   0.134816 0.527698 0.514584 -0.155879
Cu1   Cu    Cu3+1 0.513740 0.517380 0.684380 0.979559
Cu2   Cu    Cu3+1 0.486260 0.482620 0.315620 1.000641
H1    H     H_    0.912441 0.437433 0.581824 0.097497
H2    H     H_    0.246583 0.023876 0.241241 0.136729
H3    H     H_    0.263466 0.852736 0.339408 0.159588
H4    H     H_    0.104072 0.543874 0.236757 0.186833
H5    H     H_    0.099094 0.540640 0.649560 0.121804
H6    H     H_    0.532776 0.039135 0.705373 0.099962
H7    H     H_    0.404079 0.377618 0.948563 0.235981
H8    H     H_    0.595607 0.622721 0.051431 0.275658
H9    H     H_    0.875919 0.731691 0.010425 0.339894
H10   H     H_    0.457859 0.979748 0.137101 0.267831
H11   H     H_    0.264366 0.832373 0.093411 0.160649
N1    N     N_2   0.465540 0.456420 0.038510 -0.261282
N2    N     N_2   0.534460 0.543580 0.961490 -0.246998
N3    N     N_2   0.425974 0.941497 0.247905 -0.484395
O1    O     O_R   0.508930 0.286130 0.619780 -0.526202
O2    O     O_R   0.920560 0.660652 0.080411 -0.720339
O3    O     O_R   0.485720 0.256780 0.308360 -0.507251
O4    O     O_R   0.333540 0.514670 0.655670 -0.508690
O5    O     O_R   0.310330 0.485320 0.344250 -0.509166
O6    O     O_R   0.514280 0.743220 0.691640 -0.513850
O7    O     O_R   0.491070 0.713870 0.380220 -0.446929
O8    O     O_R   0.689670 0.514680 0.655750 -0.491108
O9    O     O_R   0.666460 0.485330 0.344330 -0.471123
O10   O     O_2   0.792560 0.750794 0.304648 -0.525041

loop_
_geom_bond_atom_site_label_1
_geom_bond_atom_site_label_2
_ccdc_geom_bond_type
C4    H2    S    
C3    O2    S    
C6    O4    A    
C11   C12   D    
C11   H4    S    
C3    C9    S    
C9    C10   D    
Cu1   O4    S    
C6    O5    A    
Cu2   O3    S    
H7    N1    S    
Cu2   O5    S    
C1    O1    A    
C4    H11   S    
Cu1   O6    S    
C5    H6    S    
Cu1   Cu2   S    
Cu2   N1    S    
Cu2   O9    S    
C9    C11   S    
N1    N2    D    
C4    H3    S    
C12   H5    S    
Cu1   O1    S    
C4    N3    S    
C10   H1    S    
C6    C12   S    
H8    N2    S    
C7    O6    A    
C2    C5    D    
C8    O9    A    
H9    O2    S    
C1    O3    A    
Cu1   O8    S    
C8    C10   S    
C1    C2    S    
C8    O8    A    
Cu2   O7    S    
C5    C7    S    
Cu1   N2    S    
C2    N3    S    
C7    O7    A    
H10   N3    S    
C3    O10   D    
