data_mof_unit_43837.cif
_audit_creation_date              2013-03-05T16:12:53-0500
_audit_creation_method            fapswitch 2.2
_symmetry_space_group_name_H-M    P1
_symmetry_Int_Tables_number       1
_space_group_crystal_system       triclinic
_cell_length_a                    10.504587
_cell_length_b                    9.810431
_cell_length_c                    27.637368
_cell_angle_alpha                 90.001339
_cell_angle_beta                  89.945157
_cell_angle_gamma                 90.136865
_cell_volume                      2848.14642634

loop_
_atom_site_label
_atom_site_type_symbol
_atom_site_description
_atom_site_fract_x
_atom_site_fract_y
_atom_site_fract_z
_atom_type_partial_charge
O1    O     O_R   0.316770 0.614620 0.500000 -0.600586
O2    O     O_R   0.683230 0.385380 0.500000 -0.607752
O3    O     O_R   0.683230 0.614620 0.500000 -0.611531
O4    O     O_R   0.316770 0.385380 0.500000 -0.604069
C1    C     C_R   0.263434 0.499914 0.489565 0.954085
C2    C     C_R   0.740257 0.500349 0.493029 0.872695
O5    O     O_R   0.500030 0.614650 0.428760 -0.629655
O6    O     O_R   0.499970 0.385350 0.571240 -0.624333
O7    O     O_R   0.499970 0.614650 0.571240 -0.624547
O8    O     O_R   0.500030 0.385350 0.428760 -0.627606
C3    C     C_R   0.499816 0.500119 0.405857 0.876155
C4    C     C_R   0.500066 0.500135 0.594145 0.901047
Zn1   Zn    Zn3+2 0.500000 0.653120 0.500000 0.984617
Zn2   Zn    Zn3+2 0.500000 0.346880 0.500000 0.985870
C5    C     C_R   0.382069 0.541139 0.177386 0.524289
C6    C     C_R   0.613784 0.542515 0.822711 0.519627
O9    O     O_2   0.273192 0.554801 0.202903 -0.532244
O10   O     O_2   0.722655 0.557092 0.797215 -0.540252
N1    N     N_R   0.493287 0.511832 0.200725 -0.360768
N2    N     N_R   0.502675 0.512343 0.799348 -0.361616
C7    C     C_R   0.605434 0.496133 0.176321 0.512001
C8    C     C_R   0.390526 0.495773 0.823720 0.513714
C9    C     C_R   0.504535 0.382396 0.276332 -0.090095
C10   C     C_R   0.493988 0.382573 0.723756 -0.088111
C11   C     C_R   0.506242 0.379386 0.326685 -0.190599
C12   C     C_R   0.493488 0.379409 0.673392 -0.207002
C13   C     C_R   0.487316 0.626217 0.328419 -0.176422
C14   C     C_R   0.508701 0.626624 0.671648 -0.199499
C15   C     C_R   0.485250 0.628794 0.278266 -0.104910
C16   C     C_R   0.509549 0.629354 0.721809 -0.097812
C17   C     C_R   0.493924 0.507176 0.252231 0.308800
C18   C     C_R   0.502238 0.507618 0.747848 0.312658
C19   C     C_R   0.495731 0.544048 0.101284 -0.052813
C20   C     C_R   0.500025 0.544439 0.898790 -0.052950
C21   C     C_R   0.381038 0.557585 0.127107 -0.017516
C22   C     C_R   0.614712 0.558909 0.872988 -0.014638
C23   C     C_R   0.269464 0.593345 0.102664 -0.219886
C24   C     C_R   0.726181 0.595486 0.897452 -0.221006
C25   C     C_R   0.608992 0.512284 0.126064 -0.020341
C26   C     C_R   0.386858 0.511869 0.873983 -0.021661
C27   C     C_R   0.497905 0.501525 0.353012 -0.027302
C28   C     C_R   0.500738 0.501648 0.647037 -0.046987
H1    H     H_    0.480456 0.721805 0.347831 0.168725
H2    H     H_    0.514473 0.722339 0.652244 0.155563
H3    H     H_    0.477439 0.725297 0.259485 0.143895
H4    H     H_    0.515577 0.726046 0.740592 0.140683
H5    H     H_    0.183141 0.614130 0.122891 0.189816
H6    H     H_    0.812470 0.616988 0.877240 0.189737
C29   C     C_R   0.381490 0.554975 0.974869 0.079903
C30   C     C_R   0.614203 0.555739 0.025205 0.079906
C31   C     C_R   0.614910 0.578952 0.974645 0.038251
C32   C     C_R   0.380732 0.577940 0.025449 0.038097
C33   C     C_R   0.498715 0.560673 0.949473 0.041009
C34   C     C_R   0.496974 0.560447 0.050608 0.041169
C35   C     C_R   0.270958 0.515130 0.949579 -0.133721
C36   C     C_R   0.724823 0.516590 0.050461 -0.133860
C37   C     C_R   0.273351 0.495204 0.899832 -0.130405
C38   C     C_R   0.722507 0.496505 0.100197 -0.129908
O11   O     O_2   0.282890 0.465948 0.799228 -0.541057
O12   O     O_2   0.713200 0.467183 0.200781 -0.544159
C39   C     C_R   0.268956 0.609583 0.052454 -0.041264
C40   C     C_R   0.726624 0.611571 0.947665 -0.042294
H7    H     H_    0.487153 0.281873 0.655188 0.155698
H8    H     H_    0.514499 0.282076 0.344904 0.160322
H9    H     H_    0.488279 0.288365 0.744065 0.142746
H10   H     H_    0.511342 0.288284 0.256036 0.145006
H11   H     H_    0.185966 0.465908 0.881784 0.190232
H12   H     H_    0.809968 0.467809 0.118223 0.190395
H13   H     H_    0.182587 0.493551 0.968131 0.136060
H14   H     H_    0.813220 0.495716 0.031890 0.135833
C41   C     C_R   0.068341 0.376819 0.462854 -0.042170
C42   C     C_R   0.937811 0.626956 0.469140 -0.097523
C43   C     C_R   0.935349 0.376948 0.465695 -0.085245
C44   C     C_R   0.069957 0.624911 0.464181 -0.037413
C45   C     C_R   0.872692 0.501469 0.476396 -0.210576
C46   C     C_R   0.133201 0.500287 0.471460 -0.102513
C47   C     C_R   0.533132 0.072068 0.540615 -0.029036
C48   C     C_R   0.468465 0.928011 0.459227 -0.066875
C49   C     C_R   0.468411 0.071860 0.459230 -0.064644
C50   C     C_R   0.533146 0.928109 0.540612 -0.027926
H15   H     H_    0.560007 0.126461 0.573066 0.130984
H16   H     H_    0.443787 0.873868 0.426524 0.171401
H17   H     H_    0.443593 0.125927 0.426538 0.172933
H18   H     H_    0.560089 0.873867 0.573049 0.130075
N3    N     N_R   0.500000 0.857200 0.500000 -0.087300
N4    N     N_R   0.500000 0.142800 0.500000 -0.086259
C51   C     C_2   0.155809 0.677715 0.031489 0.375809
H19   H     H_    0.063813 0.667708 0.049084 0.094428
O13   O     O_2   0.165412 0.751675 0.996127 -0.534998
C52   C     C_2   0.839629 0.680468 0.968667 0.375736
H20   H     H_    0.931603 0.671340 0.951030 0.096142
O14   O     O_2   0.829926 0.754077 0.004106 -0.534097
C53   C     C_2   0.138077 0.253548 0.446115 0.445412
H21   H     H_    0.112217 0.152734 0.458745 0.118176
O15   O     O_2   0.224400 0.264263 0.416732 -0.579739
C54   C     C_2   0.868713 0.757984 0.463732 0.440866
H22   H     H_    0.791893 0.766522 0.437666 0.074952
O16   O     O_2   0.893342 0.854636 0.489906 -0.528864
C55   C     C_2   0.861739 0.252030 0.453314 0.433787
H23   H     H_    0.782399 0.258774 0.428275 0.069158
O17   O     O_2   0.884698 0.143059 0.472642 -0.541407
C56   C     C_2   0.139798 0.748032 0.446830 0.438752
H24   H     H_    0.113059 0.849473 0.458517 0.112283
O18   O     O_2   0.226207 0.736565 0.417523 -0.581734

loop_
_geom_bond_atom_site_label_1
_geom_bond_atom_site_label_2
_geom_bond_distance
_ccdc_geom_bond_type
C16   C18   1.396288 A    
C51   H19   1.085661 S    
C53   H21   1.082752 S    
C13   C15   1.386511 A    
C50   H18   1.080819 S    
O3    C2    1.286742 A    
N1    C17   1.424227 S    
C2    C45   1.464761 S    
O5    C3    1.289603 A    
C19   C25   1.408900 A    
C44   C46   1.407391 A    
O1    C1    1.288679 A    
C9    H10   1.082788 S    
N1    C7    1.365929 A    
C10   C12   1.392275 A    
C32   C39   1.425529 A    
C41   C46   1.408658 A    
C43   C55   1.487550 S    
O7    Zn1   2.004737 S    
C4    C28   1.461894 S    
C39   C51   1.483333 S    
C13   C27   1.404138 A    
C54   O16   1.220022 D    
C23   H5    1.084569 S    
C24   H6    1.084569 S    
O3    Zn1   1.962349 S    
C6    N2    1.366220 A    
C44   C56   1.490728 S    
C53   O15   1.221029 D    
C43   C45   1.420013 A    
O2    C2    1.290221 A    
C31   C40   1.425499 A    
C37   H11   1.083350 S    
C42   C45   1.421068 A    
C5    C21   1.398962 A    
C32   C34   1.416542 A    
Zn2   N4    2.002113 S    
C7    O12   1.349879 S    
C42   C44   1.394952 A    
O8    Zn2   2.004743 S    
C11   C27   1.404706 A    
C8    O11   1.349844 S    
C41   C43   1.399161 A    
C48   C49   1.411226 A    
C29   C35   1.410264 A    
C25   C38   1.398632 A    
C14   H2    1.082910 S    
C30   C36   1.410223 A    
C15   H3    1.083030 S    
C31   C33   1.416525 A    
C11   H8    1.083016 S    
C9    C17   1.398394 A    
C5    N1    1.366284 A    
C12   H7    1.083007 S    
C10   C18   1.398329 A    
C50   N3    1.365478 A    
C48   H16   1.079833 S    
C52   O14   1.221191 D    
C55   H23   1.085918 S    
C7    C25   1.398448 A    
C47   H15   1.080983 S    
O6    C4    1.291806 A    
C29   C32   1.415933 A    
C8    C26   1.398585 A    
C54   H22   1.085634 S    
C30   C31   1.415801 A    
C30   C34   1.417782 A    
C56   O18   1.221337 D    
C35   H13   1.080549 S    
C10   H9    1.082831 S    
C48   N3    1.365269 A    
C38   H12   1.083357 S    
C55   O17   1.219785 D    
N2    C8    1.365857 A    
C47   N4    1.365505 A    
C36   H14   1.080568 S    
C35   C37   1.388909 A    
C20   C26   1.408927 A    
O1    Zn1   1.960579 S    
C12   C28   1.404991 A    
N2    C18   1.424100 S    
C47   C50   1.412298 A    
C19   C34   1.409807 A    
C5    O9    1.350014 S    
O6    Zn2   2.004720 S    
C26   C37   1.398643 A    
C21   C23   1.398793 A    
C16   H4    1.083081 S    
O4    C1    1.289562 A    
C23   C39   1.396798 A    
C41   C53   1.488855 S    
C1    C46   1.457140 S    
C22   C24   1.398739 A    
C14   C16   1.386607 A    
C15   C17   1.396406 A    
C6    C22   1.398840 A    
C49   H17   1.080178 S    
C52   H20   1.085624 S    
C29   C33   1.417798 A    
C40   C52   1.483356 S    
C14   C28   1.404452 A    
C19   C21   1.406284 A    
C36   C38   1.388805 A    
C3    C27   1.460734 S    
C20   C22   1.406275 A    
C9    C11   1.392058 A    
O4    Zn2   1.962349 S    
C56   H24   1.083866 S    
O2    Zn2   1.960579 S    
O7    C4    1.289528 A    
O8    C3    1.291679 A    
C42   C54   1.485334 S    
C13   H1    1.082881 S    
O5    Zn1   2.004726 S    
C20   C33   1.409811 A    
C6    O10   1.350026 S    
Zn1   N3    2.002113 S    
C51   O13   1.221185 D    
C49   N4    1.365152 A    
C24   C40   1.396711 A    
