data_mof_unit_26947.cif
_audit_creation_date              2012-12-11T15:33:48-0500
_audit_creation_method            fapswitch 2.2
_symmetry_space_group_name_H-M    P1
_symmetry_Int_Tables_number       1
_space_group_crystal_system       triclinic
_cell_length_a                    27.278558
_cell_length_b                    7.20027
_cell_length_c                    22.672229
_cell_angle_alpha                 90.000883
_cell_angle_beta                  100.85812
_cell_angle_gamma                 90.004266
_cell_volume                      4373.39442507

loop_
_atom_site_label
_atom_site_type_symbol
_atom_type_description
_atom_site_fract_x
_atom_site_fract_y
_atom_site_fract_z
_atom_type_partial_charge
O1    O     O_R   0.207310 0.594030 0.676830 -0.533721
O2    O     O_R   0.792690 0.405970 0.323170 -0.538818
O3    O     O_R   0.292690 0.094030 0.823170 -0.533700
O4    O     O_R   0.707310 0.905970 0.176830 -0.538879
O5    O     O_R   0.197320 0.262370 0.795700 -0.540385
O6    O     O_R   0.802680 0.737630 0.204300 -0.539721
O7    O     O_R   0.302680 0.762370 0.704300 -0.540384
O8    O     O_R   0.697320 0.237630 0.295700 -0.539687
C1    C     C_R   0.184609 0.432557 0.811860 0.671972
C2    C     C_R   0.815375 0.567447 0.188115 0.689204
C3    C     C_R   0.315391 0.932563 0.688140 0.671951
C4    C     C_R   0.684625 0.067441 0.311885 0.689105
O9    O     O_R   0.201410 0.264250 0.675590 -0.534491
O10   O     O_R   0.798590 0.735750 0.324410 -0.531926
O11   O     O_R   0.298590 0.764250 0.824410 -0.534497
O12   O     O_R   0.701410 0.235750 0.175590 -0.531811
O13   O     O_R   0.296810 0.094940 0.702210 -0.538339
O14   O     O_R   0.703190 0.905060 0.297790 -0.540896
O15   O     O_R   0.203190 0.594940 0.797790 -0.538329
O16   O     O_R   0.796810 0.405060 0.202210 -0.540869
C5    C     C_R   0.189825 0.432583 0.653589 0.706215
C6    C     C_R   0.810109 0.567401 0.346453 0.752920
C7    C     C_R   0.310174 0.932598 0.846410 0.706225
C8    C     C_R   0.689891 0.067385 0.153548 0.752822
O17   O     O_3   0.281300 0.427390 0.758870 -0.373404
O18   O     O_3   0.718700 0.572610 0.241130 -0.376395
O19   O     O_3   0.218700 0.927390 0.741130 -0.373420
O20   O     O_3   0.781300 0.072610 0.258870 -0.376416
V1    V     V_3+5 0.244190 0.152150 0.748350 1.403867
V2    V     V_3+5 0.755810 0.847850 0.251650 1.422314
V3    V     V_3+5 0.255810 0.652150 0.751650 1.403836
V4    V     V_3+5 0.744190 0.347850 0.248350 1.422509
C9    C     C_R   0.654236 0.061327 0.095852 -0.065287
C10   C     C_R   0.345933 0.938053 0.904063 -0.112963
C11   C     C_R   0.845768 0.561440 0.404149 -0.065391
C12   C     C_R   0.154065 0.437937 0.595935 -0.113042
C13   C     C_R   0.639035 0.130225 0.989291 0.223059
C14   C     C_R   0.361782 0.860039 0.010009 0.214090
C15   C     C_R   0.861051 0.631714 0.510620 0.223037
C16   C     C_R   0.138135 0.358623 0.490086 0.214054
C17   C     C_R   0.671955 0.103888 0.043780 -0.265744
C18   C     C_R   0.328698 0.886036 0.955642 -0.232537
C19   C     C_R   0.828098 0.604964 0.456179 -0.265683
C20   C     C_R   0.171250 0.385047 0.544406 -0.232453
C21   C     C_R   0.602719 0.032739 0.093699 0.139263
C22   C     C_R   0.397318 0.975250 0.906808 0.131429
C23   C     C_R   0.897263 0.532269 0.406313 0.139273
C24   C     C_R   0.102702 0.475627 0.593168 0.131434
C25   C     C_R   0.568640 0.035197 0.036712 -0.002170
C26   C     C_R   0.431458 0.969161 0.963475 0.041831
C27   C     C_R   0.931366 0.535235 0.463282 -0.002169
C28   C     C_R   0.068539 0.469055 0.536522 0.041833
C29   C     C_R   0.587292 0.102767 0.986173 0.087865
C30   C     C_R   0.413273 0.894556 0.013461 0.070394
C31   C     C_R   0.912775 0.603757 0.513744 0.087853
C32   C     C_R   0.086665 0.393559 0.486620 0.070395
C33   C     C_R   0.516780 0.980848 0.027622 0.063519
C34   C     C_R   0.483363 0.023876 0.972388 0.091437
C35   C     C_R   0.983200 0.480545 0.472414 0.063521
C36   C     C_R   0.016661 0.524101 0.527569 0.091434
C37   C     C_R   0.502833 0.125388 0.929041 -0.158070
C38   C     C_R   0.497822 0.875773 0.070418 -0.215913
C39   C     C_R   0.997263 0.626438 0.570792 -0.158043
C40   C     C_R   0.002088 0.374663 0.429747 -0.215891
C41   C     C_R   0.553725 0.152614 0.934002 -0.182337
C42   C     C_R   0.447137 0.844105 0.065316 -0.165422
C43   C     C_R   0.946388 0.654067 0.565828 -0.182328
C44   C     C_R   0.052756 0.342637 0.434856 -0.165436
H1    H     H_    0.566460 0.221458 0.897163 0.167885
H2    H     H_    0.434868 0.771302 0.101747 0.166631
H3    H     H_    0.933706 0.723595 0.602581 0.167890
H4    H     H_    0.064973 0.269181 0.398514 0.166632
H5    H     H_    0.289311 0.856911 0.952710 0.117449
H6    H     H_    0.711603 0.126690 0.046439 0.115466
H7    H     H_    0.210617 0.355533 0.547355 0.117487
H8    H     H_    0.788469 0.628226 0.453508 0.115495
H9    H     H_    0.479598 0.189347 0.890885 0.174730
H10   H     H_    0.521663 0.812805 0.108214 0.142690
H11   H     H_    0.020547 0.690751 0.608845 0.174714
H12   H     H_    0.978203 0.311332 0.392056 0.142697
C45   C     C_R   0.629331 0.881679 0.367365 -0.159146
C46   C     C_R   0.370736 0.118338 0.632738 -0.156349
C47   C     C_R   0.870673 0.381694 0.132645 -0.159039
C48   C     C_R   0.129259 0.618322 0.867250 -0.156280
H13   H     H_    0.644459 0.754069 0.352938 0.123803
H14   H     H_    0.355604 0.245944 0.647163 0.124288
H15   H     H_    0.855548 0.254083 0.147081 0.123791
H16   H     H_    0.144387 0.745930 0.852817 0.124289
C49   C     C_R   0.593431 0.868725 0.403904 -0.138439
C50   C     C_R   0.406657 0.131299 0.596227 -0.137228
C51   C     C_R   0.906572 0.368739 0.096106 -0.138450
C52   C     C_R   0.093338 0.631284 0.903761 -0.137228
H17   H     H_    0.582225 0.732042 0.416257 0.134079
H18   H     H_    0.417874 0.267983 0.583890 0.133832
H19   H     H_    0.917781 0.232055 0.083762 0.134071
H20   H     H_    0.082119 0.767970 0.916089 0.133825
C53   C     C_R   0.572503 0.029298 0.424350 0.019985
C54   C     C_R   0.427589 0.970728 0.575784 0.020179
C55   C     C_R   0.927497 0.529312 0.075649 0.019984
C56   C     C_R   0.072410 0.470714 0.924215 0.020178
C57   C     C_R   0.588383 0.203599 0.406820 -0.133274
C58   C     C_R   0.411699 0.796424 0.593300 -0.131285
C59   C     C_R   0.911614 0.703615 0.093169 -0.133255
C60   C     C_R   0.088303 0.296408 0.906710 -0.131277
H21   H     H_    0.573131 0.330495 0.421582 0.139252
H22   H     H_    0.426956 0.669530 0.578543 0.139192
H23   H     H_    0.926863 0.830510 0.078397 0.139256
H24   H     H_    0.073049 0.169515 0.921476 0.139197
C61   C     C_R   0.624378 0.216694 0.370141 -0.154943
C62   C     C_R   0.375683 0.783323 0.629950 -0.157829
C63   C     C_R   0.875619 0.716710 0.129848 -0.155007
C64   C     C_R   0.124320 0.283307 0.870060 -0.157864
H25   H     H_    0.635761 0.353250 0.357906 0.120147
H26   H     H_    0.364291 0.646765 0.642172 0.120680
H27   H     H_    0.864233 0.853266 0.142075 0.120130
H28   H     H_    0.135714 0.146749 0.857847 0.120676
C65   C     C_R   0.645534 0.055773 0.349991 -0.041943
C66   C     C_R   0.354513 0.944239 0.650082 -0.045142
C67   C     C_R   0.854466 0.555789 0.150009 -0.041901
C68   C     C_R   0.145485 0.444223 0.849917 -0.045153
N1    N     N_R   0.514298 0.168552 0.484067 -0.278464
N2    N     N_R   0.485804 0.831477 0.516080 -0.278415
N3    N     N_R   0.985699 0.668556 0.015920 -0.278461
N4    N     N_R   0.014198 0.331473 0.983930 -0.278412
N5    N     N_R   0.480542 0.154614 0.519460 -0.283699
N6    N     N_R   0.519560 0.845416 0.480687 -0.283842
N7    N     N_R   0.019455 0.654610 0.980527 -0.283705
N8    N     N_R   0.980442 0.345419 0.019323 -0.283847
C69   C     C_R   0.465500 0.985801 0.536320 0.514839
C70   C     C_R   0.534601 0.014228 0.463826 0.514754
C71   C     C_R   0.034499 0.485793 0.963679 0.514843
C72   C     C_R   0.965399 0.514236 0.036173 0.514757
N9    N     N_3   0.415027 0.994067 0.851399 -0.689804
H29   H     H_    0.396705 0.106213 0.827488 0.224215
H30   H     H_    0.406064 0.873442 0.825957 0.229622
N10   N     N_3   0.586199 0.038731 0.150246 -0.696417
H31   H     H_    0.551171 0.101257 0.146261 0.247466
H32   H     H_    0.587318 0.905695 0.168840 0.223704
N11   N     N_3   0.085022 0.495375 0.648564 -0.689789
H33   H     H_    0.103409 0.607671 0.672326 0.224415
H34   H     H_    0.093930 0.375015 0.674156 0.229489
N12   N     N_3   0.913761 0.537225 0.349744 -0.696523
H35   H     H_    0.948815 0.599495 0.353616 0.247438
H36   H     H_    0.912573 0.403913 0.331343 0.223855
N13   N     N_3   0.657954 0.187008 0.936970 -0.668638
H37   H     H_    0.653420 0.075071 0.907057 0.230943
H38   H     H_    0.696287 0.213570 0.947847 0.235129
N14   N     N_3   0.343325 0.795477 0.061809 -0.670703
H39   H     H_    0.346766 0.905146 0.092542 0.229377
H40   H     H_    0.305268 0.764160 0.050637 0.234288
N15   N     N_3   0.842189 0.689487 0.562878 -0.668658
H41   H     H_    0.846673 0.577957 0.592946 0.230942
H42   H     H_    0.803870 0.716291 0.551987 0.235116
N16   N     N_3   0.156536 0.293145 0.438355 -0.670722
H43   H     H_    0.153131 0.402398 0.407474 0.229373
H44   H     H_    0.194579 0.261645 0.449545 0.234272

loop_
_geom_bond_atom_site_label_1
_geom_bond_atom_site_label_2
_ccdc_geom_bond_type
O17   V3    S    
C55   C59   A    
O1    C5    A    
C15   N15   S    
N3    C72   A    
O19   V1    S    
C9    C21   A    
O3    C7    A    
C10   C18   A    
O1    V3    S    
N1    C70   A    
O15   V3    S    
C62   C66   A    
N13   H37   S    
C56   C71   S    
C61   C65   A    
C33   C38   A    
C5    C12   S    
C39   H11   S    
O7    C3    A    
C6    C11   S    
C23   N12   S    
C35   C40   A    
C26   C30   A    
C55   C72   S    
C36   C39   A    
C40   C44   A    
O2    V4    S    
O9    V1    S    
N14   H40   S    
C53   C70   S    
C14   C18   A    
O4    C8    A    
C25   C29   A    
N6    C70   A    
C57   C61   A    
C45   C65   A    
C60   H24   S    
C52   H20   S    
O13   V1    S    
C59   C63   A    
C47   C67   A    
O3    V1    S    
C2    C67   S    
C28   C36   A    
C17   H6    S    
C1    O15   A    
C56   C60   A    
C15   C31   A    
C37   H9    S    
C16   C32   A    
O2    C6    A    
N15   H41   S    
C58   H22   S    
C10   C22   A    
C11   C19   A    
C62   H26   S    
N2    C69   A    
N16   H44   S    
O8    C4    A    
N4    N8    A    
C45   C49   A    
C34   C37   A    
O11   C7    A    
C11   C23   A    
C35   C36   A    
O12   C8    A    
C13   C17   A    
C40   H12   S    
C16   N16   S    
O10   V2    S    
N8    C72   A    
N13   H38   S    
C45   H13   S    
C50   H18   S    
O5    V1    S    
C57   H21   S    
C39   C43   A    
O7    V3    S    
C38   C42   A    
C26   C34   A    
N14   H39   S    
N10   H32   S    
C2    O16   A    
C60   C64   A    
O18   V4    S    
C23   C27   A    
C27   C31   A    
C32   C44   A    
O4    V2    S    
N4    C71   A    
C49   C53   A    
C44   H4    S    
O8    V4    S    
N2    N6    A    
C20   H7    S    
O5    C1    A    
C37   C41   A    
C63   H27   S    
N3    N7    A    
C14   C30   A    
C21   C25   A    
C48   C68   A    
C7    C10   S    
O9    C5    A    
C14   N14   S    
N16   H43   S    
O14   V2    S    
C63   C67   A    
O6    V2    S    
C16   C20   A    
N1    N5    A    
N9    H29   S    
N12   H36   S    
C58   C62   A    
C27   C35   A    
C46   C66   A    
C64   H28   S    
C29   C41   A    
C52   C56   A    
C64   C68   A    
O16   V4    S    
C19   H8    S    
C3    O13   A    
C21   N10   S    
C24   N11   S    
C38   H10   S    
C48   H16   S    
N10   H31   S    
C47   H15   S    
O6    C2    A    
C25   C33   A    
C31   C43   A    
N11   H33   S    
O11   V3    S    
C30   C42   A    
C61   H25   S    
O12   V4    S    
C47   C51   A    
C22   C26   A    
C8    C9    S    
C46   C50   A    
C9    C17   A    
O10   C6    A    
O20   V2    S    
C13   C29   A    
C54   C58   A    
C22   N9    S    
C46   H14   S    
N11   H34   S    
C33   C34   A    
C42   H2    S    
C41   H1    S    
C54   C69   S    
C18   H5    S    
C12   C24   A    
C43   H3    S    
N15   H42   S    
C49   H17   S    
N7    C71   A    
C12   C20   A    
C51   H19   S    
C4    C65   S    
N5    C69   A    
C24   C28   A    
C15   C19   A    
C4    O14   A    
N9    H30   S    
C1    C68   S    
N12   H35   S    
C59   H23   S    
C48   C52   A    
C13   N13   S    
C51   C55   A    
C3    C66   S    
C50   C54   A    
C53   C57   A    
C28   C32   A    
