data_mof_unit_45120.cif
_audit_creation_date              2012-12-10T19:07:05-0500
_audit_creation_method            fapswitch 2.2
_symmetry_space_group_name_H-M    P1
_symmetry_Int_Tables_number       1
_space_group_crystal_system       triclinic
_cell_length_a                    27.811576
_cell_length_b                    10.885465
_cell_length_c                    9.562293
_cell_angle_alpha                 90.163171
_cell_angle_beta                  90.178595
_cell_angle_gamma                 90.535207
_cell_volume                      2894.75476313

loop_
_atom_site_label
_atom_site_type_symbol
_atom_type_description
_atom_site_fract_x
_atom_site_fract_y
_atom_site_fract_z
_atom_type_partial_charge
C1    C     C_R   0.500155 0.262213 0.499039 0.797801
C2    C     C_R   0.278621 0.493797 0.374099 -0.102518
C3    C     C_R   0.253553 0.499926 0.500621 0.310561
C4    C     C_R   0.101841 0.492515 0.497299 -0.045062
C5    C     C_R   0.127809 0.387502 0.535690 -0.018675
C6    C     C_R   0.102970 0.281934 0.577252 -0.166085
C7    C     C_R   0.127054 0.600617 0.461148 -0.020037
C8    C     C_R   0.354521 0.500369 0.499960 -0.048526
C9    C     C_R   0.644874 0.489864 0.496706 -0.119190
C10   C     C_R   0.974635 0.372570 0.508179 -0.055316
C11   C     C_R   0.974448 0.598320 0.480101 0.074567
C12   C     C_R   0.407490 0.500055 0.499851 0.816207
C13   C     C_R   0.949309 0.484906 0.494051 0.005278
C14   C     C_R   0.947889 0.259825 0.501450 0.458922
C15   C     C_R   0.897596 0.262717 0.484969 -0.249582
C16   C     C_R   0.872583 0.373180 0.487113 -0.087695
C17   C     C_R   0.898289 0.484403 0.492831 -0.050209
C18   C     C_R   0.872856 0.595560 0.495026 0.003677
C19   C     C_R   0.822462 0.593018 0.500463 0.537328
C20   C     C_R   0.822060 0.374810 0.480037 0.569218
C21   C     C_R   0.719979 0.405039 0.579503 -0.201632
C22   C     C_R   0.669468 0.401468 0.575872 0.437893
C23   C     C_R   0.499971 0.737349 0.500078 0.804572
C24   C     C_R   0.670540 0.566936 0.405992 -0.312911
C25   C     C_R   0.720473 0.561469 0.399973 -0.092205
C26   C     C_R   0.745824 0.483379 0.489939 0.274280
C27   C     C_R   0.025740 0.378191 0.525249 0.058434
C28   C     C_R   0.050734 0.489666 0.496090 0.063369
C29   C     C_R   0.025203 0.598809 0.467771 0.043236
C30   C     C_R   0.053048 0.278078 0.574493 -0.148052
C31   C     C_R   0.101434 0.705699 0.425122 -0.133968
C32   C     C_R   0.947838 0.708123 0.480147 -0.207877
C33   C     C_R   0.898126 0.706854 0.491248 -0.156064
C34   C     C_R   0.592288 0.496847 0.499676 0.831432
C35   C     C_R   0.051487 0.705198 0.428779 -0.212454
C36   C     C_R   0.490029 0.063738 0.618907 0.141565
C37   C     C_R   0.498155 0.128248 0.494832 -0.156817
C38   C     C_R   0.502432 0.060449 0.367871 -0.032216
C39   C     C_R   0.501045 0.932621 0.371065 -0.255759
C40   C     C_R   0.497501 0.870040 0.498391 -0.113902
C41   C     C_R   0.490197 0.936908 0.620784 0.135983
C42   C     C_3   0.517476 0.932859 0.755253 -0.489764
C43   C     C_3   0.516766 0.071950 0.754565 -0.414937
C44   C     C_R   0.519282 0.596823 0.074641 0.238440
C45   C     C_R   0.178243 0.391709 0.535276 0.553999
C46   C     C_R   0.473381 0.417087 0.074803 -0.071193
C47   C     C_R   0.472494 0.418260 0.926037 0.041480
C48   C     C_R   0.521621 0.593226 0.928278 0.193348
C49   C     C_3   0.572887 0.638517 0.931114 -0.293034
C50   C     C_3   0.568307 0.650690 0.089378 -0.532645
C51   C     C_R   0.177549 0.600947 0.462112 0.545677
C52   C     C_R   0.279051 0.507200 0.627738 0.017934
C53   C     C_R   0.329291 0.507104 0.626899 -0.229204
C54   C     C_R   0.328734 0.494074 0.373553 -0.208594
Cu1   Cu    Cu3+1 0.500000 0.499980 0.640670 0.981522
Cu2   Cu    Cu3+1 0.500000 0.500020 0.359330 0.956018
H1    H     H_    0.347224 0.488810 0.274237 0.163582
H2    H     H_    0.119910 0.789458 0.394664 0.191865
H3    H     H_    0.964677 0.796994 0.475598 0.124594
H4    H     H_    0.651906 0.631919 0.340135 0.164561
H5    H     H_    0.879508 0.793830 0.493062 0.177076
H6    H     H_    0.739494 0.620079 0.327018 0.171814
H7    H     H_    0.034370 0.788997 0.396614 0.147039
H8    H     H_    0.505673 0.882152 0.274105 0.165592
H9    H     H_    0.496010 0.891643 0.841364 0.208204
H10   H     H_    0.259131 0.488146 0.276033 0.156597
H11   H     H_    0.554196 0.895285 0.741977 0.186933
H12   H     H_    0.494492 0.110593 0.839838 0.223029
H13   H     H_    0.552968 0.114746 0.743621 0.208063
H14   H     H_    0.452448 0.349388 0.131518 0.148665
H15   H     H_    0.578616 0.727343 0.877004 0.144847
H16   H     H_    0.592893 0.591935 0.151197 0.222123
H17   H     H_    0.567113 0.747825 0.125318 0.180607
H18   H     H_    0.122029 0.201813 0.613971 0.192314
H19   H     H_    0.739149 0.346146 0.651165 0.164069
H20   H     H_    0.877747 0.177776 0.470882 0.192798
H21   H     H_    0.037074 0.196956 0.618424 0.186523
H22   H     H_    0.348605 0.512581 0.725423 0.163471
N1    N     N_R   0.201961 0.497447 0.498998 -0.470707
N2    N     N_R   0.797774 0.483654 0.490315 -0.447802
N3    N     N_R   0.500300 0.500930 0.147930 -0.184894
N4    N     N_R   0.500310 0.500890 0.852020 -0.211191
O1    O     O_R   0.500000 0.319640 0.618810 -0.562608
O2    O     O_2   0.797529 0.268338 0.461963 -0.559790
O3    O     O_2   0.202083 0.703966 0.427594 -0.524751
O4    O     O_2   0.798442 0.699227 0.517031 -0.551653
O5    O     O_R   0.500010 0.319680 0.381230 -0.580369
O6    O     O_R   0.430260 0.500000 0.618780 -0.582983
O7    O     O_R   0.430270 0.500040 0.381190 -0.588759
O8    O     O_R   0.499990 0.680320 0.618770 -0.587373
O9    O     O_R   0.500000 0.680360 0.381190 -0.585905
O10   O     O_R   0.569730 0.499960 0.618810 -0.548723
O11   O     O_R   0.569740 0.500000 0.381220 -0.593710
O12   O     O_2   0.203446 0.290984 0.570490 -0.523611
C55   C     C_1   0.254097 0.515704 0.759420 0.277639
N5    N     N_1   0.234056 0.522494 0.864999 -0.265636
C56   C     C_1   0.513153 0.115733 0.234150 0.268545
N6    N     N_1   0.522162 0.158718 0.126736 -0.306674
C57   C     C_1   0.440613 0.333573 0.855578 0.283978
N7    N     N_1   0.414590 0.265613 0.799880 -0.290163
C58   C     C_1   0.608917 0.545229 0.897837 0.368451
N8    N     N_1   0.637936 0.472380 0.876319 -0.230929
O13   O     O_3   0.643487 0.315886 0.652846 -0.596541
C59   C     C_3   0.653962 0.194386 0.609648 0.044317
H23   H     H_    0.637565 0.131450 0.687625 0.172734
H24   H     H_    0.693109 0.174557 0.610965 0.157988
C60   C     C_3   0.632379 0.165437 0.465044 -0.365090
H25   H     H_    0.595242 0.200919 0.459450 0.218830
H26   H     H_    0.653978 0.212061 0.382887 0.223488
C61   C     C_3   0.631383 0.027524 0.435795 -0.870194
H27   H     H_    0.668310 0.989795 0.441208 0.268858
H28   H     H_    0.616546 0.010209 0.329539 0.258347
H29   H     H_    0.608156 0.979534 0.513039 0.249219
O14   O     O_3   0.971863 0.148872 0.489921 -0.621307
C62   C     C_3   0.952507 0.054036 0.575436 0.016577
H30   H     H_    0.979221 0.979195 0.574028 0.173264
H31   H     H_    0.918999 0.014966 0.529340 0.147607
C63   C     C_3   0.945386 0.089942 0.730278 -0.405504
H32   H     H_    0.979295 0.128673 0.774068 0.219729
H33   H     H_    0.916897 0.160137 0.740447 0.222875
C64   C     C_3   0.930532 0.978305 0.816786 -0.845841
H34   H     H_    0.896302 0.938469 0.776127 0.261960
H35   H     H_    0.925201 0.006363 0.927351 0.262155
H36   H     H_    0.958912 0.907223 0.813113 0.255164

loop_
_geom_bond_atom_site_label_1
_geom_bond_atom_site_label_2
_ccdc_geom_bond_type
C10   C27   A    
C1    O5    A    
C21   C26   A    
C58   N8    T    
C41   C42   S    
C55   N5    T    
C34   O11   A    
Cu1   Cu2   S    
C19   O4    S    
C3    N1    S    
C51   O3    S    
C59   H24   S    
O14   C62   S    
Cu2   N3    S    
C39   H8    S    
Cu1   O10   S    
C31   H2    S    
C28   C29   A    
Cu1   O8    S    
C4    C7    A    
C51   N1    A    
C49   C58   S    
C5    C6    A    
C9    C22   A    
C42   H11   S    
C15   C16   A    
C56   N6    T    
C47   C57   S    
C52   C55   S    
C18   C19   A    
C47   N4    A    
Cu1   O6    S    
C50   H16   S    
C63   H32   S    
C64   H36   S    
C61   H27   S    
C30   H21   S    
Cu2   O9    S    
C43   H12   S    
C62   H31   S    
C23   C40   S    
C42   H9    S    
C60   H25   S    
C16   C20   A    
C15   H20   S    
C43   H13   S    
C21   C22   A    
C27   C30   A    
C60   H26   S    
C36   C41   A    
C38   C56   S    
C45   O12   S    
C59   H23   S    
C4    C28   A    
C6    H18   S    
C63   H33   S    
Cu2   O11   S    
C7    C31   A    
C20   N2    A    
C12   O7    A    
C24   C25   A    
C44   N3    A    
C10   C14   A    
C50   H17   S    
C8    C54   A    
C39   C40   A    
C12   O6    A    
C16   C17   A    
Cu2   O5    S    
C25   C26   A    
C14   O14   S    
C5    C45   A    
C26   N2    S    
C22   O13   S    
C63   C64   S    
C37   C38   A    
C46   N3    A    
C57   N7    T    
C8    C12   S    
C62   C63   S    
C17   C18   A    
C23   O8    A    
C45   N1    A    
Cu1   N4    S    
C61   H29   S    
C64   H34   S    
C33   H5    S    
C40   C41   A    
C6    C30   A    
C11   C32   A    
C20   O2    S    
C2    C54   A    
C9    C34   S    
C60   C61   S    
C31   C35   A    
C42   C43   S    
Cu1   O1    S    
O13   C59   S    
C64   H35   S    
C52   C53   A    
C44   C50   S    
Cu2   O7    S    
C46   C47   A    
C48   C49   S    
C4    C5    A    
C2    H10   S    
C10   C13   A    
C8    C53   A    
C3    C52   A    
C9    C24   A    
C1    C37   S    
C1    O1    A    
C29   C35   A    
C21   H19   S    
C13   C17   A    
C32   C33   A    
C2    C3    A    
C7    C51   A    
C11   C13   A    
C38   C39   A    
C48   N4    A    
C53   H22   S    
C23   O9    A    
C25   H6    S    
C19   N2    A    
C18   C33   A    
C61   H28   S    
C46   H14   S    
C44   C48   A    
C11   C29   A    
C36   C37   A    
C49   C50   S    
C49   H15   S    
C27   C28   A    
C14   C15   A    
C36   C43   S    
C35   H7    S    
C24   H4    S    
C32   H3    S    
C54   H1    S    
C59   C60   S    
C62   H30   S    
C34   O10   A    
