data_mof_unit_33229.cif
_audit_creation_date              2012-12-11T14:33:49-0500
_audit_creation_method            fapswitch 2.2
_symmetry_space_group_name_H-M    P1
_symmetry_Int_Tables_number       1
_space_group_crystal_system       triclinic
_cell_length_a                    14.025806
_cell_length_b                    14.096936
_cell_length_c                    27.289367
_cell_angle_alpha                 89.975303
_cell_angle_beta                  89.934879
_cell_angle_gamma                 120.36188
_cell_volume                      4655.65534545

loop_
_atom_site_label
_atom_site_type_symbol
_atom_type_description
_atom_site_fract_x
_atom_site_fract_y
_atom_site_fract_z
_atom_type_partial_charge
C1    C     C_R   0.235518 0.786031 0.569283 0.538493
C2    C     C_R   0.213479 0.449820 0.569477 0.541180
C3    C     C_R   0.550237 0.764216 0.569437 0.543551
C4    C     C_3   0.724061 0.787083 0.786872 -0.202566
C5    C     C_3   0.197873 0.960563 0.777179 -0.232864
C6    C     C_3   0.056352 0.277375 0.787619 -0.203340
C7    C     C_3   0.698099 0.766501 0.731416 0.021454
C8    C     C_3   0.225007 0.945254 0.723825 0.022609
C9    C     C_3   0.060941 0.303887 0.732146 0.021900
C10   C     C_1   0.699986 0.863794 0.862129 -0.067922
C11   C     C_1   0.117759 0.871894 0.854606 -0.068352
C12   C     C_1   0.160969 0.299331 0.861961 -0.067147
C13   C     C_1   0.613900 0.809727 0.660985 -0.048615
C14   C     C_1   0.187682 0.808897 0.659430 -0.014028
C15   C     C_1   0.190281 0.387230 0.661188 -0.052921
C16   C     C_1   0.591236 0.792164 0.618250 0.016236
C17   C     C_1   0.206583 0.800397 0.617386 0.024546
C18   C     C_1   0.198480 0.409631 0.618386 0.013295
C19   C     C_R   0.107336 0.223972 0.087516 0.556801
C20   C     C_R   0.776774 0.883323 0.087902 0.555526
C21   C     C_R   0.116896 0.893171 0.087829 0.567416
C22   C     C_R   0.107619 0.220637 0.951240 0.539923
C23   C     C_R   0.779612 0.886750 0.951180 0.539251
C24   C     C_R   0.092109 0.928296 0.943144 0.558065
C25   C     C_R   0.643829 0.903203 0.363848 -0.168749
C26   C     C_R   0.097226 0.736758 0.363573 -0.176259
C27   C     C_R   0.262883 0.363248 0.362555 -0.172041
C28   C     C_R   0.672858 0.918857 0.314222 0.010355
C29   C     C_R   0.080708 0.750649 0.314205 0.003479
C30   C     C_R   0.251760 0.337092 0.312627 0.005428
C31   C     C_R   0.706942 0.939381 0.212433 0.017767
C32   C     C_R   0.061151 0.765330 0.212432 0.019438
C33   C     C_R   0.238959 0.303199 0.210807 0.017295
C34   C     C_R   0.232074 0.789385 0.432210 0.546948
C35   C     C_R   0.210482 0.443453 0.431935 0.543739
C36   C     C_R   0.557216 0.767724 0.432287 0.559474
C37   C     C_R   0.718731 0.028483 0.240155 -0.123625
C38   C     C_R   0.974878 0.680525 0.239247 -0.116094
C39   C     C_R   0.318909 0.295274 0.238451 -0.115090
C40   C     C_R   0.699923 0.017595 0.290648 -0.119180
C41   C     C_R   0.985751 0.671850 0.289620 -0.130719
C42   C     C_R   0.326482 0.314187 0.288892 -0.122243
C43   C     C_R   0.727907 0.950173 0.162128 -0.159768
C44   C     C_R   0.050892 0.775138 0.162014 -0.161466
C45   C     C_R   0.227871 0.280502 0.160670 -0.161380
C46   C     C_R   0.718640 0.861562 0.134947 -0.001066
C47   C     C_R   0.138489 0.858864 0.135395 -0.003530
C48   C     C_R   0.145360 0.284992 0.133743 -0.001339
C49   C     C_R   0.649738 0.734222 0.362714 0.144586
C50   C     C_R   0.257944 0.921060 0.364912 0.152477
C51   C     C_R   0.085102 0.353978 0.360816 0.144353
C52   C     C_R   0.650853 0.734914 0.311130 0.032761
C53   C     C_R   0.255032 0.927538 0.313396 0.051918
C54   C     C_R   0.086381 0.354016 0.309391 0.049998
C55   C     C_R   0.667369 0.830887 0.287025 0.005601
C56   C     C_R   0.164529 0.841151 0.288158 0.003396
C57   C     C_R   0.167950 0.340446 0.285373 0.003745
C58   C     C_R   0.630489 0.641898 0.283213 0.131418
C59   C     C_R   0.342402 0.013443 0.286149 0.143003
C60   C     C_R   0.011013 0.370657 0.281501 0.148455
C61   C     C_R   0.629873 0.647865 0.232127 -0.102640
C62   C     C_R   0.340066 0.007293 0.234966 -0.108676
C63   C     C_R   0.017737 0.371443 0.230386 -0.109349
C64   C     C_R   0.660547 0.747144 0.208092 0.010672
C65   C     C_R   0.247601 0.926195 0.209884 0.012187
C66   C     C_R   0.088648 0.343614 0.206418 0.010170
C67   C     C_3   0.526667 0.780036 0.743585 -0.227227
C68   C     C_3   0.210817 0.763851 0.745647 -0.237607
C69   C     C_3   0.249313 0.472810 0.743677 -0.227968
C70   C     C_R   0.678742 0.839247 0.235817 0.022455
C71   C     C_R   0.157498 0.844748 0.236822 0.021591
C72   C     C_R   0.164968 0.328806 0.234172 0.021333
C73   C     C_R   0.674935 0.756593 0.156959 0.137390
C74   C     C_R   0.241709 0.926687 0.158404 0.139963
C75   C     C_R   0.083208 0.327924 0.155377 0.138937
C76   C     C_R   0.624621 0.806722 0.387368 0.010758
C77   C     C_R   0.190982 0.817978 0.388010 -0.001078
C78   C     C_R   0.182982 0.378766 0.386280 -0.005288
C79   C     C_3   0.709096 0.954019 0.726157 0.005566
C80   C     C_3   0.037558 0.766311 0.720715 -0.002120
C81   C     C_3   0.236195 0.289838 0.725348 0.008167
C82   C     C_3   0.732452 0.969738 0.783400 0.036808
C83   C     C_3   0.017758 0.778499 0.777129 0.038289
C84   C     C_3   0.229890 0.266231 0.782448 0.037489
C85   C     C_1   0.730364 0.872101 0.903924 -0.040624
C86   C     C_1   0.106258 0.896597 0.895359 -0.033112
C87   C     C_1   0.141239 0.269208 0.903854 -0.040195
C88   C     C_3   0.636570 0.827503 0.714094 0.033933
C89   C     C_3   0.165664 0.820246 0.711078 0.046370
C90   C     C_3   0.184165 0.363979 0.714196 0.033967
C91   C     C_3   0.549440 0.791261 0.799491 -0.219375
C92   C     C_3   0.199905 0.789454 0.800014 -0.224469
C93   C     C_3   0.239132 0.449449 0.799516 -0.218747
C94   C     C_3   0.675592 0.854488 0.809388 0.049474
C95   C     C_3   0.131884 0.848418 0.803659 0.052469
C96   C     C_3   0.173812 0.323861 0.809261 0.048390
Cr1   Cr    Cr6+3 0.164410 0.584450 0.499910 1.019714
Cr2   Cr    Cr6+3 0.415550 0.579960 0.499910 1.031575
Cr3   Cr    Cr6+3 0.420040 0.835590 0.499910 1.026971
Cr4   Cr    Cr6+3 0.155170 0.075460 0.019960 0.995514
Cr5   Cr    Cr6+3 0.924540 0.079710 0.019960 0.996013
Cr6   Cr    Cr6+3 0.920290 0.844830 0.019960 1.001950
H1    H     H_    0.508987 0.832998 0.817006 0.106501
H2    H     H_    0.161289 0.712467 0.821966 0.119762
H3    H     H_    0.322553 0.488239 0.816372 0.111489
H4    H     H_    0.471178 0.692422 0.734287 0.123259
H5    H     H_    0.298398 0.791426 0.737100 0.116031
H6    H     H_    0.218700 0.529831 0.734994 0.124420
H7    H     H_    0.511235 0.707741 0.816089 0.120328
H8    H     H_    0.283835 0.843134 0.815563 0.110356
H9    H     H_    0.195534 0.488436 0.816867 0.120715
H10   H     H_    0.815086 0.832397 0.791980 0.070078
H11   H     H_    0.148389 0.002092 0.776762 0.092266
H12   H     H_    0.007858 0.186614 0.792760 0.074735
H13   H     H_    0.757998 0.029259 0.144649 0.113605
H14   H     H_    0.973491 0.720803 0.143817 0.109335
H15   H     H_    0.278844 0.253208 0.143075 0.108265
H16   H     H_    0.632065 0.963458 0.383410 0.128489
H17   H     H_    0.040697 0.660407 0.381994 0.119673
H18   H     H_    0.335316 0.375546 0.382292 0.120919
H19   H     H_    0.740820 0.105948 0.222704 0.087734
H20   H     H_    0.900084 0.619680 0.221097 0.085960
H21   H     H_    0.376014 0.275270 0.221049 0.092202
H22   H     H_    0.707180 0.086439 0.311382 0.115532
H23   H     H_    0.919644 0.603883 0.309451 0.096944
H24   H     H_    0.390137 0.310087 0.309471 0.099815
H25   H     H_    0.605595 0.574133 0.211331 0.152338
H26   H     H_    0.409452 0.069927 0.214967 0.142517
H27   H     H_    0.966138 0.392827 0.209514 0.149656
H28   H     H_    0.481585 0.823100 0.733474 0.115449
H29   H     H_    0.164594 0.673383 0.740017 0.121407
H30   H     H_    0.337682 0.515430 0.733002 0.118959
H31   H     H_    0.823246 0.007545 0.789168 0.121316
H32   H     H_    0.973367 0.825071 0.780093 0.120771
H33   H     H_    0.175040 0.176256 0.788318 0.119712
H34   H     H_    0.777295 0.801993 0.711075 0.175059
H35   H     H_    0.191465 0.982958 0.698939 0.187898
H36   H     H_    0.015400 0.225532 0.711755 0.178500
H37   H     H_    0.690797 0.707656 0.806933 0.151418
H38   H     H_    0.275154 0.014881 0.797751 0.132426
H39   H     H_    0.012241 0.311943 0.808252 0.150689
O1    O     O_R   0.137150 0.468200 0.553200 -0.508969
O2    O     O_R   0.531800 0.668950 0.553200 -0.503199
O3    O     O_R   0.331050 0.862850 0.553200 -0.503101
O4    O     O_R   0.179100 0.982980 0.967000 -0.514463
O5    O     O_R   0.017020 0.196120 0.967000 -0.516611
O6    O     O_R   0.803880 0.820900 0.967000 -0.526001
O7    O     O_R   0.173970 0.688730 0.549930 -0.499755
O8    O     O_R   0.311270 0.485240 0.549930 -0.496188
O9    O     O_R   0.514760 0.826030 0.549930 -0.494992
O10   O     O_R   0.140110 0.470540 0.446010 -0.520745
O11   O     O_R   0.529460 0.669570 0.446010 -0.496004
O12   O     O_R   0.330430 0.859890 0.446010 -0.515734
O13   O     O_R   0.176710 0.690910 0.450560 -0.506087
O14   O     O_R   0.309090 0.485800 0.450560 -0.504730
O15   O     O_R   0.514200 0.823290 0.450560 -0.508565
O16   O     O_3   0.333333 0.666667 0.499990 -0.276661
O17   O     O_R   0.176750 0.985260 0.074180 -0.501320
O18   O     O_R   0.014740 0.191490 0.074180 -0.504110
O19   O     O_R   0.808510 0.823250 0.074180 -0.505000
O20   O     O_R   0.146100 0.172630 0.068980 -0.500404
O21   O     O_R   0.827370 0.973470 0.068980 -0.499153
O22   O     O_R   0.026530 0.853900 0.068980 -0.492583
O23   O     O_3   0.000000 0.000000 0.020040 -0.228933
O24   O     O_R   0.148270 0.170520 0.969620 -0.520734
O25   O     O_R   0.829480 0.977750 0.969620 -0.502895
O26   O     O_R   0.022250 0.851730 0.969620 -0.496074
N1    N     N_2   0.646511 0.661488 0.127790 -0.518023
H40   H     H_    0.615768 0.660334 0.093336 0.254949
C97   C     C_3   0.719264 0.616266 0.130191 -0.294546
H41   H     H_    0.762600 0.627954 0.094687 0.155637
H42   H     H_    0.669421 0.526675 0.137583 0.116134
H43   H     H_    0.781943 0.655441 0.159622 0.142449
N2    N     N_2   0.339403 0.990312 0.129596 -0.514350
H44   H     H_    0.342345 0.954746 0.097024 0.254749
C98   C     C_3   0.383951 0.108109 0.126450 -0.291580
H45   H     H_    0.375926 0.132032 0.088577 0.155180
H46   H     H_    0.473166 0.151405 0.135756 0.116324
H47   H     H_    0.341103 0.135335 0.152028 0.139428
N3    N     N_2   0.016020 0.355136 0.125837 -0.516966
H48   H     H_    0.046036 0.385020 0.091267 0.254984
C99   C     C_3   0.897099 0.282354 0.128199 -0.293643
H49   H     H_    0.865467 0.238768 0.092815 0.155179
H50   H     H_    0.856996 0.331674 0.135190 0.117287
H51   H     H_    0.873241 0.220467 0.157865 0.140193
N4    N     N_2   0.596331 0.539143 0.306519 -0.524801
H52   H     H_    0.517837 0.502090 0.321085 0.251937
C100  C     C_3   0.628775 0.465538 0.285391 -0.339090
H53   H     H_    0.619171 0.404265 0.313415 0.139221
H54   H     H_    0.716649 0.511937 0.273663 0.143994
H55   H     H_    0.575187 0.420726 0.253752 0.127796
N5    N     N_2   0.432572 0.104658 0.310186 -0.503994
H56   H     H_    0.412618 0.159137 0.325536 0.265880
C101  C     C_3   0.541277 0.156578 0.288175 -0.343043
H57   H     H_    0.604085 0.198972 0.317172 0.142693
H58   H     H_    0.549704 0.218162 0.260494 0.112134
H59   H     H_    0.556345 0.094382 0.270663 0.164526
N6    N     N_2   0.938036 0.399079 0.305066 -0.495208
H60   H     H_    0.976739 0.473723 0.322857 0.248383
C102  C     C_3   0.833244 0.368898 0.282477 -0.327326
H61   H     H_    0.778389 0.373895 0.310334 0.134054
H62   H     H_    0.793021 0.283320 0.268468 0.145864
H63   H     H_    0.844927 0.426373 0.252200 0.119137
N7    N     N_2   0.678795 0.666849 0.390591 -0.478687
H64   H     H_    0.619903 0.584767 0.393246 0.278908
C103  C     C_3   0.791161 0.690334 0.384539 -0.284041
H65   H     H_    0.804642 0.670732 0.346732 0.163796
H66   H     H_    0.807521 0.639826 0.410649 0.137007
H67   H     H_    0.850224 0.778505 0.392211 0.154070
N8    N     N_2   0.328086 0.016902 0.392864 -0.503300
H68   H     H_    0.404088 0.028061 0.402564 0.290180
C104  C     C_3   0.274408 0.049454 0.428899 -0.296242
H69   H     H_    0.334911 0.131742 0.443583 0.140504
H70   H     H_    0.242070 0.989887 0.459728 0.162537
H71   H     H_    0.205476 0.054800 0.411707 0.149741
N9    N     N_2   0.984360 0.323394 0.386086 -0.483732
H72   H     H_    0.975906 0.386595 0.400104 0.276840
C105  C     C_3   0.942185 0.227041 0.416983 -0.282556
H73   H     H_    0.858081 0.203709 0.429998 0.139859
H74   H     H_    0.996490 0.243913 0.449303 0.154028
H75   H     H_    0.936497 0.156935 0.395885 0.153761
C106  C     C_1   0.813917 0.002016 0.698562 0.135772
N10   N     N_1   0.894469 0.038275 0.675897 -0.270015
C107  C     C_1   0.991734 0.820268 0.690016 0.131399
N11   N     N_1   0.956893 0.862063 0.665160 -0.268773
C108  C     C_1   0.175134 0.185958 0.697758 0.131647
N12   N     N_1   0.126964 0.106504 0.674963 -0.280545
C109  C     C_1   0.654050 0.013434 0.707967 0.206865
N13   N     N_1   0.611379 0.059796 0.693474 -0.326308
C110  C     C_1   0.978452 0.650211 0.704202 0.198051
N14   N     N_1   0.932369 0.559992 0.690862 -0.334469
C111  C     C_1   0.350732 0.342379 0.706084 0.202556
N15   N     N_1   0.439621 0.382975 0.690596 -0.336942
N16   N     N_2   0.698055 0.043154 0.804713 -0.530051
H76   H     H_    0.614762 0.016460 0.804415 0.257603
C112  C     C_3   0.757005 0.109195 0.846870 -0.313619
H77   H     H_    0.751139 0.184806 0.847092 0.138867
H78   H     H_    0.845755 0.134258 0.845792 0.142690
H79   H     H_    0.719127 0.063216 0.881183 0.156033
N17   N     N_2   0.949650 0.671150 0.800604 -0.532563
H80   H     H_    0.979396 0.617598 0.799903 0.265467
C113  C     C_3   0.888132 0.663810 0.844516 -0.314976
H81   H     H_    0.810597 0.582823 0.845319 0.140453
H82   H     H_    0.866153 0.729083 0.845730 0.142524
H83   H     H_    0.937149 0.669971 0.877499 0.159464
N18   N     N_2   0.338643 0.298455 0.802910 -0.528934
H84   H     H_    0.397851 0.380731 0.801520 0.265234
C114  C     C_3   0.345334 0.240925 0.845592 -0.312818
H85   H     H_    0.422216 0.236892 0.843443 0.141011
H86   H     H_    0.274087 0.155716 0.847885 0.141641
H87   H     H_    0.348728 0.286210 0.879402 0.151308
N19   N     N_2   0.635173 0.648275 0.721863 -0.529719
H88   H     H_    0.578854 0.623174 0.693628 0.280517
C115  C     C_3   0.699931 0.594464 0.720269 -0.291994
H89   H     H_    0.644473 0.504079 0.721480 0.184325
H90   H     H_    0.756358 0.618382 0.752146 0.175185
H91   H     H_    0.749088 0.616757 0.685886 0.174138
N20   N     N_2   0.344192 0.999944 0.715887 -0.512957
H92   H     H_    0.386500 0.979478 0.740585 0.262122
C116  C     C_3   0.398211 0.117063 0.706644 -0.279494
H93   H     H_    0.487368 0.150425 0.699518 0.185752
H94   H     H_    0.389650 0.160234 0.738883 0.162111
H95   H     H_    0.362009 0.133525 0.673830 0.180562
N21   N     N_2   0.006468 0.367359 0.723196 -0.528818
H96   H     H_    0.037107 0.422123 0.694384 0.280291
C117  C     C_3   0.886722 0.303637 0.722964 -0.292504
H97   H     H_    0.852708 0.359419 0.724645 0.184310
H98   H     H_    0.854820 0.247919 0.755142 0.168755
H99   H     H_    0.857196 0.253990 0.688890 0.171901

loop_
_geom_bond_atom_site_label_1
_geom_bond_atom_site_label_2
_ccdc_geom_bond_type
C51   N9    S    
C15   C18   T    
C101  H58   S    
C9    N21   S    
C84   H33   S    
Cr6   O26   S    
C21   O22   A    
Cr2   O2    S    
C58   N4    S    
C33   C45   A    
C21   O17   A    
C14   C17   T    
C27   C78   A    
C92   H8    S    
C25   H16   S    
C6    C9    S    
C99   H49   S    
C53   C59   A    
C10   C85   T    
C54   C60   A    
C27   H18   S    
N3    H48   S    
C25   C28   A    
C67   C88   S    
C33   C39   A    
C31   C43   A    
C79   C106  S    
C100  H55   S    
C82   C94   S    
C44   H14   S    
C84   N18   S    
Cr5   O21   S    
N9    C105  S    
C74   N2    S    
C37   C40   A    
C69   C93   S    
C24   O4    A    
C116  H95   S    
C34   C77   S    
C19   O20   A    
C91   C94   S    
C103  H66   S    
C34   O12   A    
C101  H59   S    
C2    C18   S    
C97   H41   S    
C28   C40   A    
C11   C86   T    
C11   C95   S    
C30   C57   A    
C117  H98   S    
C39   H21   S    
C112  H77   S    
C100  H54   S    
C5    H11   S    
C84   C96   S    
C35   O10   A    
C80   C89   S    
N2    H44   S    
C6    H12   S    
C83   H32   S    
C115  H90   S    
C36   C76   S    
C33   C72   A    
C43   H13   S    
N18   H84   S    
C22   O24   A    
C28   C55   A    
C31   C70   A    
C66   C72   A    
C22   O5    A    
N3    C99   S    
C102  H61   S    
C59   C62   A    
C81   C111  S    
C113  H82   S    
C64   C73   A    
C104  H71   S    
N6    H60   S    
C68   H5    S    
C32   C38   A    
C39   C42   A    
C44   C47   A    
C12   C87   T    
C52   C55   A    
C60   N6    S    
C46   C73   A    
C93   H3    S    
C56   C71   A    
C58   C61   A    
C98   H46   S    
C101  H57   S    
C4    H10   S    
C63   C66   A    
C83   C95   S    
C26   C77   A    
C107  N11   T    
C27   C30   A    
N7    H64   S    
C48   C75   A    
C59   N5    S    
Cr5   O25   S    
N16   C112  S    
C80   C83   S    
N17   C113  S    
C79   C88   S    
C5    C95   S    
C69   H6    S    
C114  H86   S    
C68   C89   S    
C32   C71   A    
N2    C98   S    
C34   O13   A    
C32   C44   A    
C40   H22   S    
Cr3   O9    S    
N18   C114  S    
Cr5   O5    S    
C50   C53   A    
C81   C108  S    
Cr6   O22   S    
C113  H83   S    
C41   H23   S    
Cr3   O3    S    
C104  H70   S    
C24   O26   A    
C3    O2    A    
C26   H17   S    
C38   C41   A    
C116  H94   S    
Cr6   O19   S    
C42   H24   S    
C19   C48   S    
N21   H96   S    
Cr2   O11   S    
C45   C48   A    
C115  H91   S    
C4    C7    S    
C22   C87   S    
C23   O6    A    
C92   C95   S    
C65   C74   A    
C31   C37   A    
C80   C110  S    
Cr4   O24   S    
C99   H51   S    
Cr1   O16   S    
C10   C94   S    
C68   H29   S    
N20   C116  S    
C64   C70   A    
C100  H53   S    
C14   C89   S    
C115  H89   S    
Cr6   O6    S    
C80   C107  S    
C23   O25   A    
C9    H36   S    
C105  H74   S    
C7    C88   S    
Cr2   O16   S    
Cr4   O4    S    
C49   C52   A    
C20   O21   A    
Cr3   O15   S    
C67   C91   S    
C113  H81   S    
Cr1   O10   S    
C49   C76   A    
C61   H25   S    
C38   H20   S    
Cr1   O13   S    
N9    H72   S    
C6    H39   S    
C75   N3    S    
Cr5   O18   S    
Cr4   O20   S    
C52   C58   A    
C93   H9    S    
C37   H19   S    
C81   C90   S    
N21   C117  S    
C98   H45   S    
N7    C103  S    
N8    H68   S    
C93   C96   S    
C6    C96   S    
C60   C63   A    
C23   C85   S    
C2    O1    A    
Cr1   O7    S    
C73   N1    S    
C67   H28   S    
N16   H76   S    
N4    C100  S    
C69   C90   S    
C50   C77   A    
C79   C109  S    
C81   C84   S    
C114  H85   S    
C36   O15   A    
C5    H38   S    
N19   C115  S    
C12   C96   S    
C53   C56   A    
C45   H15   S    
C105  H75   S    
C110  N14   T    
Cr2   O14   S    
N1    H40   S    
C3    O9    A    
C62   C65   A    
C29   C41   A    
C103  H65   S    
C1    C17   S    
Cr5   O23   S    
C36   O11   A    
C47   C74   A    
C91   H1    S    
C116  H93   S    
C117  H99   S    
Cr4   O23   S    
C9    C90   S    
C79   C82   S    
C114  H87   S    
C67   H4    S    
C29   C56   A    
C83   N17   S    
C35   C78   S    
N8    C104  S    
C112  H79   S    
C102  H63   S    
C7    N19   S    
C51   C54   A    
C19   O18   A    
N5    H56   S    
C98   H47   S    
C82   H31   S    
C82   N16   S    
N20   H92   S    
C51   C78   A    
C7    H34   S    
C1    O3    A    
C65   C71   A    
C54   C57   A    
C15   C90   S    
C62   H26   S    
C103  H67   S    
C91   H7    S    
C105  H73   S    
C4    C94   S    
C97   H42   S    
C2    O8    A    
C69   H30   S    
Cr3   O16   S    
C66   C75   A    
Cr3   O12   S    
C13   C88   S    
N1    C97   S    
N17   H80   S    
C68   C92   S    
C112  H78   S    
C30   C42   A    
C63   H27   S    
C57   C72   A    
C8    N20   S    
C106  N10   T    
C43   C46   A    
C99   H50   S    
Cr1   O1    S    
C49   N7    S    
C55   C70   A    
C117  H97   S    
C92   H2    S    
C109  N13   T    
Cr4   O17   S    
C104  H69   S    
C50   N8    S    
C25   C76   A    
Cr6   O23   S    
C108  N12   T    
C20   O19   A    
C13   C16   T    
C61   C64   A    
C5    C8    S    
C8    H35   S    
C1    O7    A    
N6    C102  S    
C8    C89   S    
C26   C29   A    
C21   C47   S    
N4    H52   S    
C24   C86   S    
C97   H43   S    
C102  H62   S    
C20   C46   S    
C3    C16   S    
C35   O14   A    
C111  N15   T    
N19   H88   S    
C4    H37   S    
Cr2   O8    S    
N5    C101  S    
