data_mof_unit_58669.cif
_audit_creation_date              2012-10-26T20:18:37-0400
_audit_creation_method            fapswitch 2.2
_symmetry_space_group_name_H-M    P1
_symmetry_Int_Tables_number       1
_space_group_crystal_system       triclinic
_cell_length_a                    10.734126
_cell_length_b                    11.034237
_cell_length_c                    9.832345
_cell_angle_alpha                 111.282656
_cell_angle_beta                  98.43582
_cell_angle_gamma                 91.287489
_cell_volume                      1069.78055522

loop_
_atom_site_label
_atom_site_type_symbol
_atom_type_description
_atom_site_fract_x
_atom_site_fract_y
_atom_site_fract_z
_atom_type_partial_charge
C1    C     C_R   0.490515 0.253956 0.440263 0.550734
C2    C     C_2   0.489144 0.489490 0.918478 -0.024419
C3    C     C_R   0.259920 0.499449 0.500420 0.559190
C4    C     C_R   0.508743 0.746223 0.560021 0.605272
C5    C     C_R   0.739910 0.499787 0.498967 0.551575
C6    C     C_3   0.076234 0.394707 0.553093 -0.273915
C7    C     C_3   0.933233 0.398466 0.557873 -0.266512
C8    C     C_3   0.090405 0.637511 0.609927 -0.059081
C9    C     C_3   0.048995 0.472763 0.341478 -0.219356
C10   C     C_3   0.122148 0.502581 0.501099 0.002721
C11   C     C_2   0.156996 0.755157 0.596605 0.597753
C12   C     C_3   0.877679 0.502343 0.498593 0.004053
C13   C     C_2   0.887302 0.752068 0.565638 0.584327
C14   C     C_3   0.621914 0.006277 0.823131 -0.001608
C15   C     C_3   0.613207 0.111011 0.972625 -0.356496
C16   C     C_3   0.943818 0.639911 0.602075 -0.053354
C17   C     C_3   0.906286 0.465729 0.338917 -0.228145
C18   C     C_2   0.487810 0.114436 0.406299 -0.148760
C19   C     C_2   0.494317 0.070052 0.515890 -0.147567
C20   C     C_2   0.508937 0.886500 0.595983 0.275188
C21   C     C_2   0.501701 0.931835 0.486274 -0.133618
C22   C     C_2   0.511220 0.510124 0.081463 -0.029206
Cu1   Cu    Cu3+1 0.522160 0.521810 0.644910 0.964173
Cu2   Cu    Cu3+1 0.477840 0.478190 0.355090 0.943965
H1    H     H_    0.128218 0.408280 0.664912 0.130161
H2    H     H_    0.374491 0.377618 0.065063 0.208716
H3    H     H_    0.884481 0.300222 0.490351 0.128216
H4    H     H_    0.917791 0.421459 0.673829 0.137204
H5    H     H_    0.128804 0.641751 0.723577 0.104649
H6    H     H_    0.925664 0.655405 0.715896 0.105025
H7    H     H_    0.075615 0.547273 0.297405 0.206479
H8    H     H_    0.073580 0.377478 0.264550 0.123188
H9    H     H_    0.865177 0.364569 0.269876 0.115745
H10   H     H_    0.198723 0.851371 0.467298 0.341640
H11   H     H_    0.846883 0.839479 0.418199 0.331276
H12   H     H_    0.862105 0.529405 0.283651 0.185373
H13   H     H_    0.684929 0.047811 0.767458 0.151880
H14   H     H_    0.664382 0.921708 0.842551 0.185186
H15   H     H_    0.552353 0.072607 0.032476 0.174987
H16   H     H_    0.708907 0.141360 0.040440 0.097582
H17   H     H_    0.572349 0.197526 0.956844 0.159624
H18   H     H_    0.503362 0.866420 0.373039 0.115812
H19   H     H_    0.496895 0.136995 0.629299 0.193554
H20   H     H_    0.483092 0.048180 0.292159 0.108922
H21   H     H_    0.414663 0.417454 0.845101 0.147167
H22   H     H_    0.585695 0.582158 0.154877 0.153046
H23   H     H_    0.626165 0.621649 0.934720 0.205050
H24   H     H_    0.095421 0.297040 0.476185 0.132728
N1    N     N_2   0.444530 0.445420 0.137360 -0.355320
N2    N     N_2   0.555520 0.554510 0.862630 -0.350854
O1    O     O_R   0.511820 0.332340 0.577400 -0.504534
O2    O     O_R   0.148793 0.769601 0.460228 -0.674004
O3    O     O_2   0.840653 0.836130 0.659212 -0.571451
O4    O     O_R   0.888181 0.760435 0.427344 -0.684957
O5    O     O_3   0.499499 0.968476 0.738924 -0.542520
O6    O     O_R   0.474400 0.295500 0.332650 -0.492876
O7    O     O_R   0.336400 0.518400 0.622370 -0.500442
O8    O     O_R   0.298980 0.481560 0.377620 -0.490696
O9    O     O_R   0.525600 0.704500 0.667350 -0.458493
O10   O     O_R   0.488180 0.667660 0.422600 -0.520351
O11   O     O_R   0.701020 0.518440 0.622380 -0.504493
O12   O     O_R   0.663600 0.481600 0.377630 -0.505566
O13   O     O_2   0.219932 0.837196 0.706848 -0.483569

loop_
_geom_bond_atom_site_label_1
_geom_bond_atom_site_label_2
_ccdc_geom_bond_type
C12   C17   S    
C6    C10   S    
Cu1   Cu2   S    
C13   O3    D    
C2    C22   S    
C6    C7    S    
C17   H12   S    
C18   H20   S    
C14   H14   S    
C9    C10   S    
H10   O2    S    
Cu2   O10   S    
C4    O10   A    
C14   O5    S    
C5    O11   A    
C8    C16   S    
C3    C10   S    
H11   O4    S    
Cu1   O9    S    
C1    O1    A    
C7    H4    S    
C15   H15   S    
C1    C18   S    
C6    H24   S    
C8    C11   S    
C8    H5    S    
C3    O7    A    
C4    O9    A    
C17   H9    S    
C22   H22   S    
C1    O6    A    
C19   H19   S    
C5    O12   A    
C18   C19   D    
H23   N2    S    
C11   O13   D    
C20   O5    S    
C2    H21   S    
C7    C12   S    
C15   H16   S    
H2    N1    S    
C6    H1    S    
Cu2   O6    S    
C9    H7    S    
C16   H6    S    
C21   H18   S    
C4    C20   S    
C3    O8    A    
Cu1   O11   S    
C7    H3    S    
C20   C21   D    
C15   H17   S    
C5    C12   S    
Cu2   O8    S    
C13   O4    S    
C13   C16   S    
C9    C17   S    
Cu2   N1    S    
Cu1   O7    S    
C14   C15   S    
Cu1   N2    S    
Cu2   O12   S    
C11   O2    S    
C2    N2    D    
C9    H8    S    
C19   C21   S    
Cu1   O1    S    
C8    C10   S    
C22   N1    D    
C12   C16   S    
C14   H13   S    
