data_mof_unit_54799.cif
_audit_creation_date              2012-12-11T17:07:32-0500
_audit_creation_method            fapswitch 2.2
_symmetry_space_group_name_H-M    P1
_symmetry_Int_Tables_number       1
_space_group_crystal_system       triclinic
_cell_length_a                    6.954003
_cell_length_b                    14.738864
_cell_length_c                    15.905208
_cell_angle_alpha                 90.046634
_cell_angle_beta                  90.318467
_cell_angle_gamma                 90.006973
_cell_volume                      1630.16431543

loop_
_atom_site_label
_atom_site_type_symbol
_atom_type_description
_atom_site_fract_x
_atom_site_fract_y
_atom_site_fract_z
_atom_type_partial_charge
O1    O     O_R   0.505720 0.583900 0.413310 -0.522642
O2    O     O_R   0.175940 0.594920 0.586080 -0.544097
O3    O     O_R   0.005640 0.416100 0.586690 -0.542622
C1    C     C_R   0.345400 0.616467 0.615212 0.710616
O4    O     O_R   0.176000 0.594930 0.413930 -0.543564
O5    O     O_R   0.005700 0.416110 0.413310 -0.546160
C2    C     C_R   0.344869 0.617469 0.385568 0.742193
O6    O     O_R   0.505660 0.583890 0.586690 -0.534938
O7    O     O_3   0.339200 0.441330 0.500000 -0.376467
V1    V     V_3+5 0.064350 0.510880 0.500000 1.450829
O8    O     O_R   0.675980 0.405080 0.413920 -0.537982
C3    C     C_R   0.844602 0.383600 0.384798 0.712175
O9    O     O_R   0.675920 0.405070 0.586070 -0.542022
C4    C     C_R   0.845106 0.384250 0.615468 0.681696
V2    V     V_3+5 0.564340 0.489120 0.500000 1.466805
O10   O     O_3   0.839360 0.558670 0.500000 -0.353964
H1    H     H_    0.129701 0.103366 0.508591 0.151295
C5    C     C_R   0.688938 0.418563 0.781687 -0.165225
C6    C     C_R   0.628228 0.440632 0.862505 -0.121860
C7    C     C_R   0.657101 0.380049 0.928257 -0.057350
C8    C     C_R   0.741590 0.295940 0.913111 -0.103151
C9    C     C_R   0.800164 0.270860 0.831157 0.051994
C10   C     C_R   0.780736 0.335094 0.764812 0.074754
C11   C     C_R   0.872088 0.182746 0.814155 -0.159879
C12   C     C_R   0.920716 0.159476 0.729875 0.036411
C13   C     C_R   0.934838 0.228809 0.667903 0.048628
C14   C     C_R   0.856099 0.315656 0.683987 -0.161253
C15   C     C_R   0.944376 0.068446 0.702865 0.204106
C16   C     C_R   0.027849 0.049227 0.625227 -0.080264
C17   C     C_R   0.069440 0.118848 0.569570 -0.155800
C18   C     C_R   0.015256 0.207258 0.588727 -0.160067
H2    H     H_    0.661374 0.467085 0.732431 0.109487
H3    H     H_    0.559294 0.505255 0.874188 0.132254
H4    H     H_    0.611497 0.397762 0.991141 0.155213
H5    H     H_    0.758620 0.250806 0.966222 0.110735
H6    H     H_    0.033986 0.257528 0.540070 0.127016
C19   C     C_R   0.720409 0.193064 0.233616 0.110226
C20   C     C_R   0.878120 0.190765 0.178834 -0.194386
C21   C     C_R   0.015438 0.261888 0.186667 0.299201
C22   C     C_R   0.003132 0.324598 0.253682 -0.183545
H7    H     H_    0.112171 0.376731 0.259722 0.160894
C23   C     C_R   0.853422 0.319823 0.312934 -0.161508
C24   C     C_R   0.708148 0.256119 0.298599 0.079910
C25   C     C_3   0.625947 0.188557 0.358174 -0.417619
C26   C     C_3   0.639845 0.119289 0.287537 0.122514
H8    H     H_    0.476364 0.206171 0.376308 0.206630
H9    H     H_    0.724136 0.173807 0.411904 0.151307
H10   H     H_    0.744689 0.063910 0.300231 0.119705
C27   C     C_R   0.498200 0.676690 0.748475 0.083115
C28   C     C_R   0.354564 0.681501 0.686235 -0.090439
C29   C     C_R   0.207672 0.745925 0.698231 -0.157876
H11   H     H_    0.089830 0.750834 0.653748 0.147942
C30   C     C_R   0.218278 0.809087 0.764585 -0.161863
H12   H     H_    0.109604 0.860711 0.768724 0.171237
C31   C     C_R   0.374301 0.809556 0.821495 -0.068967
C32   C     C_R   0.505513 0.737593 0.815295 0.110821
C33   C     C_3   0.719496 0.734598 0.819531 -0.375017
C34   C     C_3   0.712541 0.672399 0.743266 -0.409157
H13   H     H_    0.771370 0.699839 0.877382 0.191889
H14   H     H_    0.789497 0.800159 0.807146 0.224601
H15   H     H_    0.773845 0.604829 0.757114 0.162946
C35   C     C_R   0.514500 0.689012 0.263230 0.042169
C36   C     C_R   0.354456 0.684245 0.315861 -0.074620
C37   C     C_R   0.205378 0.746159 0.300844 -0.128941
C38   C     C_R   0.216799 0.810677 0.235838 -0.053424
H16   H     H_    0.102968 0.860215 0.229345 0.147058
C39   C     C_R   0.377269 0.813860 0.182279 -0.103367
C40   C     C_R   0.522872 0.749803 0.195808 0.084468
C41   C     C_3   0.730807 0.767671 0.209593 0.037052
C42   C     C_3   0.717873 0.708441 0.287619 0.031053
H17   H     H_    0.763168 0.840319 0.222025 0.142525
H18   H     H_    0.810543 0.647026 0.286597 0.147492
O11   O     O_R   0.229140 0.916090 0.913340 -0.545784
O12   O     O_R   0.558860 0.905090 0.086080 -0.538062
O13   O     O_R   0.729100 0.083920 0.086690 -0.532180
C43   C     C_R   0.390044 0.883098 0.114905 0.756807
O14   O     O_R   0.558860 0.905090 0.913930 -0.523567
O15   O     O_R   0.729100 0.083920 0.913310 -0.527271
C44   C     C_R   0.389279 0.881361 0.886634 0.725392
O16   O     O_R   0.229140 0.916080 0.086720 -0.532054
O17   O     O_3   0.395570 0.058660 0.000020 -0.347733
V3    V     V_3+5 0.670450 0.989140 0.000000 1.564295
O18   O     O_R   0.058810 0.094980 0.913910 -0.536638
C45   C     C_R   0.889005 0.115377 0.883932 0.752856
O19   O     O_R   0.058810 0.094980 0.086060 -0.501424
C46   C     C_R   0.890052 0.118504 0.113705 0.742729
V4    V     V_3+5 0.170450 0.010950 0.999970 1.588836
O20   O     O_3   0.895460 0.941370 0.999990 -0.362966
Br1   Br    Br    0.389859 0.078395 0.248288 -0.547531
H19   H     H_    0.767169 0.704765 0.685027 0.201351
H20   H     H_    0.085895 0.747774 0.342839 0.179541
Br2   Br    Br    0.876249 0.712820 0.118698 -0.583041
Br3   Br    Br    0.727258 0.780133 0.391525 -0.573165
Br4   Br    Br    0.796510 0.972057 0.749383 -0.634191
H21   H     H_    0.047616 0.979567 0.605337 0.159293
Br5   Br    Br    0.221388 0.279084 0.108176 -0.536425

loop_
_geom_bond_atom_site_label_1
_geom_bond_atom_site_label_2
_ccdc_geom_bond_type
O18   V4    S    
V4    O20   S    
C6    C7    A    
C1    O6    A    
O17   V3    S    
C30   H12   S    
C12   C15   A    
C13   C14   A    
C35   C36   A    
O12   C43   A    
C20   C46   S    
C15   C16   A    
C19   C20   A    
O16   V4    S    
O5    C3    A    
C17   C18   A    
C33   H13   S    
V2    O10   S    
C32   C33   S    
C35   C42   S    
C15   Br4   S    
C5    C6    A    
C41   H17   S    
O11   V4    S    
C3    C23   S    
O8    V2    S    
C40   C41   S    
C38   C39   A    
O1    V2    S    
C10   C14   A    
C4    C14   S    
C41   Br2   S    
C26   Br1   S    
O7    V1    S    
C25   H9    S    
C7    H4    S    
C34   H15   S    
O14   C44   A    
C13   C18   A    
O9    C4    A    
H1    C17   S    
O12   V3    S    
C25   H8    S    
C30   C31   A    
O19   V4    S    
C5    C10   A    
C42   Br3   S    
C11   C12   A    
C6    H3    S    
C21   C22   A    
O4    C2    A    
C33   H14   S    
C12   C13   A    
O19   C46   A    
C27   C34   S    
C39   C40   A    
C1    C28   S    
C29   C30   A    
C19   C24   A    
O2    C1    A    
C24   C25   S    
C16   C17   A    
C31   C44   S    
O15   V3    S    
O13   C46   A    
O18   C45   A    
C31   C32   A    
C28   C29   A    
O11   C44   A    
C34   H19   S    
C2    C36   S    
O17   V4    S    
O3    C4    A    
C22   H7    S    
C38   H16   S    
O6    V2    S    
O9    V2    S    
C9    C11   A    
C5    H2    S    
C23   C24   A    
C19   C26   S    
O2    V1    S    
C25   C26   S    
C16   H21   S    
C26   H10   S    
O1    C2    A    
C9    C10   A    
C43   O16   A    
O5    V1    S    
O8    C3    A    
O13   V3    S    
C8    H5    S    
C27   C32   A    
C35   C40   A    
C37   C38   A    
O7    V2    S    
C29   H11   S    
O3    V1    S    
V1    O10   S    
C33   C34   S    
C20   C21   A    
O14   V3    S    
V3    O20   S    
C22   C23   A    
C11   C45   S    
C41   C42   S    
C21   Br5   S    
C36   C37   A    
O15   C45   A    
O4    V1    S    
C7    C8    A    
C27   C28   A    
C18   H6    S    
C42   H18   S    
C39   C43   S    
C37   H20   S    
C8    C9    A    
