data_mof_unit_28622.cif
_audit_creation_date              2012-12-10T19:59:26-0500
_audit_creation_method            fapswitch 2.2
_symmetry_space_group_name_H-M    P1
_symmetry_Int_Tables_number       1
_space_group_crystal_system       triclinic
_cell_length_a                    14.855451
_cell_length_b                    14.142491
_cell_length_c                    10.652847
_cell_angle_alpha                 91.341858
_cell_angle_beta                  90.393855
_cell_angle_gamma                 89.380762
_cell_volume                      2237.29595597

loop_
_atom_site_label
_atom_site_type_symbol
_atom_type_description
_atom_site_fract_x
_atom_site_fract_y
_atom_site_fract_z
_atom_type_partial_charge
C1    C     C_R   0.327161 0.500745 0.506253 0.965752
C2    C     C_R   0.563385 0.105712 0.571582 -0.404562
C3    C     C_R   0.434904 0.204586 0.434227 0.554067
C4    C     C_R   0.564243 0.205803 0.567685 0.508482
C5    C     C_R   0.499473 0.053420 0.502438 0.053136
C6    C     C_R   0.529581 0.895836 0.606760 -0.283382
C7    C     C_R   0.470792 0.893715 0.395434 -0.282563
C8    C     C_R   0.529593 0.796520 0.603497 0.023193
C9    C     C_R   0.470248 0.794520 0.397287 -0.024125
C10   C     C_R   0.500082 0.946651 0.501571 0.187891
C11   C     C_R   0.506715 0.497921 0.260000 0.910092
C12   C     C_R   0.672543 0.499743 0.502981 0.951245
C13   C     C_R   0.494882 0.500766 0.739991 0.954867
C14   C     C_R   0.562292 0.560934 0.062776 -0.117649
C15   C     C_R   0.549278 0.565796 0.936677 -0.091228
C16   C     C_R   0.521774 0.489163 0.128142 -0.336592
C17   C     C_R   0.497580 0.499320 0.872446 -0.286614
C18   C     C_R   0.490910 0.408061 0.060127 0.412292
C19   C     C_R   0.469232 0.417508 0.933385 0.365764
C20   C     C_3   0.553449 0.672035 0.940565 0.332362
C21   C     C_3   0.572730 0.665941 0.081583 0.255015
C22   C     C_R   0.085961 0.579681 0.534242 0.325309
C23   C     C_R   0.192813 0.419478 0.577717 -0.424688
C24   C     C_R   0.897945 0.545760 0.645093 0.373171
C25   C     C_R   0.179426 0.585533 0.524504 0.327254
C26   C     C_R   0.807285 0.558653 0.614424 0.343855
C27   C     C_R   0.231465 0.502052 0.533009 -0.273080
C28   C     C_R   0.768282 0.498882 0.522214 -0.264902
C29   C     C_3   0.559513 0.274182 0.129930 0.144991
C30   C     C_3   0.544847 0.167772 0.132140 -0.860380
C31   C     C_3   0.437144 0.269744 0.844780 0.235598
C32   C     C_3   0.374761 0.194813 0.894563 -0.876221
C33   C     C_3   0.391795 0.684590 0.947284 0.130405
C34   C     C_R   0.820380 0.433730 0.453441 -0.457230
C35   C     C_3   0.322108 0.763166 0.965247 -0.862473
C36   C     C_3   0.684156 0.673983 0.234221 0.184253
C37   C     C_3   0.781585 0.700173 0.259411 -0.890104
C38   C     C_3   0.025865 0.677467 0.385396 0.093757
C39   C     C_3   0.007277 0.782993 0.369401 -0.293036
C40   C     C_3   0.009794 0.809847 0.231527 -0.978126
C41   C     C_3   0.926826 0.549756 0.854164 0.119424
C42   C     C_3   0.971153 0.605313 0.962356 -0.335572
C43   C     C_3   0.073093 0.610688 0.946977 -0.835643
C44   C     C_3   0.223067 0.725587 0.612377 0.153182
C45   C     C_R   0.101518 0.417242 0.605681 0.503732
C46   C     C_3   0.254769 0.824742 0.584756 -0.810882
C47   C     C_3   0.776030 0.716995 0.633979 0.146979
C48   C     C_3   0.771841 0.789773 0.741287 -0.800789
C49   C     C_3   0.103977 0.317143 0.771812 0.104619
C50   C     C_3   0.044855 0.250891 0.844405 -0.871364
C51   C     C_3   0.977575 0.413916 0.279133 0.093280
C52   C     C_3   0.036847 0.350747 0.196245 -0.837193
C53   C     C_3   0.286074 0.223332 0.364580 0.096004
C54   C     C_3   0.260118 0.176824 0.238236 -0.356579
C55   C     C_3   0.172854 0.121584 0.247851 -0.959843
C56   C     C_R   0.912953 0.430466 0.471550 0.483829
C57   C     C_3   0.713739 0.227215 0.627973 0.098359
C58   C     C_3   0.747660 0.188243 0.752696 -0.384535
C59   C     C_3   0.839124 0.139653 0.736906 -0.947859
C60   C     C_R   0.047878 0.495079 0.574083 -0.048641
C61   C     C_R   0.951178 0.486064 0.568714 -0.079079
C62   C     C_R   0.435085 0.104226 0.433457 -0.428189
H1    H     H_    0.551360 0.932071 0.692030 0.145961
H2    H     H_    0.613328 0.069047 0.626815 0.160388
H3    H     H_    0.592358 0.296052 0.219764 0.163445
H4    H     H_    0.607696 0.287761 0.052434 0.083866
H5    H     H_    0.531874 0.139327 0.035939 0.236025
H6    H     H_    0.605944 0.132041 0.169636 0.211773
H7    H     H_    0.486773 0.151169 0.191916 0.278034
H8    H     H_    0.507623 0.255508 0.875750 0.133348
H9    H     H_    0.435739 0.262312 0.741109 0.161194
H10   H     H_    0.306084 0.204208 0.854723 0.241151
H11   H     H_    0.400410 0.123287 0.867103 0.207471
H12   H     H_    0.448718 0.928176 0.310842 0.144652
H13   H     H_    0.370885 0.200463 0.998290 0.293759
H14   H     H_    0.396803 0.646115 0.036811 0.128388
H15   H     H_    0.367075 0.635453 0.872213 0.153503
H16   H     H_    0.314160 0.803151 0.877362 0.258852
H17   H     H_    0.256234 0.732514 0.989907 0.207709
H18   H     H_    0.343744 0.812367 0.042197 0.255509
H19   H     H_    0.640532 0.717189 0.298360 0.154204
H20   H     H_    0.677288 0.597635 0.254439 0.141337
H21   H     H_    0.791106 0.776886 0.244741 0.265730
H22   H     H_    0.800011 0.683707 0.357642 0.197294
H23   H     H_    0.552884 0.758458 0.684275 0.168518
H24   H     H_    0.826440 0.658846 0.195132 0.246908
H25   H     H_    0.968681 0.637123 0.344228 0.109375
H26   H     H_    0.088075 0.657838 0.332237 0.161076
H27   H     H_    0.940121 0.801574 0.408808 0.206201
H28   H     H_    0.058831 0.824503 0.422032 0.236397
H29   H     H_    0.078050 0.796520 0.192541 0.268970
H30   H     H_    0.993252 0.886194 0.223121 0.270124
H31   H     H_    0.960037 0.768262 0.175916 0.265614
H32   H     H_    0.958530 0.477990 0.847151 0.124469
H33   H     H_    0.854208 0.542033 0.877033 0.131332
H34   H     H_    0.444814 0.755208 0.316827 0.139415
H35   H     H_    0.942119 0.678048 0.967394 0.228923
H36   H     H_    0.956437 0.570252 0.052155 0.151091
H37   H     H_    0.103445 0.538594 0.944624 0.234994
H38   H     H_    0.102377 0.651014 0.027766 0.231924
H39   H     H_    0.090073 0.647108 0.859109 0.277817
H40   H     H_    0.271778 0.692602 0.678612 0.137542
H41   H     H_    0.156287 0.732652 0.658853 0.163727
H42   H     H_    0.254986 0.868821 0.672361 0.199390
H43   H     H_    0.323869 0.821624 0.546961 0.272491
H44   H     H_    0.209331 0.858191 0.515142 0.245722
H45   H     H_    0.612081 0.696631 0.886935 0.147868
H46   H     H_    0.725133 0.736333 0.561862 0.146204
H47   H     H_    0.844006 0.722434 0.590658 0.159055
H48   H     H_    0.818047 0.768641 0.818342 0.278658
H49   H     H_    0.792378 0.859912 0.707216 0.198461
H50   H     H_    0.702374 0.796341 0.777718 0.230393
H51   H     H_    0.114067 0.382202 0.831277 0.130534
H52   H     H_    0.169936 0.281100 0.756322 0.151587
H53   H     H_    0.037115 0.183051 0.791099 0.266398
H54   H     H_    0.076569 0.236038 0.936688 0.219857
H55   H     H_    0.977650 0.283995 0.860524 0.253791
H56   H     H_    0.521965 0.702479 0.141898 0.093886
H57   H     H_    0.011765 0.483092 0.290821 0.114723
H58   H     H_    0.911869 0.424189 0.230015 0.130073
H59   H     H_    0.005194 0.280530 0.181715 0.258057
H60   H     H_    0.045622 0.383698 0.103536 0.206949
H61   H     H_    0.104029 0.341639 0.240918 0.259400
H62   H     H_    0.240980 0.285556 0.379665 0.171251
H63   H     H_    0.272784 0.175936 0.444548 0.118267
H64   H     H_    0.251506 0.232538 0.167089 0.235785
H65   H     H_    0.314308 0.127834 0.205217 0.219802
H66   H     H_    0.182715 0.060646 0.310634 0.266944
H67   H     H_    0.233638 0.356803 0.592336 0.190305
H68   H     H_    0.152675 0.094304 0.153316 0.266271
H69   H     H_    0.118023 0.167683 0.285683 0.284072
H70   H     H_    0.755464 0.289122 0.605684 0.184843
H71   H     H_    0.724798 0.174928 0.549250 0.125111
H72   H     H_    0.753562 0.247392 0.822788 0.218118
H73   H     H_    0.699136 0.136685 0.789463 0.220424
H74   H     H_    0.887310 0.188368 0.693332 0.293358
H75   H     H_    0.832601 0.075115 0.676184 0.262694
H76   H     H_    0.865672 0.118797 0.830048 0.266232
H77   H     H_    0.789636 0.387918 0.382665 0.183185
H78   H     H_    0.384949 0.065957 0.379683 0.163106
N1    N     N_R   0.500000 0.252470 0.500000 -0.166854
N2    N     N_R   0.500000 0.747550 0.500000 -0.106112
O1    O     O_R   0.369060 0.579480 0.500010 -0.577072
O2    O     O_3   0.403422 0.360724 0.878204 -0.620093
O3    O     O_3   0.474090 0.724780 0.909613 -0.630733
O4    O     O_3   0.662901 0.691398 0.107568 -0.621836
O5    O     O_3   0.032167 0.658870 0.515074 -0.623036
O6    O     O_3   0.936560 0.599044 0.741319 -0.580041
O7    O     O_3   0.218242 0.671517 0.499126 -0.583975
O8    O     O_3   0.756355 0.626018 0.679438 -0.598549
O9    O     O_3   0.062438 0.337760 0.655409 -0.586473
O10   O     O_3   0.966060 0.371440 0.396657 -0.573042
O11   O     O_3   0.375692 0.256513 0.360369 -0.576963
O12   O     O_R   0.630940 0.579480 0.499990 -0.628678
O13   O     O_3   0.623491 0.259126 0.640746 -0.627549
O14   O     O_R   0.369050 0.420520 0.500010 -0.599141
O15   O     O_R   0.630950 0.420520 0.499990 -0.604570
O16   O     O_R   0.499990 0.579490 0.316780 -0.668561
O17   O     O_R   0.500010 0.579490 0.683220 -0.619499
O18   O     O_R   0.499980 0.420540 0.316780 -0.554547
O19   O     O_R   0.500020 0.420540 0.683220 -0.592968
O20   O     O_3   0.475636 0.322415 0.116319 -0.554028
Zn1   Zn    Zn3+2 0.500000 0.606140 0.500000 0.947444
Zn2   Zn    Zn3+2 0.500000 0.393860 0.500000 1.006566

loop_
_geom_bond_atom_site_label_1
_geom_bond_atom_site_label_2
_ccdc_geom_bond_type
C7    C10   A    
C49   H51   S    
C45   C60   A    
C34   C56   A    
C19   O2    S    
C23   C45   A    
C55   H66   S    
C50   H55   S    
C41   C42   S    
C34   H77   S    
C57   H70   S    
C48   H48   S    
C3    N1    A    
C40   H31   S    
C30   H7    S    
C32   H13   S    
C32   H10   S    
C53   C54   S    
C58   H72   S    
C53   O11   S    
C57   O13   S    
C24   C61   A    
C12   C28   S    
O18   Zn2   S    
C14   C21   S    
C36   C37   S    
C43   H37   S    
C50   H53   S    
C42   H36   S    
C22   C60   A    
C38   C39   S    
C52   H61   S    
C59   H75   S    
C46   H43   S    
C59   H74   S    
C3    O11   S    
C23   H67   S    
C25   O7    S    
C8    H23   S    
C11   C16   S    
C31   O2    S    
C17   C19   A    
C52   H60   S    
C31   H8    S    
C41   H32   S    
C36   H20   S    
C22   C25   A    
C51   H57   S    
C37   H22   S    
C23   C27   A    
C12   O15   A    
C56   O10   S    
C29   C30   S    
C39   H28   S    
C50   H54   S    
C30   H5    S    
C20   H45   S    
C31   H9    S    
C49   H52   S    
C28   C34   A    
C57   H71   S    
O1    Zn1   S    
C44   H41   S    
C2    H2    S    
C11   O18   A    
C7    H12   S    
C15   C20   S    
C49   O9    S    
C51   C52   S    
O12   Zn1   S    
C26   O8    S    
C43   H38   S    
C24   O6    S    
C42   H35   S    
C12   O12   A    
C4    N1    A    
C44   H40   S    
C18   C19   A    
C6    C8    A    
C44   C46   S    
C59   H76   S    
C58   C59   S    
C47   H47   S    
C46   H42   S    
C38   H26   S    
C60   C61   S    
C45   O9    S    
C6    H1    S    
C1    O14   A    
C2    C4    A    
C43   H39   S    
C21   H56   S    
C1    O1    A    
C54   H64   S    
C52   H59   S    
C37   H24   S    
C33   H14   S    
C47   C48   S    
O15   Zn2   S    
C47   O8    S    
C36   H19   S    
C55   H68   S    
C4    O13   S    
C14   C15   A    
C51   H58   S    
C40   H30   S    
C9    H34   S    
C53   H63   S    
O16   Zn1   S    
C29   H3    S    
C36   O4    S    
C48   H50   S    
C51   O10   S    
C47   H46   S    
C55   H69   S    
O17   Zn1   S    
C2    C5    A    
C42   C43   S    
C32   H11   S    
O19   Zn2   S    
C3    C62   A    
C15   C17   A    
C54   C55   S    
C56   C61   A    
C29   O20   S    
C31   C32   S    
C24   C26   A    
C22   O5    S    
C53   H62   S    
C6    C10   A    
C9    N2    A    
C13   O19   A    
C58   H73   S    
C25   C27   A    
C54   H65   S    
C35   H16   S    
C26   C28   A    
C44   O7    S    
C13   C17   S    
C38   H25   S    
C21   O4    S    
C5    C10   S    
C18   O20   S    
C33   H15   S    
C57   C58   S    
C41   H33   S    
C41   O6    S    
C46   H44   S    
C35   H17   S    
C33   C35   S    
C13   O17   A    
C5    C62   A    
C14   C16   A    
N2    Zn1   S    
C40   H29   S    
C38   O5    S    
C29   H4    S    
C39   C40   S    
C7    C9    A    
C35   H18   S    
C48   H49   S    
C20   C21   S    
O14   Zn2   S    
N1    Zn2   S    
C16   C18   A    
C49   C50   S    
C1    C27   S    
C20   O3    S    
C37   H21   S    
C8    N2    A    
C62   H78   S    
C39   H27   S    
C30   H6    S    
C33   O3    S    
C11   O16   A    
