data_mof_unit_65515.cif
_audit_creation_date              2013-03-05T16:20:03-0500
_audit_creation_method            fapswitch 2.2
_symmetry_space_group_name_H-M    P1
_symmetry_Int_Tables_number       1
_space_group_crystal_system       triclinic
_cell_length_a                    25.867817
_cell_length_b                    34.527121
_cell_length_c                    21.636973
_cell_angle_alpha                 90.020184
_cell_angle_beta                  126.956428
_cell_angle_gamma                 89.952566
_cell_volume                      15442.3641623

loop_
_atom_site_label
_atom_site_type_symbol
_atom_site_description
_atom_site_fract_x
_atom_site_fract_y
_atom_site_fract_z
_atom_type_partial_charge
Zn1   Zn    Zn3+2 0.989110 0.282490 0.064980 1.103840
Zn2   Zn    Zn3+2 0.010890 0.717510 0.935020 1.094027
Zn3   Zn    Zn3+2 0.010890 0.282490 0.935020 1.101520
Zn4   Zn    Zn3+2 0.989110 0.717510 0.064980 1.094202
Zn5   Zn    Zn3+2 0.489110 0.782490 0.064980 1.096613
Zn6   Zn    Zn3+2 0.510890 0.217510 0.935020 1.116388
Zn7   Zn    Zn3+2 0.510890 0.782490 0.935020 1.096318
Zn8   Zn    Zn3+2 0.489110 0.217510 0.064980 1.106358
Zn9   Zn    Zn3+2 0.075880 0.217510 0.064980 1.106866
Zn10  Zn    Zn3+2 0.924120 0.782490 0.935020 1.113673
Zn11  Zn    Zn3+2 0.924120 0.217510 0.935020 1.093989
Zn12  Zn    Zn3+2 0.075880 0.782490 0.064980 1.114229
Zn13  Zn    Zn3+2 0.575880 0.717510 0.064980 1.106381
Zn14  Zn    Zn3+2 0.424120 0.282490 0.935020 1.106160
Zn15  Zn    Zn3+2 0.424120 0.717510 0.935020 1.107001
Zn16  Zn    Zn3+2 0.575880 0.282490 0.064980 1.110440
C1    C     C_R   0.998128 0.020809 0.000338 -0.156583
C2    C     C_R   0.998387 0.978205 0.000161 -0.180132
C3    C     C_R   0.500536 0.520311 0.000683 -0.180952
C4    C     C_R   0.500754 0.477760 0.000838 -0.163169
O1    O     O_3   0.000000 0.250000 0.000000 -0.574245
O2    O     O_3   1.000000 0.750000 0.000000 -0.575026
O3    O     O_3   0.500000 0.750000 0.000000 -0.579622
O4    O     O_3   0.500000 0.250000 0.000000 -0.579152
O5    O     O_R   0.093070 0.272740 0.954520 -0.592434
O6    O     O_R   0.906930 0.727260 0.045480 -0.596145
O7    O     O_R   0.906930 0.272740 0.045480 -0.590870
O8    O     O_R   0.093070 0.727260 0.954520 -0.596316
O9    O     O_R   0.593070 0.772740 0.954520 -0.580488
O10   O     O_R   0.406930 0.227260 0.045480 -0.583246
O11   O     O_R   0.406930 0.772740 0.045480 -0.580708
O12   O     O_R   0.593070 0.227260 0.954520 -0.592660
O13   O     O_R   0.117100 0.227270 0.173460 -0.564547
O14   O     O_R   0.882900 0.772730 0.826540 -0.615306
O15   O     O_R   0.882900 0.227270 0.826540 -0.606273
O16   O     O_R   0.117100 0.772730 0.173460 -0.615055
O17   O     O_R   0.617100 0.727270 0.173460 -0.582260
O18   O     O_R   0.382900 0.272730 0.826540 -0.575306
O19   O     O_R   0.382900 0.727270 0.826540 -0.582231
O20   O     O_R   0.617100 0.272730 0.173460 -0.586369
O21   O     O_R   0.053120 0.163270 0.045480 -0.630538
O22   O     O_R   0.946880 0.836730 0.954520 -0.581095
O23   O     O_R   0.946880 0.163270 0.954520 -0.579230
O24   O     O_R   0.053120 0.836730 0.045480 -0.579490
O25   O     O_R   0.553120 0.663270 0.045480 -0.591501
O26   O     O_R   0.446880 0.336730 0.954520 -0.633513
O27   O     O_R   0.446880 0.663270 0.954520 -0.589764
O28   O     O_R   0.553120 0.336730 0.045480 -0.581118
O29   O     O_R   0.007620 0.336730 0.954520 -0.609491
O30   O     O_R   0.992380 0.663270 0.045480 -0.625300
O31   O     O_R   0.992380 0.336730 0.045480 -0.634219
O32   O     O_R   0.007620 0.663270 0.954520 -0.625346
O33   O     O_R   0.507620 0.836730 0.954520 -0.624837
O34   O     O_R   0.492380 0.163270 0.045480 -0.619077
O35   O     O_R   0.492380 0.836730 0.045480 -0.624922
O36   O     O_R   0.507620 0.163270 0.954520 -0.619080
O37   O     O_R   0.056370 0.272740 0.173460 -0.575755
O38   O     O_R   0.943630 0.727260 0.826540 -0.572907
O39   O     O_R   0.943630 0.272740 0.826540 -0.580490
O40   O     O_R   0.056370 0.727260 0.173460 -0.572742
O41   O     O_R   0.556370 0.772740 0.173460 -0.568534
O42   O     O_R   0.443630 0.227260 0.826540 -0.569230
O43   O     O_R   0.443630 0.772740 0.826540 -0.568514
O44   O     O_R   0.556370 0.227260 0.173460 -0.573680
O45   O     O_R   0.138550 0.227260 0.045470 -0.628099
O46   O     O_R   0.861450 0.772740 0.954530 -0.629230
O47   O     O_R   0.861450 0.227260 0.954530 -0.636880
O48   O     O_R   0.138550 0.772740 0.045470 -0.629039
O49   O     O_R   0.638550 0.727260 0.045470 -0.625809
O50   O     O_R   0.361450 0.272740 0.954530 -0.631892
O51   O     O_R   0.361450 0.727260 0.954530 -0.625217
O52   O     O_R   0.638550 0.272740 0.045470 -0.621850
C5    C     C_R   0.140023 0.249883 0.000100 0.881302
C6    C     C_R   0.859689 0.749918 0.999405 0.882852
C7    C     C_R   0.859703 0.250095 0.999422 0.874146
C8    C     C_R   0.140301 0.749901 0.000581 0.882152
C9    C     C_R   0.640128 0.749996 0.000284 0.890125
C10   C     C_R   0.360096 0.250422 0.000271 0.896444
C11   C     C_R   0.359882 0.750012 0.999734 0.889842
C12   C     C_R   0.640107 0.249997 0.000242 0.890468
C13   C     C_R   0.105215 0.249944 0.210367 0.990061
C14   C     C_R   0.894853 0.749985 0.789908 0.970197
C15   C     C_R   0.894878 0.249999 0.789914 0.964296
C16   C     C_R   0.105134 0.749984 0.210076 0.969466
C17   C     C_R   0.605143 0.749779 0.210551 0.938367
C18   C     C_R   0.394808 0.250073 0.789630 0.990125
C19   C     C_R   0.394869 0.749782 0.789466 0.937300
C20   C     C_R   0.605154 0.250200 0.210529 0.933607
C21   C     C_R   0.000006 0.144785 0.999975 0.980416
C22   C     C_R   0.999941 0.854956 0.000117 1.035246
C23   C     C_R   0.500026 0.644646 0.000073 0.969472
C24   C     C_R   0.499989 0.354867 0.000114 1.040177
C25   C     C_R   0.000030 0.355117 0.000031 0.899279
C26   C     C_R   0.000015 0.644876 0.999998 0.884770
C27   C     C_R   0.499993 0.855124 0.000008 0.879214
C28   C     C_R   0.499996 0.144884 0.999991 0.897000
C29   C     C_R   0.035030 0.458145 0.979858 0.703024
C30   C     C_R   0.019561 0.541781 0.067049 0.706158
C31   C     C_R   0.965542 0.458263 0.020513 0.708679
C32   C     C_R   0.981044 0.541754 0.933252 0.706085
C33   C     C_R   0.480716 0.958233 0.933115 0.708172
C34   C     C_R   0.465069 0.041842 0.020164 0.704606
C35   C     C_R   0.519056 0.958238 0.066842 0.707705
C36   C     C_R   0.534758 0.041756 0.979793 0.707965
C37   C     C_R   0.034282 0.417802 0.979031 -0.209267
C38   C     C_R   0.018718 0.582122 0.066571 -0.225049
C39   C     C_R   0.966138 0.417923 0.021281 -0.233986
C40   C     C_R   0.981666 0.582097 0.933607 -0.225194
C41   C     C_R   0.481481 0.917891 0.933544 -0.227862
C42   C     C_R   0.465760 0.082185 0.020948 -0.212736
C43   C     C_R   0.518362 0.917895 0.066437 -0.227012
C44   C     C_R   0.534113 0.082097 0.978989 -0.224848
H1    H     H_    0.061382 0.402424 0.963342 0.239450
H2    H     H_    0.033767 0.597451 0.118645 0.234621
H3    H     H_    0.938990 0.402641 0.036956 0.228836
H4    H     H_    0.966542 0.597407 0.881491 0.234624
H5    H     H_    0.466476 0.902571 0.881479 0.227654
H6    H     H_    0.438562 0.097551 0.036509 0.240449
H7    H     H_    0.533394 0.902577 0.118510 0.227903
H8    H     H_    0.561326 0.097394 0.963423 0.234468
C45   C     C_R   0.000153 0.397501 0.000122 -0.214492
C46   C     C_R   0.000121 0.602480 0.000052 -0.210400
C47   C     C_R   0.499948 0.897521 0.999999 -0.202161
C48   C     C_R   0.499951 0.102502 0.999964 -0.217313
C49   C     C_R   0.000318 0.478674 0.000194 -0.140213
C50   C     C_R   0.000341 0.521298 0.000176 -0.139231
C51   C     C_R   0.499878 0.978705 0.999976 -0.138100
C52   C     C_R   0.499901 0.021329 0.999980 -0.142145
C53   C     C_R   0.715310 0.244989 0.737210 -0.251343
C54   C     C_R   0.285597 0.757203 0.263216 -0.252887
C55   C     C_R   0.105175 0.129610 0.905289 -0.209066
C56   C     C_R   0.714308 0.757613 0.736764 -0.252439
C57   C     C_R   0.198256 0.755909 0.727608 -0.174569
C58   C     C_R   0.800286 0.240941 0.271470 -0.183156
C59   C     C_R   0.801872 0.755495 0.272493 -0.174257
C60   C     C_R   0.360713 0.384032 0.063856 -0.166102
H9    H     H_    0.709352 0.222421 0.698660 0.244096
H10   H     H_    0.291569 0.780060 0.301279 0.244103
H11   H     H_    0.063600 0.120366 0.848825 0.264649
H12   H     H_    0.708323 0.780528 0.698811 0.244389
H13   H     H_    0.178499 0.736607 0.678831 0.270626
H14   H     H_    0.820185 0.259666 0.321069 0.269959
H15   H     H_    0.821646 0.736126 0.321183 0.270631
H16   H     H_    0.390981 0.401120 0.115977 0.254789
C61   C     C_R   0.725391 0.234743 0.806654 0.275082
C62   C     C_R   0.274952 0.766921 0.193228 0.273431
C63   C     C_R   0.133364 0.165763 0.912825 0.172467
C64   C     C_R   0.725006 0.767225 0.806831 0.273682
C65   C     C_R   0.209772 0.741951 0.796023 0.272247
C66   C     C_R   0.789803 0.255666 0.204081 0.273359
C67   C     C_R   0.790283 0.741626 0.203976 0.272439
C68   C     C_R   0.343845 0.346059 0.068968 0.209685
C69   C     C_R   0.732471 0.264605 0.856393 -0.151019
C70   C     C_R   0.267919 0.736670 0.144180 -0.152804
C71   C     C_R   0.188890 0.177313 0.986495 -0.157514
C72   C     C_R   0.732049 0.736901 0.855731 -0.152359
C73   C     C_R   0.233969 0.767863 0.858746 -0.156684
C74   C     C_R   0.765426 0.230469 0.140279 -0.156150
C75   C     C_R   0.766064 0.767626 0.141372 -0.156312
C76   C     C_R   0.303709 0.324020 0.000334 -0.158855
C77   C     C_R   0.730421 0.303512 0.836100 0.598414
C78   C     C_R   0.270516 0.697928 0.165648 0.597626
C79   C     C_R   0.212946 0.153265 0.050860 0.719849
C80   C     C_R   0.729412 0.698191 0.834045 0.597011
C81   C     C_R   0.249212 0.806104 0.852929 0.588192
C82   C     C_R   0.749147 0.192174 0.144118 0.579769
C83   C     C_R   0.750857 0.805862 0.147397 0.587707
C84   C     C_R   0.282880 0.340121 0.929089 0.704124
C85   C     C_R   0.720157 0.313030 0.766847 -0.238854
C86   C     C_R   0.281334 0.688943 0.235412 -0.241810
C87   C     C_R   0.184636 0.117325 0.042085 -0.234351
C88   C     C_R   0.718535 0.689312 0.764203 -0.241833
C89   C     C_R   0.239605 0.818955 0.785626 -0.268911
C90   C     C_R   0.757776 0.178580 0.210433 -0.271621
C91   C     C_R   0.760536 0.818625 0.214798 -0.268811
C92   C     C_R   0.301529 0.377426 0.925487 -0.229596
H17   H     H_    0.717860 0.343278 0.752242 0.242044
H18   H     H_    0.284067 0.658810 0.250918 0.241824
H19   H     H_    0.204967 0.099084 0.092453 0.247733
H20   H     H_    0.715768 0.659202 0.748527 0.241671
H21   H     H_    0.251585 0.848613 0.782798 0.237696
H22   H     H_    0.744914 0.148915 0.211665 0.236702
H23   H     H_    0.748594 0.848283 0.217795 0.237835
H24   H     H_    0.284521 0.389055 0.869741 0.245515
C93   C     C_R   0.711523 0.283938 0.716190 0.222659
C94   C     C_R   0.289987 0.718419 0.285429 0.223036
C95   C     C_R   0.131385 0.104774 0.969013 0.190509
C96   C     C_R   0.709865 0.718863 0.714326 0.223098
C97   C     C_R   0.213260 0.794211 0.721946 0.192894
C98   C     C_R   0.784114 0.202614 0.275088 0.192436
C99   C     C_R   0.786923 0.793795 0.278371 0.192683
C100  C     C_R   0.339795 0.399974 0.992534 0.197991
C101  C     C_R   0.187882 0.756979 0.930944 0.306899
C102  C     C_R   0.811971 0.242206 0.068756 0.301423
C103  C     C_R   0.812118 0.756877 0.069087 0.306685
C104  C     C_R   0.223733 0.285620 0.002792 0.311050
C105  C     C_R   0.687584 0.257304 0.930484 0.325476
C106  C     C_R   0.312574 0.743409 0.069792 0.325798
C107  C     C_R   0.275916 0.214952 0.997026 0.332101
C108  C     C_R   0.687429 0.743484 0.930192 0.325576
C109  C     C_R   0.196616 0.750504 0.000880 -0.168292
C110  C     C_R   0.803389 0.249463 0.999119 -0.170274
C111  C     C_R   0.803369 0.750543 0.999097 -0.168654
C112  C     C_R   0.196700 0.249969 0.001264 -0.169908
C113  C     C_R   0.696277 0.250382 0.000282 -0.148548
C114  C     C_R   0.303729 0.749608 0.999713 -0.148785
C115  C     C_R   0.303120 0.250584 0.998703 -0.153142
C116  C     C_R   0.696286 0.749562 0.000316 -0.149064
C117  C     C_R   0.258839 0.744510 0.070677 0.001498
C118  C     C_R   0.741309 0.256163 0.929569 0.003470
C119  C     C_R   0.741147 0.744629 0.929284 0.001427
C120  C     C_R   0.222152 0.214612 0.997723 0.005331
C121  C     C_R   0.758110 0.242653 0.069458 0.008182
C122  C     C_R   0.241714 0.756527 0.930217 0.008147
C123  C     C_R   0.276362 0.286056 0.999913 0.004052
C124  C     C_R   0.758301 0.756393 0.069835 0.008185
C125  C     C_R   0.798293 0.284797 0.584528 -0.123447
C126  C     C_R   0.202630 0.714982 0.415363 -0.121140
C127  C     C_R   0.164981 0.261894 0.416752 -0.202195
C128  C     C_R   0.797337 0.714967 0.584665 -0.121086
C129  C     C_R   0.327145 0.771038 0.582209 -0.161936
C130  C     C_R   0.672641 0.229195 0.417774 -0.157092
C131  C     C_R   0.672895 0.771106 0.417783 -0.161195
C132  C     C_R   0.307671 0.217642 0.583060 -0.194294
H25   H     H_    0.785772 0.312188 0.554273 0.253486
H26   H     H_    0.215764 0.687543 0.445559 0.253150
H27   H     H_    0.145665 0.270368 0.447419 0.248889
H28   H     H_    0.784176 0.687523 0.554494 0.253112
H29   H     H_    0.340703 0.787633 0.551508 0.258246
H30   H     H_    0.658736 0.212946 0.448475 0.259243
H31   H     H_    0.659359 0.787764 0.448474 0.258492
H32   H     H_    0.303722 0.191718 0.552253 0.249325
C133  C     C_R   0.838406 0.284834 0.664943 0.607484
C134  C     C_R   0.162437 0.714999 0.334942 0.607208
C135  C     C_R   0.124261 0.261721 0.336269 0.627409
C136  C     C_R   0.837520 0.714988 0.665084 0.606934
C137  C     C_R   0.367859 0.771344 0.662651 0.626970
C138  C     C_R   0.631876 0.228935 0.337336 0.626607
C139  C     C_R   0.632181 0.771414 0.337344 0.627149
C140  C     C_R   0.347783 0.217303 0.663526 0.616047
C141  C     C_R   0.852819 0.249923 0.705496 -0.434584
C142  C     C_R   0.147239 0.750004 0.294476 -0.430597
C143  C     C_R   0.147958 0.249996 0.295277 -0.433183
C144  C     C_R   0.852743 0.750004 0.705515 -0.430979
C145  C     C_R   0.352452 0.749198 0.704225 -0.419154
C146  C     C_R   0.647682 0.250703 0.295763 -0.415157
C147  C     C_R   0.647558 0.749190 0.295786 -0.419569
C148  C     C_R   0.352506 0.250344 0.704717 -0.426710
C149  C     C_R   0.827400 0.214957 0.664802 0.532133
C150  C     C_R   0.171902 0.785006 0.335219 0.523445
C151  C     C_R   0.213033 0.238534 0.336273 0.529484
C152  C     C_R   0.828121 0.785014 0.664748 0.523652
C153  C     C_R   0.295929 0.726369 0.663222 0.492362
C154  C     C_R   0.704737 0.273051 0.336757 0.490511
C155  C     C_R   0.704047 0.726281 0.336797 0.492375
C156  C     C_R   0.316616 0.283701 0.663916 0.538244
C157  C     C_R   0.788616 0.214855 0.584274 0.629527
C158  C     C_R   0.210770 0.785041 0.415758 0.632896
C159  C     C_R   0.253731 0.239036 0.416856 0.618001
C160  C     C_R   0.789272 0.785044 0.584210 0.633822
C161  C     C_R   0.254610 0.726917 0.582726 0.631559
C162  C     C_R   0.746133 0.272412 0.417247 0.632218
C163  C     C_R   0.745366 0.726823 0.417292 0.631601
C164  C     C_R   0.276870 0.283982 0.583322 0.614470
C165  C     C_R   0.773374 0.249893 0.543508 -0.120419
C166  C     C_R   0.226832 0.749914 0.456460 -0.118172
C167  C     C_R   0.229853 0.250718 0.457510 -0.139542
C168  C     C_R   0.773179 0.749905 0.543540 -0.118367
C169  C     C_R   0.269844 0.749390 0.541616 -0.124484
C170  C     C_R   0.730415 0.250380 0.458359 -0.123254
C171  C     C_R   0.730167 0.749378 0.458388 -0.124744
C172  C     C_R   0.272171 0.250898 0.542486 -0.139814
C173  C     C_R   0.041254 0.041007 0.069431 0.670278
C174  C     C_R   0.011112 0.958151 0.954295 0.677221
C175  C     C_R   0.955545 0.041118 0.931221 0.660597
C176  C     C_R   0.986278 0.957751 0.046151 0.647188
C177  C     C_R   0.554841 0.540646 0.060552 0.635475
C178  C     C_R   0.486389 0.457522 0.936062 0.657213
C179  C     C_R   0.446030 0.540494 0.940621 0.664461
C180  C     C_R   0.515298 0.457529 0.065734 0.679973
C181  C     C_R   0.041681 0.081526 0.070289 0.126602
C182  C     C_R   0.011799 0.917630 0.953818 0.113539
C183  C     C_R   0.956950 0.081610 0.930076 0.125114
C184  C     C_R   0.986908 0.917198 0.046929 0.127188
C185  C     C_R   0.554257 0.581034 0.062562 0.135550
C186  C     C_R   0.485062 0.417083 0.934815 0.123060
C187  C     C_R   0.446198 0.580882 0.938294 0.123977
C188  C     C_R   0.516034 0.417027 0.066799 0.105146
C189  C     C_R   0.999720 0.102156 0.000135 -0.435213
C190  C     C_R   0.999701 0.897127 0.000443 -0.395691
C191  C     C_R   0.500138 0.601790 0.000313 -0.423525
C192  C     C_R   0.500105 0.396871 0.000521 -0.417445
F1    F     F_    0.070611 0.477115 0.962264 -0.554738
F2    F     F_    0.040287 0.522765 0.133179 -0.555288
F3    F     F_    0.930018 0.477350 0.038118 -0.555644
F4    F     F_    0.960399 0.522711 0.867174 -0.554617
F5    F     F_    0.460109 0.977261 0.867039 -0.555480
F6    F     F_    0.429416 0.022857 0.037634 -0.552855
F7    F     F_    0.539638 0.977270 0.132909 -0.555040
F8    F     F_    0.570393 0.022683 0.962336 -0.552906
F9    F     F_    0.861219 0.319116 0.703017 -0.572476
F10   F     F_    0.140296 0.680706 0.296758 -0.578705
F11   F     F_    0.061426 0.272171 0.298751 -0.540490
F12   F     F_    0.859629 0.680692 0.703302 -0.578993
F13   F     F_    0.422567 0.793012 0.699272 -0.544555
F14   F     F_    0.576693 0.207723 0.300712 -0.544529
F15   F     F_    0.577506 0.793165 0.300710 -0.544341
F16   F     F_    0.380686 0.184346 0.700819 -0.562955
F17   F     F_    0.841814 0.180786 0.703026 -0.507541
F18   F     F_    0.156600 0.819250 0.297005 -0.528900
F19   F     F_    0.237832 0.227832 0.298524 -0.521395
F20   F     F_    0.843452 0.819265 0.702939 -0.528417
F21   F     F_    0.280078 0.703531 0.700585 -0.554593
F22   F     F_    0.721046 0.295485 0.299387 -0.562531
F23   F     F_    0.719862 0.703370 0.299440 -0.554597
F24   F     F_    0.321213 0.316392 0.701870 -0.521164
F25   F     F_    0.767262 0.180470 0.546312 -0.536535
F26   F     F_    0.231398 0.819428 0.453798 -0.540661
F27   F     F_    0.316851 0.229025 0.455164 -0.545029
F28   F     F_    0.768687 0.819433 0.546142 -0.539421
F29   F     F_    0.198748 0.706299 0.545134 -0.551927
F30   F     F_    0.802493 0.292519 0.454830 -0.555380
F31   F     F_    0.801197 0.706120 0.454897 -0.551908
F32   F     F_    0.244195 0.316861 0.545191 -0.546128
F33   F     F_    0.082594 0.021161 0.136351 -0.520276
F34   F     F_    0.025231 0.978140 0.912109 -0.496318
F35   F     F_    0.913958 0.021354 0.864291 -0.519629
F36   F     F_    0.971447 0.977407 0.088061 -0.528679
F37   F     F_    0.608273 0.521109 0.118252 -0.522197
F38   F     F_    0.476438 0.477220 0.875357 -0.528241
F39   F     F_    0.392878 0.520817 0.882912 -0.501395
F40   F     F_    0.525821 0.477350 0.126648 -0.516157
N1    N     N_R   0.083312 0.101270 0.143035 0.273964
O53   O     O_R   0.143344 0.090584 0.192333 -0.220603
O54   O     O_R   0.059460 0.126711 0.164010 -0.316963
N2    N     N_R   0.024371 0.897761 0.905535 0.263559
O55   O     O_R   0.063242 0.868128 0.931687 -0.306516
O56   O     O_R   0.000996 0.911129 0.837125 -0.169988
N3    N     N_R   0.917226 0.101357 0.857013 0.294587
O57   O     O_R   0.857196 0.091174 0.805994 -0.158273
O58   O     O_R   0.942986 0.126211 0.837625 -0.309911
N4    N     N_R   0.974933 0.896875 0.095317 0.263184
O59   O     O_R   0.937180 0.866754 0.069460 -0.310917
O60   O     O_R   0.997677 0.910261 0.163519 -0.173261
N5    N     N_R   0.608004 0.600311 0.129712 0.289620
O61   O     O_R   0.666680 0.593076 0.153407 -0.188328
O62   O     O_R   0.599230 0.619976 0.174044 -0.275217
N6    N     N_R   0.470141 0.396936 0.867552 0.269643
O63   O     O_R   0.503917 0.366962 0.874740 -0.324415
O64   O     O_R   0.425861 0.410289 0.798652 -0.168534
N7    N     N_R   0.392225 0.600002 0.871045 0.288724
O65   O     O_R   0.333656 0.592637 0.847544 -0.183054
O66   O     O_R   0.400706 0.619581 0.826403 -0.276635
N8    N     N_R   0.532084 0.396910 0.134748 0.259778
O67   O     O_R   0.502717 0.364992 0.128896 -0.425374
O68   O     O_R   0.574313 0.411466 0.203171 -0.184927
N9    N     N_R   0.697660 0.293840 0.643000 0.236892
O69   O     O_R   0.678122 0.267471 0.590241 -0.378693
O70   O     O_R   0.701612 0.329575 0.627092 -0.295141
N10   N     N_R   0.304501 0.709071 0.359174 0.233804
O71   O     O_R   0.323438 0.735891 0.410983 -0.384752
O72   O     O_R   0.301796 0.673415 0.376557 -0.302689
N11   N     N_R   0.104952 0.066662 0.959093 0.231593
O73   O     O_R   0.056325 0.054769 0.891001 -0.250735
O74   O     O_R   0.132046 0.042575 0.016921 -0.310107
N12   N     N_R   0.695274 0.709626 0.640495 0.233584
O75   O     O_R   0.676414 0.736536 0.588866 -0.384650
O76   O     O_R   0.697818 0.673987 0.622845 -0.303449
N13   N     N_R   0.201579 0.807936 0.651737 0.238099
O77   O     O_R   0.166632 0.787788 0.588302 -0.294620
O78   O     O_R   0.224468 0.841160 0.650107 -0.291823
N14   N     N_R   0.794537 0.188155 0.344183 0.238820
O79   O     O_R   0.828331 0.207950 0.408179 -0.301908
O80   O     O_R   0.771466 0.154671 0.344186 -0.287479
N15   N     N_R   0.798713 0.807435 0.348696 0.237885
O81   O     O_R   0.833845 0.787248 0.412077 -0.293894
O82   O     O_R   0.775764 0.840628 0.350491 -0.290647
N16   N     N_R   0.356455 0.439102 0.988083 0.228314
O83   O     O_R   0.383342 0.462038 0.047634 -0.281348
O84   O     O_R   0.342942 0.452566 0.923697 -0.288930
N17   N     N_R   0.728412 0.194260 0.825193 0.262261
O85   O     O_R   0.743710 0.168548 0.794666 -0.259562
O86   O     O_R   0.712569 0.182383 0.868810 -0.288105
N18   N     N_R   0.271367 0.807267 0.173494 0.264894
O87   O     O_R   0.256662 0.833280 0.204160 -0.266651
O88   O     O_R   0.286035 0.818745 0.128521 -0.278808
N19   N     N_R   0.105023 0.189966 0.845399 0.236782
O89   O     O_R   0.043522 0.187393 0.788971 -0.303349
O90   O     O_R   0.140780 0.212234 0.836704 -0.302509
N20   N     N_R   0.728625 0.807540 0.826789 0.264632
O91   O     O_R   0.743338 0.833599 0.796254 -0.267426
O92   O     O_R   0.713970 0.818951 0.871830 -0.279614
N21   N     N_R   0.196451 0.701860 0.800314 0.278589
O93   O     O_R   0.157614 0.681955 0.737298 -0.219764
O94   O     O_R   0.226607 0.684037 0.866457 -0.293640
N22   N     N_R   0.804319 0.295786 0.201939 0.277248
O95   O     O_R   0.842664 0.315059 0.265984 -0.225671
O96   O     O_R   0.775813 0.314255 0.136654 -0.299083
N23   N     N_R   0.803559 0.701538 0.199464 0.278459
O97   O     O_R   0.842406 0.681539 0.262370 -0.220252
O98   O     O_R   0.773353 0.683811 0.133227 -0.294961
N24   N     N_R   0.366805 0.330831 0.143504 0.257603
O99   O     O_R   0.383594 0.354246 0.199900 -0.254825
O100  O     O_R   0.376578 0.293880 0.157771 -0.322821
F41   F     F_    0.737699 0.332404 0.883347 -0.588317
F42   F     F_    0.263322 0.668672 0.119092 -0.588076
F43   F     F_    0.264599 0.164532 0.122321 -0.544535
F44   F     F_    0.736615 0.668865 0.880458 -0.589214
F45   F     F_    0.272727 0.831264 0.912521 -0.591866
F46   F     F_    0.725411 0.167704 0.083463 -0.602340
F47   F     F_    0.727320 0.831104 0.087920 -0.592417
F48   F     F_    0.242927 0.319861 0.862474 -0.565897
N25   N     N_R   0.125013 0.766834 0.862065 0.211153
O101  O     O_R   0.094168 0.796751 0.861602 -0.296455
O102  O     O_R   0.096485 0.744392 0.801741 -0.300309
N26   N     N_R   0.874631 0.231588 0.137185 0.216469
O103  O     O_R   0.905200 0.201981 0.136037 -0.327563
O104  O     O_R   0.903199 0.253000 0.198934 -0.267595
N27   N     N_R   0.874996 0.766603 0.138032 0.211060
O105  O     O_R   0.905846 0.796543 0.138725 -0.295884
O106  O     O_R   0.903531 0.744021 0.198168 -0.300356
N28   N     N_R   0.198803 0.321387 0.009431 0.213339
O107  O     O_R   0.177535 0.348282 0.957253 -0.315620
O108  O     O_R   0.196450 0.326868 0.067201 -0.351694
N29   N     N_R   0.624429 0.266385 0.861020 0.221414
O109  O     O_R   0.590502 0.294309 0.860801 -0.312546
O110  O     O_R   0.600460 0.246653 0.797972 -0.293274
N30   N     N_R   0.375906 0.735034 0.139603 0.225308
O111  O     O_R   0.410269 0.707000 0.141041 -0.341202
O112  O     O_R   0.399622 0.755545 0.201712 -0.280279
N31   N     N_R   0.299452 0.179299 0.987885 0.212912
O113  O     O_R   0.323663 0.152569 0.040770 -0.286355
O114  O     O_R   0.299460 0.174283 0.928286 -0.356756
N32   N     N_R   0.624098 0.735189 0.860350 0.225384
O115  O     O_R   0.589764 0.707138 0.858791 -0.342260
O116  O     O_R   0.600350 0.755794 0.798341 -0.280158

loop_
_geom_bond_atom_site_label_1
_geom_bond_atom_site_label_2
_geom_bond_distance
_ccdc_geom_bond_type
Zn6   O12   1.932112 S    
N9    O69   1.301470 A    
Zn7   O9    1.931551 S    
C53   C93   1.404093 A    
C106  C114  1.407247 A    
N29   O109  1.301309 A    
C3    C4    1.469164 S    
C174  C182  1.399264 A    
O19   C19   1.281791 A    
C111  C119  1.411030 A    
C56   C96   1.404173 A    
C57   C97   1.404505 A    
N1    O53   1.301154 A    
C74   C121  1.487463 S    
C61   N17   1.443362 S    
O23   C21   1.279460 A    
C79   F43   1.357824 S    
C60   C100  1.404730 A    
C100  N16   1.439117 S    
N22   O96   1.301196 A    
C44   C48   1.401484 A    
O38   C14   1.277570 A    
C54   C62   1.407255 A    
C6    C111  1.453024 S    
C101  C109  1.407094 A    
N14   O79   1.301350 A    
C92   H24   1.082422 S    
C109  C117  1.411074 A    
C106  C117  1.402085 A    
C10   C115  1.453718 S    
C83   F47   1.358020 S    
Zn2   O2    1.946564 S    
C104  C112  1.406726 A    
C63   C71   1.417910 A    
C53   C61   1.407078 A    
C134  C142  1.402861 A    
C29   C37   1.393027 A    
C114  C122  1.410937 A    
C184  C190  1.414475 A    
N25   O102  1.300268 A    
C42   H6    1.083496 S    
O7    C7    1.278280 A    
C60   C68   1.407356 A    
C7    C110  1.452989 S    
Zn6   O36   1.932903 S    
C82   C90   1.394313 A    
C82   F46   1.358077 S    
C157  C165  1.406706 A    
C161  F29   1.358132 S    
C125  C133  1.390398 A    
C44   H8    1.083396 S    
C104  C123  1.399803 A    
N4    O59   1.301005 A    
N20   O92   1.300915 A    
C76   C123  1.487442 S    
C145  C153  1.409925 A    
C69   C77   1.404419 A    
C165  C170  1.472328 S    
C131  C171  1.401100 A    
O12   C12   1.276366 A    
C167  C172  1.469293 S    
C155  F23   1.357580 S    
C36   C52   1.405712 A    
C23   C191  1.479720 S    
C112  C120  1.410297 A    
Zn2   O38   1.933622 S    
C137  C145  1.408802 A    
C68   N24   1.441696 S    
Zn1   O31   1.932904 S    
Zn15  O19   1.936588 S    
C103  C124  1.402036 A    
O41   C17   1.282816 A    
Zn16  O20   1.936592 S    
C26   C46   1.463812 S    
C155  C163  1.392061 A    
C152  F20   1.358186 S    
C156  C164  1.393637 A    
C184  N4    1.440585 S    
N17   O85   1.301671 A    
C29   F1    1.357758 S    
Zn7   O33   1.932479 S    
N19   O89   1.301590 A    
C54   H10   1.082463 S    
C31   C39   1.392908 A    
C152  C160  1.393155 A    
C91   H23   1.082481 S    
C153  C161  1.392066 A    
N23   O98   1.301070 A    
O26   C24   1.274397 A    
C41   C47   1.401655 A    
C25   C45   1.463384 S    
N2    O55   1.301037 A    
N18   O88   1.300913 A    
C1    C173  1.400365 A    
N15   O81   1.301323 A    
C187  C191  1.420686 A    
C159  F27   1.358101 S    
C99   N15   1.439380 S    
N21   O93   1.301586 A    
Zn9   O21   1.932469 S    
C30   C38   1.392956 A    
C65   N21   1.443186 S    
C71   C79   1.405010 A    
N26   O103  1.301188 A    
O20   C20   1.281698 A    
Zn11  O15   1.936588 S    
Zn8   O10   1.931546 S    
Zn12  O24   1.931813 S    
C131  C139  1.390840 A    
Zn13  O25   1.932469 S    
Zn9   O1    1.940898 S    
C183  N3    1.437434 S    
N6    O63   1.301472 A    
C126  C166  1.403006 A    
C75   C83   1.405457 A    
C76   C84   1.406093 A    
Zn9   O45   1.934804 S    
C20   C146  1.473828 S    
C66   N22   1.443545 S    
C162  F30   1.358120 S    
C103  C111  1.407161 A    
O29   C25   1.281817 A    
N16   O83   1.301437 A    
C157  F25   1.357965 S    
C126  H26   1.082956 S    
C179  C187  1.395527 A    
C55   C95   1.404245 A    
C174  F34   1.358159 S    
O21   C21   1.280196 A    
C140  C148  1.406860 A    
O49   C9    1.273726 A    
N27   O105  1.301033 A    
C40   H4    1.083371 S    
C90   H22   1.082482 S    
C102  C121  1.402519 A    
C185  N5    1.434887 S    
N31   O114  1.301191 A    
O24   C22   1.275628 A    
Zn12  O48   1.934285 S    
O18   C18   1.280465 A    
C181  N1    1.436755 S    
C153  F21   1.357579 S    
C4    C178  1.401497 A    
C34   C52   1.405718 A    
C63   N19   1.441528 S    
C69   C118  1.486284 S    
C138  F14   1.357632 S    
N23   O97   1.301574 A    
O46   C6    1.272599 A    
Zn12  O2    1.942202 S    
Zn13  O3    1.940898 S    
C101  N25   1.437633 S    
O17   C17   1.281169 A    
Zn14  O4    1.940898 S    
C156  F24   1.358222 S    
C182  C190  1.413270 A    
C55   C63   1.405286 A    
C160  C168  1.406848 A    
C35   C51   1.405628 A    
C161  C169  1.403935 A    
C106  N30   1.439845 S    
C140  F16   1.357809 S    
C77   C85   1.394848 A    
C59   H15   1.081990 S    
C133  F9    1.357906 S    
C72   C119  1.486196 S    
C87   H19   1.082455 S    
C85   H17   1.082427 S    
N10   O71   1.301469 A    
C1    C175  1.400078 A    
C19   C145  1.474000 S    
C2    C176  1.400951 A    
Zn10  O46   1.934804 S    
C32   C40   1.393009 A    
C108  C119  1.402059 A    
C143  C151  1.407423 A    
Zn14  O18   1.936608 S    
C127  C135  1.391581 A    
C37   C45   1.401676 A    
C73   C81   1.405454 A    
C36   C44   1.392962 A    
C8    C109  1.453030 S    
O30   C26   1.282110 A    
C176  C184  1.400277 A    
C62   N18   1.443625 S    
C177  C185  1.395486 A    
Zn11  O1    1.942206 S    
O22   C22   1.275174 A    
C67   C75   1.418706 A    
Zn1   O37   1.933626 S    
Zn4   O2    1.947403 S    
N31   O113  1.300542 A    
Zn5   O3    1.946561 S    
C36   F8    1.357758 S    
Zn6   O4    1.946564 S    
Zn4   O40   1.933839 S    
C1    C2    1.471021 S    
C53   H9    1.082510 S    
C132  C140  1.391336 A    
Zn7   O43   1.933836 S    
O31   C25   1.282147 A    
C21   C189  1.471907 S    
Zn8   O44   1.933839 S    
C164  F32   1.358070 S    
N28   O107  1.301019 A    
C80   C88   1.394757 A    
O47   C7    1.272529 A    
C158  C166  1.406827 A    
N30   O111  1.301292 A    
C83   C91   1.394399 A    
N24   O99   1.301495 A    
C27   C47   1.463842 S    
C84   C92   1.394302 A    
C64   N20   1.443611 S    
C70   C78   1.404425 A    
C95   N11   1.438764 S    
C4    C180  1.402185 A    
N19   O90   1.300964 A    
C166  C169  1.472455 S    
C34   F6    1.357760 S    
C35   C43   1.393018 A    
O48   C8    1.272600 A    
C185  C191  1.421017 A    
C186  C192  1.412326 A    
C102  N26   1.437908 S    
O52   C12   1.273845 A    
Zn13  O49   1.934804 S    
Zn7   O3    1.947401 S    
C33   C51   1.405627 A    
C188  N8    1.443116 S    
O5    C5    1.276433 A    
C55   H11   1.082360 S    
C89   H21   1.082482 S    
O9    C9    1.276165 A    
C130  H30   1.083188 S    
C108  C116  1.407300 A    
N8    O67   1.301254 A    
O28   C24   1.273362 A    
C17   C147  1.473892 S    
O14   C14   1.278436 A    
C158  F26   1.357955 S    
C125  H25   1.082961 S    
C2    C174  1.401623 A    
C3    C179  1.399370 A    
N25   O101  1.301066 A    
Zn10  O22   1.932469 S    
N29   O110  1.300991 A    
C105  C113  1.407243 A    
Zn16  O52   1.934285 S    
C32   F4    1.357757 S    
N32   O115  1.301291 A    
C41   H5    1.083357 S    
Zn14  O26   1.932469 S    
Zn10  O2    1.940898 S    
C35   F7    1.357754 S    
C73   C122  1.487447 S    
C127  C167  1.400852 A    
C188  C192  1.414183 A    
C71   C120  1.485967 S    
N27   O106  1.300265 A    
O39   C15   1.278441 A    
C31   F3    1.357764 S    
N4    O60   1.301313 A    
C96   N12   1.439090 S    
C33   C41   1.392969 A    
C102  C110  1.407205 A    
C177  F37   1.359505 S    
C175  C183  1.399204 A    
C128  H28   1.082953 S    
C139  C147  1.408783 A    
C107  C120  1.399951 A    
N12   O75   1.301469 A    
C105  C118  1.402280 A    
C151  C159  1.393400 A    
N7    O65   1.301091 A    
N11   O73   1.301386 A    
N5    O62   1.301394 A    
C79   C87   1.395125 A    
C88   H20   1.082418 S    
C113  C121  1.410952 A    
C164  C172  1.403819 A    
Zn9   O13   1.936612 S    
Zn14  O50   1.934804 S    
C135  F11   1.357866 S    
C136  F12   1.357932 S    
O51   C11   1.273769 A    
C163  C171  1.403955 A    
C131  H31   1.083193 S    
N1    O54   1.301431 A    
C43   C47   1.401676 A    
C142  C150  1.403192 A    
Zn3   O5    1.931551 S    
N22   O95   1.301795 A    
C29   C49   1.405728 A    
C179  F39   1.359313 S    
O15   C15   1.279057 A    
C180  F40   1.359367 S    
C146  C154  1.409855 A    
C182  N2    1.440609 S    
Zn4   O30   1.932480 S    
N26   O104  1.300294 A    
C38   C46   1.401645 A    
C180  C188  1.398541 A    
O33   C27   1.282102 A    
C58   H14   1.081884 S    
C16   C142  1.459304 S    
O42   C18   1.280325 A    
N3    O57   1.301147 A    
C78   C86   1.394765 A    
C86   C94   1.401916 A    
C115  C123  1.414261 A    
C134  F10   1.357931 S    
C141  C149  1.403417 A    
C77   F41   1.357883 S    
C59   C99   1.404500 A    
C90   C98   1.401393 A    
N2    O56   1.301321 A    
C3    C177  1.399050 A    
C125  C165  1.402939 A    
C24   C192  1.450285 S    
C49   C50   1.471681 S    
C32   C50   1.405637 A    
C34   C42   1.392999 A    
C39   C45   1.401471 A    
N16   O84   1.301456 A    
C51   C52   1.471691 S    
O8    C8    1.278277 A    
C74   C82   1.405545 A    
C149  F17   1.357987 S    
C37   H1    1.083504 S    
O36   C28   1.282111 A    
C84   F48   1.358042 S    
C18   C148  1.468203 S    
C66   C74   1.419002 A    
O27   C23   1.282430 A    
C149  C157  1.393034 A    
C104  N28   1.439255 S    
Zn4   O6    1.931546 S    
N7    O66   1.301386 A    
C98   N14   1.439638 S    
N20   O91   1.301626 A    
N30   O112  1.300990 A    
C108  N32   1.439853 S    
C56   H12   1.082461 S    
Zn15  O51   1.934285 S    
C15   C141  1.459627 S    
C57   H13   1.081981 S    
C173  C181  1.399058 A    
Zn6   O42   1.933622 S    
C60   H16   1.082375 S    
C139  F15   1.357673 S    
C136  C144  1.402831 A    
C22   C190  1.456081 S    
C59   C67   1.407950 A    
C39   H3    1.083376 S    
C97   N13   1.439411 S    
O25   C23   1.282018 A    
C159  C167  1.403776 A    
C163  F31   1.358131 S    
C30   C50   1.405644 A    
C129  H29   1.083193 S    
N17   O86   1.300927 A    
C176  F36   1.359225 S    
C64   C72   1.420406 A    
C127  H27   1.083418 S    
C65   C73   1.418717 A    
O44   C20   1.283488 A    
C86   H18   1.082421 S    
C147  C155  1.409883 A    
C68   C76   1.417352 A    
Zn1   O1    1.946561 S    
O50   C10   1.271508 A    
Zn2   O8    1.932112 S    
C175  F35   1.359188 S    
Zn15  O27   1.931812 S    
N18   O87   1.301626 A    
Zn16  O28   1.931813 S    
N10   O72   1.301557 A    
Zn3   O29   1.932479 S    
C101  C122  1.402096 A    
C31   C49   1.405693 A    
C183  C189  1.417431 A    
C33   F5    1.357759 S    
N21   O94   1.301076 A    
C67   N23   1.443176 S    
C38   H2    1.083375 S    
C43   H7    1.083355 S    
C88   C96   1.401917 A    
C70   C117  1.486201 S    
C132  H32   1.083420 S    
C91   C99   1.401370 A    
C92   C100  1.401527 A    
C162  C170  1.403951 A    
C81   C89   1.394400 A    
C58   C66   1.408156 A    
C81   F45   1.358022 S    
O45   C5    1.273131 A    
C80   F44   1.357886 S    
Zn8   O4    1.947403 S    
C129  C137  1.390892 A    
N14   O80   1.301526 A    
C62   C70   1.420423 A    
O32   C26   1.282076 A    
Zn12  O16   1.936592 S    
Zn13  O17   1.936612 S    
C61   C69   1.420339 A    
Zn15  O3    1.942206 S    
C12   C113  1.452541 S    
C116  C124  1.410872 A    
C105  N29   1.439872 S    
N28   O108  1.301247 A    
N11   O74   1.301434 A    
C138  C146  1.408695 A    
C30   F2    1.357760 S    
C110  C118  1.410956 A    
N6    O64   1.301297 A    
Zn11  O47   1.934285 S    
N24   O100  1.301064 A    
N15   O82   1.301509 A    
C128  C136  1.390464 A    
C5    C112  1.451101 S    
C28   C48   1.463319 S    
C132  C172  1.400719 A    
C56   C64   1.407257 A    
C154  F22   1.357556 S    
C57   C65   1.407950 A    
C126  C134  1.390497 A    
O35   C27   1.282097 A    
C9    C116  1.452322 S    
Zn8   O34   1.932480 S    
C94   N10   1.439075 S    
C93   N9    1.438972 S    
C130  C138  1.390822 A    
O10   C10   1.279894 A    
N9    O70   1.301544 A    
C173  F33   1.359177 S    
C168  C171  1.472403 S    
C148  C156  1.407540 A    
C135  C143  1.406896 A    
C107  C115  1.407414 A    
C14   C144  1.459171 S    
Zn10  O14   1.936608 S    
Zn11  O23   1.931812 S    
C154  C162  1.392032 A    
Zn2   O32   1.932903 S    
C133  C141  1.403010 A    
N3    O58   1.301438 A    
C107  N31   1.438208 S    
N8    O68   1.301323 A    
O37   C13   1.280330 A    
Zn3   O1    1.947401 S    
C128  C168  1.402991 A    
C103  N27   1.437615 S    
C129  C169  1.401119 A    
N13   O77   1.301330 A    
C151  F19   1.358158 S    
C75   C124  1.487448 S    
C144  C152  1.403137 A    
O43   C19   1.283495 A    
O34   C28   1.281822 A    
Zn5   O35   1.932904 S    
C178  C186  1.396552 A    
C40   C46   1.401676 A    
N32   O116  1.300993 A    
C54   C94   1.404161 A    
O11   C11   1.276415 A    
C11   C114  1.452364 S    
C160  F28   1.357956 S    
C87   C95   1.402416 A    
C13   C143  1.468093 S    
C58   C98   1.404530 A    
C78   F42   1.357886 S    
C85   C93   1.401970 A    
O40   C16   1.278256 A    
O16   C16   1.279067 A    
C187  N7    1.434821 S    
C89   C97   1.401385 A    
O6    C6    1.278013 A    
N12   O76   1.301557 A    
C186  N6    1.440578 S    
C130  C170  1.401091 A    
C137  F13   1.357670 S    
C150  F18   1.358186 S    
C72   C80   1.404426 A    
Zn16  O4    1.942202 S    
Zn1   O7    1.932107 S    
C178  F38   1.359351 S    
C42   C48   1.401637 A    
N13   O78   1.301513 A    
N5    O61   1.301088 A    
O13   C13   1.280406 A    
C150  C158  1.393168 A    
Zn5   O41   1.933626 S    
C181  C189  1.417024 A    
Zn5   O11   1.932107 S    
Zn3   O39   1.933836 S    
