data_mof_unit_13080.cif
_audit_creation_date              2012-12-10T17:19:37-0500
_audit_creation_method            fapswitch 2.2
_symmetry_space_group_name_H-M    P1
_symmetry_Int_Tables_number       1
_space_group_crystal_system       triclinic
_cell_length_a                    10.179582
_cell_length_b                    10.587697
_cell_length_c                    11.543095
_cell_angle_alpha                 90.674062
_cell_angle_beta                  81.34593
_cell_angle_gamma                 94.903515
_cell_volume                      1225.42901171

loop_
_atom_site_label
_atom_site_type_symbol
_atom_type_description
_atom_site_fract_x
_atom_site_fract_y
_atom_site_fract_z
_atom_type_partial_charge
C1    C     C_R   0.555401 0.734341 0.489323 0.759456
C2    C     C_2   0.413687 0.129552 0.496216 0.324472
C3    C     C_2   0.490056 0.930033 0.425279 -0.187036
C4    C     C_2   0.498843 0.066529 0.421972 -0.211834
C5    C     C_2   0.928932 0.519677 0.502103 0.089273
C6    C     C_2   0.076656 0.506368 0.476666 0.083656
C7    C     C_3   0.291823 0.099354 0.682414 0.093550
C8    C     C_3   0.403792 0.050753 0.741207 -0.403421
C9    C     C_3   0.390687 0.088815 0.870075 -0.946294
C10   C     C_3   0.739088 0.909596 0.592532 0.063250
C11   C     C_3   0.833437 0.018866 0.627185 -0.270071
C12   C     C_R   0.444515 0.265923 0.504746 0.763405
C13   C     C_3   0.871209 0.997189 0.747995 -0.989714
C14   C     C_3   0.143804 0.678118 0.702640 0.184148
C15   C     C_3   0.098007 0.678208 0.835045 -0.365710
C16   C     C_3   0.151439 0.797921 0.892889 -0.988493
C17   C     C_3   0.838096 0.327134 0.294898 0.214439
C18   C     C_3   0.912282 0.227002 0.221546 -0.405447
C19   C     C_3   0.857532 0.202140 0.106549 -0.955435
C20   C     C_R   0.500024 0.499932 0.718018 0.890863
C21   C     C_R   0.499854 0.499624 0.281975 0.894257
C22   C     C_1   0.499912 0.499378 0.838473 -0.203665
C23   C     C_1   0.499652 0.499110 0.161523 -0.203120
C24   C     C_1   0.499730 0.498981 0.940665 -0.005228
C25   C     C_1   0.499620 0.498856 0.059340 -0.002952
C26   C     C_2   0.584551 0.870190 0.466228 0.298813
H1    H     H_    0.586851 0.114568 0.370967 0.156885
H2    H     H_    0.470334 0.049085 0.910809 0.266957
H3    H     H_    0.292291 0.052040 0.917940 0.271510
H4    H     H_    0.791179 0.821137 0.587503 0.156856
H5    H     H_    0.649782 0.899072 0.661976 0.110320
H6    H     H_    0.925495 0.028203 0.561405 0.242528
H7    H     H_    0.784224 0.108788 0.628315 0.243422
H8    H     H_    0.780910 0.991529 0.815666 0.270774
H9    H     H_    0.940823 0.077303 0.770026 0.269916
H10   H     H_    0.920950 0.907937 0.748728 0.261082
H11   H     H_    0.100171 0.756168 0.661689 0.112081
H12   H     H_    0.395614 0.880578 0.411336 0.171462
H13   H     H_    0.253963 0.694675 0.685426 0.188517
H14   H     H_    0.987184 0.670374 0.852764 0.223974
H15   H     H_    0.133578 0.594677 0.874690 0.242574
H16   H     H_    0.262119 0.805007 0.879696 0.272769
H17   H     H_    0.114811 0.794394 0.988478 0.275816
H18   H     H_    0.116202 0.882833 0.855962 0.265107
H19   H     H_    0.850976 0.417081 0.243574 0.133785
H20   H     H_    0.731575 0.292441 0.313107 0.178091
H21   H     H_    0.020032 0.259674 0.201983 0.228111
H22   H     H_    0.901826 0.137040 0.272147 0.254953
H23   H     H_    0.117899 0.464135 0.394542 0.123686
H24   H     H_    0.750445 0.166880 0.124161 0.263487
H25   H     H_    0.913588 0.129309 0.055269 0.274247
H26   H     H_    0.868672 0.290428 0.053630 0.269586
H27   H     H_    0.893800 0.596110 0.558810 0.101083
H28   H     H_    0.195067 0.054809 0.726802 0.164418
H29   H     H_    0.286647 0.202952 0.696063 0.156797
H30   H     H_    0.400116 0.945851 0.733671 0.220719
H31   H     H_    0.502693 0.090883 0.696738 0.225022
H32   H     H_    0.401416 0.193727 0.878193 0.269335
N1    N     N_2   0.842700 0.448890 0.453570 0.041172
N2    N     N_2   0.157300 0.551110 0.546430 0.033940
O1    O     O_R   0.431060 0.692470 0.509350 -0.651083
O2    O     O_3   0.704806 0.936459 0.481719 -0.633500
O3    O     O_3   0.097904 0.560947 0.658388 -0.576553
O4    O     O_3   0.890771 0.344542 0.400165 -0.591013
O5    O     O_R   0.568940 0.307530 0.490650 -0.623552
O6    O     O_R   0.651120 0.659650 0.479540 -0.611772
O7    O     O_R   0.348880 0.340350 0.520460 -0.582940
O8    O     O_R   0.389960 0.516400 0.680450 -0.599486
O9    O     O_R   0.610040 0.483600 0.319550 -0.644069
O10   O     O_R   0.610030 0.483580 0.650650 -0.601706
O11   O     O_R   0.389970 0.516420 0.349350 -0.621316
O12   O     O_3   0.303088 0.064733 0.562498 -0.643012
Zn1   Zn    Zn3+2 0.353060 0.521910 0.519900 0.964432
Zn2   Zn    Zn3+2 0.646940 0.478090 0.480100 0.953428

loop_
_geom_bond_atom_site_label_1
_geom_bond_atom_site_label_2
_ccdc_geom_bond_type
O10   Zn2   S    
C2    C4    D    
C9    H2    S    
O7    Zn1   S    
C11   H7    S    
C9    H3    S    
C8    H31   S    
C18   H22   S    
C12   O5    A    
C16   H18   S    
C16   H17   S    
C7    H29   S    
O8    Zn1   S    
C2    C12   S    
C18   H21   S    
C8    H30   S    
C21   C23   S    
C17   C18   S    
C26   O2    S    
C13   H8    S    
C17   O4    S    
C24   C25   S    
C14   H11   S    
C11   C13   S    
N1    Zn2   S    
C20   O10   A    
N1    O4    S    
C10   O2    S    
C21   O11   A    
N2    O3    S    
C2    O12   S    
C14   O3    S    
C10   H5    S    
C5    H27   S    
C20   C22   S    
C11   H6    S    
C13   H9    S    
C19   H24   S    
C23   C25   T    
C6    H23   S    
C5    C6    S    
C12   O7    A    
C22   C24   T    
C15   H14   S    
C1    C26   S    
C7    C8    S    
C10   C11   S    
C5    N1    D    
C17   H19   S    
C15   C16   S    
O6    Zn2   S    
C19   H25   S    
N2    Zn1   S    
O9    Zn2   S    
C4    H1    S    
C17   H20   S    
C15   H15   S    
C13   H10   S    
C9    H32   S    
C6    N2    D    
C21   O9    A    
C7    O12   S    
O11   Zn1   S    
C10   H4    S    
C14   C15   S    
C18   C19   S    
C7    H28   S    
O1    Zn1   S    
C14   H13   S    
C16   H16   S    
C19   H26   S    
C20   O8    A    
C3    C26   D    
O5    Zn2   S    
C3    C4    S    
C3    H12   S    
C1    O1    A    
C8    C9    S    
C1    O6    A    
