data_mof_unit_66766.cif
_audit_creation_date              2012-12-11T14:19:35-0500
_audit_creation_method            fapswitch 2.2
_symmetry_space_group_name_H-M    P1
_symmetry_Int_Tables_number       1
_space_group_crystal_system       triclinic
_cell_length_a                    8.378554
_cell_length_b                    12.629128
_cell_length_c                    14.980801
_cell_angle_alpha                 95.52433
_cell_angle_beta                  98.819163
_cell_angle_gamma                 97.56463
_cell_volume                      1541.79056346

loop_
_atom_site_label
_atom_site_type_symbol
_atom_type_description
_atom_site_fract_x
_atom_site_fract_y
_atom_site_fract_z
_atom_type_partial_charge
Ba1   Ba    Ba6+2 0.153570 0.551840 0.456200 1.624562
Ba2   Ba    Ba6+2 0.656590 0.448150 0.543720 1.637003
C1    C     C_3   0.284412 0.786990 0.113530 -0.363611
C2    C     C_R   0.727503 0.816116 0.472831 -0.283341
C3    C     C_R   0.694491 0.995206 0.435664 -0.075260
C4    C     C_3   0.870660 0.836522 0.202394 0.416905
C5    C     C_R   0.629955 0.886780 0.434677 0.022536
C6    C     C_R   0.888359 0.851389 0.515996 0.076293
C7    C     C_R   0.953595 0.963675 0.521380 0.013907
C8    C     C_R   0.854829 0.036855 0.480389 -0.034413
C9    C     C_R   0.919292 0.149351 0.486993 0.046925
C10   C     C_R   0.176055 0.114662 0.570920 0.003769
C11   C     C_R   0.113395 0.005449 0.566654 -0.051532
C12   C     C_3   0.314404 0.766490 0.212798 0.324973
C13   C     C_R   0.238783 0.467890 0.766387 -0.283681
C14   C     C_R   0.142395 0.429692 0.827054 0.032744
C15   C     C_R   0.205003 0.439900 0.920145 -0.107533
C16   C     C_3   0.891799 0.920476 0.135495 -0.337816
C17   C     C_R   0.365969 0.492362 0.954490 0.000811
C18   C     C_R   0.456496 0.537672 0.891320 -0.139069
C19   C     C_R   0.393642 0.524333 0.798725 0.035423
C20   C     C_R   0.602094 0.548938 0.085948 -0.142528
C21   C     C_R   0.666866 0.563827 0.178294 0.025395
C22   C     C_R   0.413836 0.478578 0.212583 0.062524
C23   C     C_3   0.562113 0.784259 0.670473 0.249280
C24   C     C_R   0.345360 0.465716 0.120069 -0.119131
C25   C     C_R   0.437324 0.503183 0.054395 -0.003867
C26   C     C_R   0.572026 0.531673 0.241721 -0.286832
C27   C     C_3   0.716180 0.305978 0.269245 0.299974
C28   C     C_3   0.669818 0.270814 0.167376 -0.377750
C29   C     C_3   0.087017 0.693005 0.732163 0.255839
C30   C     C_3   0.111870 0.723397 0.835901 -0.157348
C31   C     C_3   0.236204 0.226269 0.348198 0.282807
C32   C     C_3   0.244260 0.107460 0.331519 -0.341774
C33   C     C_3   0.233925 0.826747 0.866138 -0.429663
C34   C     C_3   0.497587 0.890286 0.681151 -0.280754
C35   C     C_2   0.951806 0.737201 0.866136 0.549867
C36   C     C_2   0.821573 0.115068 0.709384 0.447106
C37   C     C_3   0.098432 0.174375 0.794089 -0.324767
C38   C     C_3   0.952861 0.126140 0.969561 -0.390684
C39   C     C_3   0.968547 0.884176 0.295135 -0.319930
C40   C     C_2   0.439091 0.099816 0.907432 0.481838
C41   C     C_3   0.690026 0.815818 0.208542 -0.327217
C42   C     C_3   0.917263 0.160739 0.801159 0.328199
C43   C     C_3   0.884637 0.079998 0.870566 -0.125638
C44   C     C_3   0.482418 0.230948 0.790525 0.253904
C45   C     C_3   0.512364 0.209828 0.891094 -0.254385
C46   C     C_R   0.077407 0.185573 0.534138 -0.284995
H1    H     H_    0.201920 0.725248 0.230730 0.129233
H2    H     H_    0.268297 0.709654 0.068738 0.101249
H3    H     H_    0.162716 0.073458 0.266929 0.119822
H4    H     H_    0.205893 0.066844 0.388605 0.080883
H5    H     H_    0.370797 0.094628 0.325467 0.140770
H6    H     H_    0.404763 0.710228 0.220023 -0.003200
H7    H     H_    0.388185 0.841871 0.097710 0.117975
H8    H     H_    0.694107 0.799270 0.666295 0.050224
H9    H     H_    0.494774 0.739541 0.605368 0.058445
H10   H     H_    0.569228 0.941964 0.741703 0.138701
H11   H     H_    0.505243 0.930866 0.619314 0.133610
H12   H     H_    0.569614 0.201421 0.154176 0.157499
H13   H     H_    0.368770 0.875813 0.691423 0.104800
H14   H     H_    0.173140 0.824163 0.098087 0.157625
H15   H     H_    0.831304 0.885709 0.065596 0.131025
H16   H     H_    0.751146 0.055863 0.865405 0.077388
H17   H     H_    0.936858 0.005178 0.854718 0.101381
H18   H     H_    0.379859 0.277371 0.780156 -0.009997
H19   H     H_    0.588371 0.285116 0.777204 0.124406
H20   H     H_    0.464925 0.272226 0.932992 0.080816
H21   H     H_    0.644365 0.219204 0.916869 0.102641
H22   H     H_    0.617101 0.045891 0.401802 0.100578
H23   H     H_    0.628042 0.337291 0.131478 0.068073
H24   H     H_    0.191605 0.954243 0.598521 0.088129
H25   H     H_    0.127883 0.269664 0.538426 0.065382
H26   H     H_    0.675944 0.732468 0.470290 0.062370
H27   H     H_    0.684971 0.573058 0.040983 0.125021
H28   H     H_    0.124752 0.406958 0.963468 0.083604
H29   H     H_    0.222134 0.424318 0.101659 0.086475
H30   H     H_    0.573854 0.586788 0.911521 0.117146
H31   H     H_    0.624988 0.542143 0.313160 0.069873
H32   H     H_    0.188874 0.459942 0.694595 0.066495
H33   H     H_    0.837877 0.993398 0.155240 0.084863
H34   H     H_    0.777140 0.246768 0.139750 0.118595
H35   H     H_    0.022587 0.947433 0.134093 0.109652
H36   H     H_    0.607287 0.327824 0.295808 0.018003
H37   H     H_    0.814519 0.376460 0.280860 0.061746
H38   H     H_    0.355824 0.814690 0.850554 0.146720
H39   H     H_    0.192909 0.894947 0.831753 0.153020
H40   H     H_    0.246632 0.849042 0.940468 0.140363
H41   H     H_    0.880185 0.795748 0.838461 0.021793
H42   H     H_    0.760597 0.166478 0.666477 0.089955
H43   H     H_    0.119647 0.218782 0.735680 0.013938
H44   H     H_    0.171112 0.218636 0.857778 0.101858
H45   H     H_    0.203560 0.675725 0.712306 0.008735
H46   H     H_    0.139819 0.094977 0.781718 0.109601
H47   H     H_    0.904643 0.201128 0.989049 0.144612
H48   H     H_    0.916306 0.066704 0.014915 0.110669
H49   H     H_    0.087655 0.143371 0.981195 0.183977
H50   H     H_    0.949940 0.830796 0.347569 0.115845
H51   H     H_    0.098856 0.896138 0.290583 0.161215
H52   H     H_    0.932433 0.962801 0.316794 0.044203
H53   H     H_    0.459658 0.028919 0.866630 0.029852
H54   H     H_    0.622112 0.771873 0.143350 0.089096
H55   H     H_    0.670728 0.768684 0.265663 0.034030
H56   H     H_    0.993908 0.619788 0.713090 0.051734
H57   H     H_    0.643112 0.893048 0.221888 0.115085
H58   H     H_    0.162425 0.657698 0.869694 0.077275
H59   H     H_    0.111398 0.238022 0.358321 0.004993
H60   H     H_    0.325792 0.259155 0.410416 0.073068
O1    O     O_2   0.168170 0.764170 0.543850 -0.479875
O2    O     O_2   0.827195 0.454181 0.822730 -0.446787
O3    O     O_3   0.862247 0.257199 0.831846 -0.648303
O4    O     O_3   0.898670 0.629780 0.545890 -0.489851
O5    O     O_3   0.409490 0.443300 0.392340 -0.497172
O6    O     O_2   0.674250 0.555830 0.719690 -0.440343
O7    O     O_3   0.541466 0.732952 0.747830 -0.654351
O8    O     O_2   0.503376 0.112535 0.560019 -0.488965
O9    O     O_3   0.455305 0.135198 0.729541 -0.644728
O10   O     O_3   0.365980 0.695510 0.380810 -0.494359
O11   O     O_2   0.295672 0.886957 0.434868 -0.500248
O12   O     O_3   0.271369 0.272076 0.270867 -0.628881
O13   O     O_3   0.037346 0.779571 0.689160 -0.645953
O14   O     O_3   0.368171 0.863965 0.270184 -0.632809
O15   O     O_2   0.136040 0.444100 0.280280 -0.456535
O16   O     O_3   0.934510 0.640480 0.335500 -0.495616
O17   O     O_2   0.985822 0.548321 0.176561 -0.477865
O18   O     O_2   0.901918 0.683404 0.922392 -0.581657
O19   O     O_2   0.819997 0.021308 0.680475 -0.659429
O20   O     O_2   0.360575 0.088935 0.968928 -0.617544
O21   O     O_3   0.931210 0.743854 0.167610 -0.590052
O22   O     O_2   0.642110 0.235770 0.456130 -0.474581
O23   O     O_3   0.911620 0.370210 0.454030 -0.492223
O24   O     O_3   0.444310 0.304480 0.619110 -0.488225
O25   O     O_3   0.770378 0.219809 0.310716 -0.640768
O26   O     O_3   0.400800 0.556680 0.607590 -0.486629
O27   O     O_3   0.875770 0.359510 0.664420 -0.502115
P1    P     P_3+3 0.998660 0.747790 0.570900 0.981040
P2    P     P_3+3 0.306970 0.411860 0.294270 0.983194
P3    P     P_3+3 0.878594 0.624901 0.216555 0.946397
P4    P     P_3+3 0.811620 0.252200 0.429030 0.968435
P5    P     P_3+3 0.929337 0.373440 0.783877 0.918347
P6    P     P_3+3 0.415982 0.834391 0.382522 0.914654
P7    P     P_3+3 0.502581 0.593550 0.719947 0.956767
P8    P     P_3+3 0.392712 0.165896 0.618733 0.915026

loop_
_geom_bond_atom_site_label_1
_geom_bond_atom_site_label_2
_ccdc_geom_bond_type
C27   O25   S    
C12   O14   S    
C6    P1    S    
C45   H20   S    
C21   P3    S    
C17   C18   A    
C31   H59   S    
C23   H8    S    
C2    C6    A    
O10   P6    S    
C36   O19   D    
C10   C11   A    
Ba2   O4    S    
C32   H3    S    
Ba2   O26   S    
Ba1   O5    S    
Ba2   P4    S    
O6    P7    D    
O16   P3    S    
O9    P8    S    
C38   H48   S    
C19   P7    S    
C44   H18   S    
C34   H10   S    
C4    O21   S    
Ba1   O4    S    
Ba2   O5    S    
C16   H15   S    
C12   H1    S    
C13   C14   A    
C16   H33   S    
Ba1   Ba2   S    
C41   H57   S    
C26   H31   S    
C7    C11   A    
C45   H21   S    
C9    P4    S    
C32   H4    S    
Ba1   O1    S    
C33   H39   S    
O21   P3    S    
C29   C30   S    
C14   C15   A    
C4    C39   S    
C28   H12   S    
C15   H28   S    
Ba2   O24   S    
C39   H51   S    
Ba1   P1    S    
C17   C25   S    
C7    C8    A    
C2    H26   S    
C10   C46   A    
Ba1   O10   S    
C34   H11   S    
O24   P8    S    
O7    P7    S    
C30   H58   S    
O1    P1    D    
C9    C46   A    
C14   P5    S    
C31   H60   S    
C23   H9    S    
C20   H27   S    
O4    P1    S    
C2    C5    A    
O22   P4    D    
C37   H43   S    
C1    H2    S    
O3    P5    S    
C28   H23   S    
O27   P5    S    
C4    C16   S    
C24   H29   S    
Ba2   O23   S    
C30   C33   S    
C29   O13   S    
C27   H36   S    
C38   H49   S    
C3    C5    A    
Ba2   O22   S    
C6    C7    A    
C29   H45   S    
C44   O9    S    
C28   H34   S    
Ba1   O15   S    
C37   H46   S    
C36   C42   S    
C3    H22   S    
O26   P7    S    
O8    P8    D    
C33   H40   S    
C13   H32   S    
C13   C19   A    
C16   H35   S    
C24   C25   A    
C39   H52   S    
C30   C35   S    
C18   C19   A    
C1    C12   S    
C32   H5    S    
C12   H6    S    
O25   P4    S    
C4    C41   S    
C43   H17   S    
O17   P3    D    
O5    P2    S    
C21   C26   A    
C38   H47   S    
C34   H13   S    
C40   H53   S    
C37   H44   S    
C5    P6    S    
Ba1   P2    S    
C42   C43   S    
C35   O18   D    
C1    H14   S    
O15   P2    D    
C44   C45   S    
C39   H50   S    
C27   H37   S    
C46   H25   S    
C22   C26   A    
C22   C24   A    
Ba1   O23   S    
C37   C42   S    
C11   H24   S    
C40   O20   D    
C22   P2    S    
C36   H42   S    
C43   H16   S    
C1    H7    S    
Ba2   O27   S    
C10   P8    S    
C35   H41   S    
C20   C25   A    
C29   H56   S    
C23   O7    S    
Ba1   O16   S    
C3    C8    A    
Ba2   O6    S    
C18   H30   S    
O11   P6    D    
O2    P5    D    
C15   C17   A    
C31   C32   S    
C40   C45   S    
O13   P1    S    
C41   H55   S    
C41   H54   S    
O23   P4    S    
C8    C9    A    
C23   C34   S    
C27   C28   S    
C42   O3    S    
C44   H19   S    
C38   C43   S    
C31   O12   S    
C20   C21   A    
O12   P2    S    
O14   P6    S    
C33   H38   S    
Ba1   O26   S    
