data_mof_unit_48780.cif
_audit_creation_date              2012-12-10T17:04:37-0500
_audit_creation_method            fapswitch 2.2
_symmetry_space_group_name_H-M    P1
_symmetry_Int_Tables_number       1
_space_group_crystal_system       triclinic
_cell_length_a                    14.880778
_cell_length_b                    10.590615
_cell_length_c                    10.069841
_cell_angle_alpha                 92.838923
_cell_angle_beta                  90.133333
_cell_angle_gamma                 90.279268
_cell_volume                      1585.00088395

loop_
_atom_site_label
_atom_site_type_symbol
_atom_type_description
_atom_site_fract_x
_atom_site_fract_y
_atom_site_fract_z
_atom_type_partial_charge
C1    C     C_R   0.501010 0.262177 0.496252 0.806994
C2    C     C_R   0.184058 0.425418 0.411585 -0.237695
C3    C     C_R   0.231483 0.507562 0.497335 -0.035491
C4    C     C_R   0.326997 0.499815 0.499671 0.834104
C5    C     C_R   0.189421 0.605548 0.569513 -0.240215
C6    C     C_2   0.426485 0.929986 0.418538 0.531083
C7    C     C_2   0.463200 0.866194 0.516679 -0.418446
C8    C     C_2   0.423768 0.067486 0.438412 0.098058
C9    C     C_2   0.499772 0.127179 0.482917 0.186985
C10   C     C_2   0.570712 0.519345 0.926864 -0.273667
C11   C     C_2   0.563332 0.549462 0.074913 0.573294
C12   C     C_R   0.908080 0.639497 0.544440 -0.016453
C13   C     C_R   0.490269 0.736708 0.503504 0.923238
C14   C     C_R   0.672948 0.507437 0.500252 0.872259
C15   C     C_R   0.813299 0.628782 0.561834 0.107031
C16   C     C_R   0.768870 0.524172 0.496911 -0.089289
C17   C     C_R   0.813776 0.437677 0.413546 -0.253674
C18   C     C_R   0.905612 0.445031 0.397749 0.022223
C19   C     C_R   0.953589 0.540778 0.471599 -0.078365
C20   C     C_3   0.760402 0.719414 0.655643 -0.335207
C21   C     C_3   0.785011 0.702332 0.801138 -0.781203
C22   C     C_3   0.337251 0.139769 0.412708 -0.456603
C23   C     C_R   0.951365 0.353856 0.315757 0.440939
C24   C     C_3   0.252763 0.057408 0.396188 -0.825298
C25   C     C_3   0.454033 0.384605 0.103733 -0.275782
C26   C     C_3   0.518125 0.272721 0.080483 -0.797723
C27   C     C_3   0.105704 0.837715 0.687765 -0.354676
C28   C     C_3   0.120736 0.808104 0.832937 -0.827515
C29   C     C_R   0.044148 0.348784 0.321755 -0.225648
C30   C     C_R   0.091859 0.435873 0.402869 0.063335
C31   C     C_R   0.047403 0.534784 0.475524 0.031583
C32   C     C_R   0.096995 0.624239 0.555423 0.026693
C33   C     C_R   0.053592 0.731389 0.614278 0.104588
C34   C     C_R   0.960056 0.742498 0.599811 0.366112
H1    H     H_    0.475637 0.914162 0.613225 0.162064
H2    H     H_    0.855092 0.732726 0.822945 0.288291
H3    H     H_    0.767536 0.818984 0.630165 0.231951
H4    H     H_    0.687020 0.706712 0.646329 0.209609
H5    H     H_    0.254049 0.001282 0.300242 0.292917
H6    H     H_    0.246588 0.993420 0.479766 0.242383
H7    H     H_    0.192437 0.118685 0.396064 0.242318
H8    H     H_    0.324893 0.207585 0.498480 0.193124
H9    H     H_    0.345807 0.194510 0.322371 0.217931
H10   H     H_    0.627192 0.123098 0.527389 0.333134
H11   H     H_    0.668812 0.656528 0.069826 0.309251
H12   H     H_    0.636553 0.516896 0.881462 0.170470
H13   H     H_    0.550739 0.275655 0.981797 0.249162
H14   H     H_    0.571092 0.273470 0.158296 0.275092
H15   H     H_    0.479756 0.182655 0.083027 0.249446
H16   H     H_    0.407142 0.360019 0.183641 0.222057
H17   H     H_    0.408833 0.394390 0.018191 0.148719
H18   H     H_    0.854497 0.307191 0.194206 0.331586
H19   H     H_    0.055101 0.799081 0.884061 0.273597
H20   H     H_    0.158622 0.718731 0.840626 0.251823
H21   H     H_    0.159719 0.885995 0.883959 0.250163
H22   H     H_    0.170722 0.855875 0.638472 0.170666
H23   H     H_    0.441726 0.535203 0.892084 0.170555
H24   H     H_    0.069807 0.929208 0.685510 0.258829
H25   H     H_    0.893073 0.885038 0.550843 0.332630
H26   H     H_    0.370765 0.790969 0.316230 0.332542
H27   H     H_    0.775852 0.360067 0.366367 0.161617
H28   H     H_    0.079015 0.275874 0.262886 0.169520
H29   H     H_    0.219111 0.352451 0.353151 0.138285
H30   H     H_    0.230697 0.668264 0.632101 0.151216
H31   H     H_    0.739517 0.760063 0.866598 0.238975
H32   H     H_    0.777841 0.601557 0.824796 0.235664
N1    N     N_2   0.500970 0.501330 0.852150 -0.192495
N2    N     N_2   0.500990 0.501360 0.147810 -0.085254
O1    O     O_R   0.499990 0.319060 0.613040 -0.597256
O2    O     O_3   0.626282 0.627713 0.137752 -0.721861
O3    O     O_3   0.908294 0.266712 0.231068 -0.759304
O4    O     O_3   0.922194 0.857633 0.633297 -0.778938
O5    O     O_3   0.397186 0.874613 0.298869 -0.743319
O6    O     O_R   0.500010 0.319100 0.386900 -0.629267
O7    O     O_R   0.367830 0.499950 0.613080 -0.617305
O8    O     O_R   0.367860 0.499990 0.386940 -0.647190
O9    O     O_R   0.499990 0.680900 0.613100 -0.625341
O10   O     O_R   0.500010 0.680940 0.386960 -0.543938
O11   O     O_R   0.632140 0.500010 0.613060 -0.618795
O12   O     O_R   0.632170 0.500050 0.386920 -0.560260
O13   O     O_3   0.579442 0.062005 0.498260 -0.777827
Zn1   Zn    Zn3+2 0.499980 0.499970 0.650990 0.941828
Zn2   Zn    Zn3+2 0.500020 0.500030 0.349010 0.985369

loop_
_geom_bond_atom_site_label_1
_geom_bond_atom_site_label_2
_ccdc_geom_bond_type
C21   H32   S    
O6    Zn2   S    
C19   C31   A    
C11   O2    S    
C21   H2    S    
C10   N1    D    
C27   C33   S    
C1    O6    A    
C23   C29   A    
C30   C31   A    
C15   C16   A    
H26   O5    S    
C24   H5    S    
C18   C19   A    
C25   H16   S    
C4    O7    A    
O1    Zn1   S    
C17   H27   S    
C29   H28   S    
O10   Zn2   S    
C31   C32   A    
C8    C9    D    
C10   H12   S    
C8    C22   S    
C14   O12   A    
C26   H14   S    
H25   O4    S    
C5    C32   A    
C24   H7    S    
C25   N2    S    
H23   N1    S    
O12   Zn2   S    
O8    Zn2   S    
C28   H21   S    
C33   C34   A    
C15   C20   S    
C13   O9    A    
C18   C23   A    
C23   O3    S    
C1    C9    S    
H10   O13   S    
C26   H15   S    
C28   H20   S    
C27   H22   S    
C16   C17   A    
C6    C8    S    
C25   C26   S    
C1    O1    A    
C5    H30   S    
C25   H17   S    
C29   C30   A    
C2    H29   S    
C20   H4    S    
C22   H9    S    
C12   C15   A    
C17   C18   A    
C14   O11   A    
C26   H13   S    
C22   C24   S    
C12   C34   A    
C3    C4    S    
C34   O4    S    
C11   N2    D    
C6    O5    S    
C13   O10   A    
C21   H31   S    
H11   O2    S    
N2    Zn2   S    
C7    H1    S    
C3    C5    A    
C27   H24   S    
O11   Zn1   S    
C28   H19   S    
O7    Zn1   S    
C6    C7    D    
C2    C30   A    
C32   C33   A    
C2    C3    A    
H18   O3    S    
C20   H3    S    
C22   H8    S    
O9    Zn1   S    
C12   C19   A    
C24   H6    S    
C14   C16   S    
C4    O8    A    
C10   C11   S    
C7    C13   S    
C20   C21   S    
N1    Zn1   S    
C27   C28   S    
C9    O13   S    
