data_mof_unit_7797.cif
_audit_creation_date              2012-12-10T17:41:47-0500
_audit_creation_method            fapswitch 2.2
_symmetry_space_group_name_H-M    P1
_symmetry_Int_Tables_number       1
_space_group_crystal_system       triclinic
_cell_length_a                    13.811046
_cell_length_b                    13.88877
_cell_length_c                    15.013425
_cell_angle_alpha                 88.398059
_cell_angle_beta                  89.172025
_cell_angle_gamma                 85.710895
_cell_volume                      2870.44333189

loop_
_atom_site_label
_atom_site_type_symbol
_atom_type_description
_atom_site_fract_x
_atom_site_fract_y
_atom_site_fract_z
_atom_type_partial_charge
C1    C     C_R   0.500331 0.502524 0.329048 0.808106
C2    C     C_R   0.499689 0.496925 0.670918 0.812927
C3    C     C_R   0.499435 0.498080 0.953238 -0.065102
C4    C     C_R   0.501939 0.501238 0.046648 -0.062809
C5    C     C_R   0.520169 0.408831 0.910127 0.071258
C6    C     C_R   0.480978 0.590431 0.089732 0.072484
C7    C     C_R   0.459897 0.673890 0.944997 0.172689
C8    C     C_R   0.541940 0.325551 0.054937 0.167934
C9    C     C_R   0.474210 0.677615 0.037714 0.162806
C10   C     C_R   0.527379 0.321685 0.962255 0.166049
C11   C     C_R   0.789419 0.567377 0.447057 0.396837
C12   C     C_R   0.209972 0.440547 0.560531 0.401294
C13   C     C_R   0.797574 0.433895 0.550633 -0.029912
C14   C     C_R   0.203192 0.557845 0.441437 -0.027650
C15   C     C_R   0.899610 0.433376 0.551911 -0.025889
C16   C     C_R   0.101142 0.559154 0.440945 -0.026133
C17   C     C_R   0.948501 0.497191 0.495880 0.013304
C18   C     C_R   0.052234 0.495705 0.497310 0.012624
C19   C     C_R   0.893719 0.563772 0.440088 -0.095126
C20   C     C_R   0.106731 0.432704 0.556508 -0.095835
C21   C     C_R   0.953226 0.369048 0.608146 -0.250808
C22   C     C_R   0.047678 0.622792 0.384051 -0.250194
C23   C     C_R   0.515205 0.317319 0.499833 0.814221
C24   C     C_R   0.484832 0.682684 0.500044 0.817544
C25   C     C_R   0.055029 0.366552 0.610397 0.267422
C26   C     C_R   0.945932 0.625104 0.381518 0.263674
C27   C     C_1   0.476177 0.785179 0.503142 -0.206357
C28   C     C_1   0.523909 0.214642 0.501283 -0.219018
C29   C     C_2   0.459733 0.975337 0.512884 0.207899
C30   C     C_2   0.541419 0.023863 0.506021 0.207345
C31   C     C_1   0.532188 0.128087 0.503165 -0.021056
C32   C     C_1   0.468192 0.871491 0.507108 -0.023817
C33   C     C_R   0.532633 0.410486 0.816152 0.129094
C34   C     C_R   0.467723 0.588720 0.183584 0.120967
C35   C     C_R   0.498602 0.493848 0.767510 -0.062331
C36   C     C_R   0.501556 0.505419 0.232414 -0.074683
C37   C     C_R   0.467234 0.578040 0.810236 -0.272516
C38   C     C_R   0.533608 0.421349 0.189777 -0.271192
C39   C     C_R   0.474010 0.583834 0.902781 0.076593
C40   C     C_R   0.527367 0.415550 0.097164 0.077548
Cu1   Cu    Cu3+1 0.597420 0.500010 0.499990 0.949311
Cu2   Cu    Cu3+1 0.402580 0.499990 0.500010 0.952479
H1    H     H_    0.444537 0.640643 0.769039 0.150875
H2    H     H_    0.556320 0.358810 0.231045 0.153535
H3    H     H_    0.760543 0.382841 0.592061 0.135008
H4    H     H_    0.240533 0.605211 0.396483 0.133857
H5    H     H_    0.915907 0.318551 0.650228 0.137681
H6    H     H_    0.085301 0.670749 0.339563 0.138586
N1    N     N_R   0.743820 0.499960 0.499930 -0.195662
N2    N     N_R   0.256180 0.500040 0.500070 -0.196261
O1    O     O_R   0.582280 0.500030 0.370250 -0.577509
O2    O     O_R   0.417720 0.499970 0.629750 -0.553488
O3    O     O_R   0.417740 0.500020 0.370270 -0.578624
O4    O     O_R   0.582260 0.499980 0.629730 -0.584027
O5    O     O_R   0.593900 0.362160 0.500010 -0.578101
O6    O     O_R   0.406100 0.637840 0.499990 -0.580860
O7    O     O_R   0.429360 0.362150 0.500030 -0.567531
O8    O     O_R   0.570640 0.637850 0.499970 -0.547945
N3    N     N_2   0.635729 0.973325 0.497236 -0.432295
H7    H     H_    0.644577 0.906486 0.528957 0.250494
C41   C     C_3   0.720635 0.028268 0.500914 -0.675717
H8    H     H_    0.787113 0.979595 0.490459 0.215767
H9    H     H_    0.724595 0.061545 0.567090 0.223001
H10   H     H_    0.718357 0.085225 0.447387 0.243689
N4    N     N_2   0.365463 0.025888 0.521886 -0.431415
H11   H     H_    0.362782 0.089020 0.556689 0.244278
C42   C     C_3   0.282399 0.969868 0.538557 -0.679607
H12   H     H_    0.215112 0.018820 0.540111 0.217679
H13   H     H_    0.289844 0.930393 0.603782 0.224280
H14   H     H_    0.275394 0.918021 0.484414 0.243451
C43   C     C_3   0.591823 0.330800 0.768040 -0.886807
H15   H     H_    0.647878 0.361940 0.724813 0.237812
H16   H     H_    0.633917 0.280875 0.814197 0.244752
H17   H     H_    0.544283 0.290073 0.726318 0.212677
C44   C     C_3   0.407607 0.668167 0.231134 -0.880259
H18   H     H_    0.351135 0.636653 0.273511 0.236744
H19   H     H_    0.454212 0.709112 0.273562 0.214466
H20   H     H_    0.366007 0.718031 0.184556 0.245656
C45   C     C_3   0.433421 0.765853 0.890675 -0.886816
H21   H     H_    0.365806 0.757918 0.853317 0.226861
H22   H     H_    0.418286 0.830412 0.931664 0.243220
H23   H     H_    0.493377 0.780457 0.843281 0.231884
C46   C     C_3   0.569043 0.233726 0.109232 -0.877874
H24   H     H_    0.636438 0.242216 0.146746 0.227168
H25   H     H_    0.509125 0.218556 0.156478 0.235294
H26   H     H_    0.584869 0.169324 0.068168 0.242878
C47   C     C_3   0.501447 0.771640 0.076434 -0.874156
H27   H     H_    0.553394 0.806503 0.030983 0.237863
H28   H     H_    0.436160 0.822144 0.085723 0.231363
H29   H     H_    0.540095 0.759827 0.140493 0.240979
C48   C     C_3   0.500114 0.227492 0.923881 -0.876260
H30   H     H_    0.448712 0.192456 0.969767 0.239021
H31   H     H_    0.460811 0.239102 0.860149 0.241209
H32   H     H_    0.565465 0.177180 0.914178 0.229103
N5    N     N_2   0.733425 0.651236 0.414575 -0.381993
H33   H     H_    0.757134 0.716110 0.433854 0.232131
C49   C     C_3   0.695178 0.652894 0.325025 -0.528824
H34   H     H_    0.721132 0.714502 0.285205 0.206896
H35   H     H_    0.615297 0.666489 0.328064 0.208409
H36   H     H_    0.715692 0.584594 0.290301 0.222723
N6    N     N_2   0.261227 0.404767 0.637998 -0.377202
H37   H     H_    0.228595 0.424345 0.697705 0.231483
C50   C     C_3   0.308671 0.307964 0.639129 -0.547280
H38   H     H_    0.280605 0.264008 0.695245 0.205419
H39   H     H_    0.386888 0.311501 0.652491 0.206375
H40   H     H_    0.298645 0.270980 0.575607 0.223009
N7    N     N_2   0.103557 0.292541 0.663561 -0.434947
H41   H     H_    0.078153 0.290899 0.728505 0.246152
C51   C     C_3   0.107311 0.198019 0.624675 -0.723494
H42   H     H_    0.152699 0.145782 0.666562 0.223672
H43   H     H_    0.140097 0.200547 0.556686 0.241636
H44   H     H_    0.033272 0.172178 0.620996 0.224632
N8    N     N_2   0.898749 0.686274 0.315747 -0.438331
H45   H     H_    0.916578 0.756928 0.318682 0.245778
C52   C     C_3   0.909297 0.650243 0.226214 -0.704996
H46   H     H_    0.864684 0.698196 0.179865 0.222959
H47   H     H_    0.884026 0.576261 0.223743 0.239090
H48   H     H_    0.986312 0.648908 0.203488 0.224805

loop_
_geom_bond_atom_site_label_1
_geom_bond_atom_site_label_2
_ccdc_geom_bond_type
C2    C35   S    
C22   H6    S    
C47   H27   S    
N6    H37   S    
C8    C46   S    
Cu1   Cu2   S    
N5    H33   S    
C24   C27   S    
C6    C9    A    
C49   H34   S    
C14   H4    S    
C11   C19   A    
C35   C37   A    
Cu1   O8    S    
C29   C32   S    
C51   H43   S    
Cu2   O3    S    
C30   C31   S    
C33   C35   A    
C20   C25   A    
C52   H46   S    
C15   C17   A    
C41   H9    S    
C19   C26   A    
C1    O3    A    
Cu1   O5    S    
C43   H17   S    
Cu2   O6    S    
C4    C40   A    
C52   H47   S    
C5    C33   A    
N7    H41   S    
C29   N4    S    
C18   C20   A    
C34   C44   S    
C3    C39   A    
N3    H7    S    
N6    C50   S    
C38   C40   A    
N7    C51   S    
Cu2   O7    S    
Cu1   N1    S    
C49   H35   S    
N3    C41   S    
C42   H12   S    
C4    C6    A    
C2    O4    A    
C51   H44   S    
C48   H30   S    
C45   H22   S    
N4    C42   S    
C6    C34   A    
C42   H13   S    
C37   H1    S    
C41   H10   S    
C44   H18   S    
C38   H2    S    
C29   C30   D    
C11   N1    A    
C48   H31   S    
C44   H19   S    
C46   H24   S    
C15   C21   A    
C52   H48   S    
C30   N3    S    
C12   C20   A    
C17   C18   A    
C50   H39   S    
C16   C18   A    
C23   C28   S    
C1    O1    A    
C2    O2    A    
Cu2   N2    S    
C13   N1    A    
C8    C10   A    
C46   H25   S    
C10   C48   S    
C13   C15   A    
C14   C16   A    
C3    C4    A    
C49   H36   S    
C25   N7    S    
C7    C45   S    
N8    H45   S    
C11   N5    S    
C23   O7    A    
C21   C25   A    
C16   C22   A    
C27   C32   T    
C28   C31   T    
C3    C5    A    
C45   H23   S    
C12   N2    A    
N5    C49   S    
C23   O5    A    
C24   O6    A    
C42   H14   S    
C36   C38   A    
C26   N8    S    
C5    C10   A    
C37   C39   A    
C51   H42   S    
C9    C47   S    
C48   H32   S    
C13   H3    S    
C14   N2    A    
C17   C19   A    
C50   H40   S    
C34   C36   A    
C41   H8    S    
C44   H20   S    
Cu1   O4    S    
C33   C43   S    
C45   H21   S    
C7    C9    A    
C12   N6    S    
C46   H26   S    
C43   H15   S    
C24   O8    A    
N4    H11   S    
C22   C26   A    
C47   H29   S    
C43   H16   S    
C50   H38   S    
C47   H28   S    
C7    C39   A    
C8    C40   A    
N8    C52   S    
Cu1   O1    S    
C1    C36   S    
Cu2   O2    S    
C21   H5    S    
