data_mof_unit_10505.cif
_audit_creation_date              2012-12-10T16:39:35-0500
_audit_creation_method            fapswitch 2.2
_symmetry_space_group_name_H-M    P1
_symmetry_Int_Tables_number       1
_space_group_crystal_system       triclinic
_cell_length_a                    16.851801
_cell_length_b                    16.713742
_cell_length_c                    16.852676
_cell_angle_alpha                 66.833072
_cell_angle_beta                  66.703467
_cell_angle_gamma                 66.903651
_cell_volume                      3847.44400751

loop_
_atom_site_label
_atom_site_type_symbol
_atom_type_description
_atom_site_fract_x
_atom_site_fract_y
_atom_site_fract_z
_atom_type_partial_charge
C1    C     C_R   0.325966 0.949377 0.458147 -0.012829
C2    C     C_R   0.330091 0.441481 0.956780 -0.015633
C3    C     C_R   0.529984 0.405946 0.024760 -0.020519
C4    C     C_R   0.034019 0.445827 0.583701 -0.022974
C5    C     C_R   0.051010 0.517122 0.398674 -0.017654
C6    C     C_3   0.253982 0.066045 0.254172 -0.805713
C7    C     C_3   0.746523 0.941705 0.749504 -0.811031
C8    C     C_3   0.870875 0.304324 0.297991 -0.813914
C9    C     C_3   0.931098 0.738381 0.736299 -0.830698
C10   C     C_3   0.229285 0.238479 0.052948 -0.756495
C11   C     C_3   0.768951 0.764110 0.955488 -0.753116
C12   C     C_3   0.400572 0.160456 0.734431 -0.807306
C13   C     C_R   0.076159 0.664555 0.538114 0.000833
C14   C     C_3   0.599062 0.835473 0.263515 -0.796676
C15   C     C_3   0.179295 0.739710 0.400225 -0.835482
C16   C     C_3   0.843929 0.276227 0.599413 -0.828081
C17   C     C_3   0.709614 0.436635 0.170283 -0.901658
C18   C     C_3   0.289801 0.564029 0.821725 -0.870329
C19   C     C_3   0.260045 0.856140 0.611543 -0.807156
C20   C     C_3   0.740427 0.133737 0.387499 -0.823743
C21   C     C_3   0.496324 0.175666 0.145811 -0.838329
C22   C     C_3   0.501839 0.829947 0.851297 -0.830341
C23   C     C_3   0.146055 0.468208 0.182616 -0.819126
C24   C     C_R   0.959504 0.324303 0.456426 0.011808
C25   C     C_3   0.149008 0.381618 0.749293 -0.807689
C26   C     C_R   0.460346 0.968503 0.461411 0.020409
C27   C     C_R   0.541948 0.021188 0.541697 0.019871
C28   C     C_R   0.018617 0.439809 0.449245 0.019139
C29   C     C_R   0.058620 0.527562 0.534707 0.018182
C30   C     C_R   0.453998 0.449819 0.991745 0.015407
C31   C     C_R   0.548863 0.552831 0.998036 0.016112
C32   C     C_R   0.963590 0.179512 0.437915 0.892794
C33   C     C_R   0.675413 0.043615 0.543426 -0.010970
C34   C     C_R   0.036564 0.820460 0.562239 0.899117
C35   C     C_R   0.178761 0.433431 0.970337 0.892853
C36   C     C_R   0.821342 0.567279 0.028087 0.918289
C37   C     C_R   0.436030 0.967279 0.178983 0.910521
C38   C     C_R   0.563513 0.033463 0.820970 0.909851
C39   C     C_R   0.574620 0.836542 0.995118 0.916982
C40   C     C_R   0.425601 0.165054 0.002731 0.914414
C41   C     C_R   0.034750 0.563036 0.821087 0.905676
C42   C     C_R   0.977640 0.431324 0.177326 0.912983
C43   C     C_R   0.821547 0.031324 0.564130 0.899103
C44   C     C_R   0.014304 0.426535 0.311585 -0.005839
C45   C     C_R   0.178480 0.968032 0.436063 0.900629
C46   C     C_R   0.415025 0.953783 0.416356 -0.005881
C47   C     C_R   0.586573 0.038448 0.585697 -0.008448
C48   C     C_R   0.996894 0.397387 0.405976 -0.016620
C49   C     C_R   0.066868 0.576261 0.581228 -0.004254
C50   C     C_R   0.404864 0.398337 0.991552 -0.015245
C51   C     C_R   0.597228 0.604259 0.999999 -0.013277
C52   C     C_R   0.273979 0.960599 0.402984 -0.131206
C53   C     C_R   0.726362 0.037024 0.597625 -0.133095
C54   C     C_R   0.977197 0.392832 0.271581 -0.136407
C55   C     C_R   0.065751 0.536654 0.672096 -0.013100
C56   C     C_R   0.048963 0.594243 0.724128 -0.140241
C57   C     C_R   0.382337 0.254104 0.018755 -0.143627
C58   C     C_R   0.618563 0.748247 0.977032 -0.145267
C59   C     C_R   0.597237 0.041250 0.724632 -0.134164
C60   C     C_R   0.402536 0.958153 0.275567 -0.136516
C61   C     C_R   0.729604 0.611496 0.021067 -0.126715
C62   C     C_R   0.270967 0.390085 0.975013 -0.119199
C63   C     C_R   0.052157 0.721667 0.594318 -0.141251
C64   C     C_R   0.946106 0.278457 0.409121 -0.133525
C65   C     C_R   0.446889 0.078820 0.697903 0.195035
C66   C     C_R   0.430315 0.303295 0.025776 0.018049
C67   C     C_R   0.553817 0.915409 0.302541 0.187065
C68   C     C_R   0.107198 0.690654 0.442522 0.196720
C69   C     C_R   0.931170 0.302931 0.551823 0.205276
C70   C     C_R   0.685385 0.467487 0.083704 0.219575
C71   C     C_R   0.315619 0.534400 0.907807 0.212303
C72   C     C_R   0.291823 0.939684 0.551820 0.210026
C73   C     C_R   0.710260 0.050128 0.450231 0.218606
C74   C     C_R   0.500790 0.260764 0.067395 0.187706
C75   C     C_R   0.499928 0.742396 0.926556 0.182807
C76   C     C_R   0.066267 0.489278 0.261885 0.195357
C77   C     C_R   0.571108 0.699500 0.967683 0.019437
C78   C     C_R   0.072092 0.443159 0.708872 0.207647
C79   C     C_R   0.309782 0.986027 0.310711 0.095843
C80   C     C_R   0.689969 0.015436 0.689960 0.090926
C81   C     C_R   0.935648 0.323711 0.324539 0.077572
C82   C     C_R   0.021067 0.686643 0.686853 0.117547
C83   C     C_R   0.295203 0.295769 0.013685 0.067118
C84   C     C_R   0.705210 0.706186 0.984539 0.066807
C85   C     C_R   0.677825 0.008384 0.415357 -0.035741
C86   C     C_R   0.325060 0.979117 0.588587 -0.035373
C87   C     C_R   0.035003 0.406064 0.674094 -0.030236
C88   C     C_R   0.542495 0.053178 0.671076 -0.005950
C89   C     C_R   0.067958 0.546431 0.304743 -0.022372
C90   C     C_R   0.444091 0.692020 0.935762 -0.014290
C91   C     C_R   0.557769 0.310624 0.055715 -0.015716
C92   C     C_R   0.600227 0.941310 0.340096 -0.026063
C93   C     C_R   0.401450 0.049921 0.661926 -0.026956
C94   C     C_R   0.353374 0.588663 0.921822 -0.011940
C95   C     C_R   0.649145 0.413479 0.067966 -0.005366
C96   C     C_R   0.966204 0.333968 0.595568 -0.023030
C97   C     C_R   0.093584 0.645541 0.393489 -0.017310
C98   C     C_R   0.730508 0.975499 0.339409 0.139766
C99   C     C_R   0.458218 0.941980 0.329815 -0.005145
C100  C     C_R   0.272593 0.011434 0.664919 0.145241
C101  C     C_R   0.995713 0.334203 0.727788 0.139956
C102  C     C_R   0.084968 0.631780 0.256622 0.121626
C103  C     C_R   0.359555 0.734099 0.917823 0.124523
C104  C     C_R   0.641912 0.267864 0.073982 0.123967
C105  C     C_R   0.693125 0.940144 0.302531 0.132091
C106  C     C_R   0.308838 0.050020 0.699832 0.129719
C107  C     C_R   0.317307 0.684166 0.904394 0.122631
C108  C     C_R   0.684774 0.317709 0.086342 0.128859
C109  C     C_R   0.960229 0.298569 0.689554 0.133515
C110  C     C_R   0.671287 0.560573 0.035809 -0.007252
C111  C     C_R   0.100367 0.680335 0.299438 0.133107
C112  C     C_R   0.550324 0.970608 0.419375 -0.027513
C113  C     C_R   0.451999 0.018834 0.583807 -0.029443
C114  C     C_R   0.007200 0.405555 0.542827 -0.026500
C115  C     C_R   0.066495 0.564392 0.442223 -0.027050
C116  C     C_R   0.426010 0.545148 0.960505 -0.025211
C117  C     C_R   0.577055 0.457361 0.028732 -0.025794
C118  C     C_R   0.590379 0.998971 0.459097 -0.024627
C119  C     C_R   0.412237 0.989536 0.544552 -0.025497
C120  C     C_R   0.472882 0.596698 0.964938 -0.019192
H1    H     H_    0.295072 0.113612 0.209526 0.194880
H2    H     H_    0.889592 0.777271 0.688996 0.217672
H3    H     H_    0.892047 0.691817 0.789566 0.219317
H4    H     H_    0.939558 0.782928 0.765065 0.268242
H5    H     H_    0.168864 0.265964 0.103801 0.231046
H6    H     H_    0.211146 0.233949 0.998559 0.273037
H7    H     H_    0.256745 0.168025 0.088547 0.220510
H8    H     H_    0.745115 0.834532 0.917047 0.222484
H9    H     H_    0.779230 0.766825 0.015484 0.274674
H10   H     H_    0.833863 0.738549 0.909273 0.237160
H11   H     H_    0.369236 0.141046 0.808057 0.286863
H12   H     H_    0.231028 0.042954 0.215692 0.272406
H13   H     H_    0.449038 0.197137 0.721342 0.213250
H14   H     H_    0.349525 0.210040 0.699419 0.232347
H15   H     H_    0.549962 0.800003 0.275482 0.212571
H16   H     H_    0.630011 0.856551 0.189941 0.285544
H17   H     H_    0.650400 0.784406 0.297492 0.239329
H18   H     H_    0.151463 0.813279 0.372230 0.284990
H19   H     H_    0.211407 0.730913 0.450533 0.201730
H20   H     H_    0.234160 0.710769 0.346793 0.245263
H21   H     H_    0.802789 0.299519 0.552567 0.211735
H22   H     H_    0.856495 0.201788 0.627293 0.276532
H23   H     H_    0.194355 0.106905 0.294996 0.232753
H24   H     H_    0.801285 0.310154 0.653316 0.247042
H25   H     H_    0.782849 0.407522 0.157857 0.280053
H26   H     H_    0.688102 0.494211 0.198559 0.221642
H27   H     H_    0.675335 0.385340 0.222381 0.248334
H28   H     H_    0.314679 0.506172 0.792999 0.214919
H29   H     H_    0.216079 0.590137 0.832968 0.272519
H30   H     H_    0.321643 0.617095 0.769559 0.243869
H31   H     H_    0.186074 0.872185 0.639984 0.282943
H32   H     H_    0.291007 0.821271 0.667941 0.244665
H33   H     H_    0.280993 0.806632 0.573283 0.205379
H34   H     H_    0.808328 0.903097 0.710768 0.234249
H35   H     H_    0.718865 0.184922 0.423940 0.204950
H36   H     H_    0.814241 0.118221 0.357686 0.281164
H37   H     H_    0.708697 0.166216 0.331659 0.247260
H38   H     H_    0.427788 0.166434 0.174013 0.206893
H39   H     H_    0.544288 0.115217 0.125110 0.289565
H40   H     H_    0.512396 0.179866 0.201716 0.233291
H41   H     H_    0.451748 0.888027 0.874940 0.289504
H42   H     H_    0.569265 0.841687 0.824264 0.206881
H43   H     H_    0.486852 0.827561 0.793838 0.232356
H44   H     H_    0.153632 0.403496 0.172556 0.208300
H45   H     H_    0.765862 0.970078 0.786409 0.276342
H46   H     H_    0.140724 0.522437 0.119858 0.285370
H47   H     H_    0.209149 0.460337 0.194938 0.225896
H48   H     H_    0.196609 0.419231 0.736348 0.207178
H49   H     H_    0.125759 0.352151 0.822893 0.279844
H50   H     H_    0.187735 0.325219 0.717791 0.238456
H51   H     H_    0.709064 0.891095 0.794810 0.199842
H52   H     H_    0.820706 0.369109 0.278509 0.227002
H53   H     H_    0.906270 0.270341 0.243630 0.287842
H54   H     H_    0.831923 0.260576 0.355885 0.220982
I1    I     I_    0.219380 0.102785 0.812151 -0.286241
I2    I     I_    0.280542 0.860096 0.947732 -0.206301
I3    I     I_    0.056592 0.699856 0.128943 -0.191080
I4    I     I_    0.971022 0.294239 0.871221 -0.194988
I5    I     I_    0.780849 0.892744 0.186584 -0.251713
I6    I     I_    0.120960 0.811423 0.219770 -0.227778
I7    I     I_    0.907845 0.184811 0.777057 -0.223885
I8    I     I_    0.810716 0.246553 0.118315 -0.292019
I9    I     I_    0.190087 0.753221 0.874828 -0.276585
I10   I     I_    0.132818 0.016363 0.717164 -0.203038
I11   I     I_    0.871998 0.964294 0.291308 -0.200558
I12   I     I_    0.717970 0.138684 0.049590 -0.212462
O1    O     O_R   0.982940 0.138950 0.510160 -0.614704
O2    O     O_R   0.982940 0.510160 0.138950 -0.605456
O3    O     O_R   0.861050 0.017060 0.489840 -0.619663
O4    O     O_R   0.138950 0.982940 0.510160 -0.618827
O5    O     O_R   0.867700 0.025880 0.612340 -0.618222
O6    O     O_R   0.132300 0.974120 0.387660 -0.618434
O7    O     O_R   0.025880 0.612340 0.867700 -0.610861
O8    O     O_R   0.974120 0.387660 0.132300 -0.625124
O9    O     O_R   0.612340 0.867700 0.025880 -0.624852
O10   O     O_R   0.387660 0.132300 0.974120 -0.623477
O11   O     O_R   0.387660 0.974120 0.132300 -0.614993
O12   O     O_R   0.017060 0.861050 0.489840 -0.610342
O13   O     O_R   0.612340 0.025880 0.867700 -0.619047
O14   O     O_R   0.132300 0.387660 0.974120 -0.636157
O15   O     O_R   0.867700 0.612340 0.025880 -0.621921
O16   O     O_R   0.974120 0.132300 0.387660 -0.613587
O17   O     O_R   0.025880 0.867700 0.612340 -0.616827
O18   O     O_R   0.138950 0.510160 0.982940 -0.627022
O19   O     O_R   0.861050 0.489840 0.017060 -0.602536
O20   O     O_R   0.510160 0.982940 0.138950 -0.651165
O21   O     O_R   0.489840 0.017060 0.861050 -0.653277
O22   O     O_R   0.489840 0.861050 0.017060 -0.604534
O23   O     O_R   0.510160 0.138950 0.982940 -0.606012
O24   O     O_R   0.017060 0.489840 0.861050 -0.616045
Zn1   Zn    Zn3+2 0.004880 0.004880 0.583590 1.015190
Zn2   Zn    Zn3+2 0.995120 0.995120 0.416410 1.016900
Zn3   Zn    Zn3+2 0.004880 0.583590 0.004880 1.027541
Zn4   Zn    Zn3+2 0.995120 0.416410 0.995120 1.015545
Zn5   Zn    Zn3+2 0.583590 0.004880 0.004880 0.987267
Zn6   Zn    Zn3+2 0.416410 0.995120 0.995120 0.991931

loop_
_geom_bond_atom_site_label_1
_geom_bond_atom_site_label_2
_ccdc_geom_bond_type
O20   Zn5   S    
C78   C87   A    
C44   C48   A    
C62   C83   A    
C60   C79   A    
C22   H43   S    
C12   H11   S    
C7    H51   S    
C89   C102  A    
C16   H21   S    
C21   H38   S    
C16   H22   S    
C91   C104  A    
C46   C99   A    
C60   C99   A    
O17   Zn1   S    
C33   C47   A    
C19   C72   S    
C71   C94   A    
C30   C116  A    
C95   C117  A    
O23   Zn5   S    
C98   C105  A    
O13   Zn5   S    
C4    C114  A    
C20   H35   S    
C15   H20   S    
C98   I11   S    
C18   H28   S    
O10   Zn6   S    
C8    H54   S    
C1    C46   A    
C21   C74   S    
C14   H15   S    
C42   O2    A    
C66   C74   A    
C10   C83   S    
C9    H4    S    
C3    C91   A    
C37   O20   A    
C42   O8    A    
C59   C88   A    
O6    Zn2   S    
C41   O7    A    
C101  I4    S    
C70   C110  A    
C58   C77   A    
C87   C101  A    
C43   C53   S    
C31   C117  A    
C24   C69   A    
C19   H31   S    
C106  I1    S    
C57   C83   A    
C86   C119  A    
C85   C98   A    
C37   O11   A    
C97   C115  A    
C18   H29   S    
C2    C50   A    
C116  C120  A    
C23   C76   S    
O9    Zn5   S    
C4    C29   A    
C75   C90   A    
C67   C99   A    
C9    C82   S    
C15   H18   S    
C69   C96   A    
C65   C93   A    
C7    H45   S    
C101  C109  A    
C43   O5    A    
C17   C70   S    
C24   C64   A    
C12   H14   S    
C5    C115  A    
C32   O16   A    
C21   H39   S    
C96   C114  A    
C102  C111  A    
C22   C75   S    
C105  I5    S    
C22   H42   S    
C100  I10   S    
C61   C110  A    
C11   H9    S    
C35   O14   A    
C19   H32   S    
C15   H19   S    
C25   H48   S    
C33   C53   A    
C31   C120  A    
C34   C63   S    
C94   C107  A    
C1    C72   A    
C38   O21   A    
C63   C82   A    
C25   C78   S    
C24   C48   A    
C53   C80   A    
C8    H52   S    
C26   C119  A    
C32   C64   S    
C6    H12   S    
C16   H24   S    
C31   C51   A    
C4    C87   A    
C22   H41   S    
C94   C116  A    
C8    H53   S    
C92   C112  A    
C29   C49   A    
C45   C52   S    
C49   C55   A    
C39   C58   S    
C39   O9    A    
C40   O23   A    
O3    Zn2   S    
C8    C81   S    
C107  I9    S    
C90   C120  A    
C74   C91   A    
C3    C30   A    
C17   H25   S    
O4    Zn1   S    
C51   C77   A    
C41   C56   S    
C58   C84   A    
C93   C106  A    
C23   H46   S    
C75   C77   A    
C34   O12   A    
C45   O6    A    
O14   Zn4   S    
C13   C63   A    
C14   H17   S    
C34   O17   A    
C14   C67   S    
C73   C85   A    
C39   O22   A    
C55   C56   A    
C9    H2    S    
C5    C28   A    
C68   C97   A    
C113  C119  A    
C56   C82   A    
C50   C66   A    
O15   Zn3   S    
O11   Zn6   S    
C28   C114  A    
C3    C117  A    
C23   H47   S    
C41   O24   A    
C27   C113  A    
C33   C73   A    
C12   C65   S    
O1    Zn1   S    
O19   Zn4   S    
C51   C110  A    
C20   H37   S    
C111  I6    S    
C19   H33   S    
C21   H40   S    
C13   C49   A    
C36   O15   A    
C10   H7    S    
C52   C79   A    
C11   H10   S    
C26   C112  A    
C64   C81   A    
C104  C108  A    
O12   Zn2   S    
C65   C88   A    
C23   H44   S    
C40   O10   A    
C27   C118  A    
C27   C47   A    
C18   C71   S    
C55   C78   A    
C28   C48   A    
C40   C57   S    
C20   H36   S    
C32   O1    A    
C17   H27   S    
C67   C92   A    
C16   C69   S    
O16   Zn2   S    
C61   C84   A    
C10   H6    S    
C59   C80   A    
O8    Zn4   S    
C72   C86   A    
O2    Zn3   S    
O7    Zn3   S    
C36   C61   S    
C11   C84   S    
C104  I12   S    
C96   C109  A    
C76   C89   A    
C100  C106  A    
C6    H1    S    
C108  I8    S    
C12   H13   S    
C25   H49   S    
C47   C88   A    
C70   C95   A    
C57   C66   A    
O24   Zn4   S    
C42   C54   S    
C112  C118  A    
C86   C100  A    
C6    C79   S    
C7    H34   S    
C14   H16   S    
C45   O4    A    
C97   C111  A    
C15   C68   S    
O18   Zn3   S    
C109  I7    S    
O21   Zn6   S    
C9    H3    S    
C29   C115  A    
C20   C73   S    
C93   C113  A    
C35   C62   S    
C11   H8    S    
C36   O19   A    
C30   C50   A    
C85   C118  A    
C35   O18   A    
C1    C52   A    
C90   C103  A    
C37   C60   S    
C95   C108  A    
C26   C46   A    
C17   H26   S    
C38   C59   S    
C44   C54   A    
C92   C105  A    
C43   O3    A    
O22   Zn6   S    
C103  I2    S    
C102  I3    S    
C38   O13   A    
C103  C107  A    
C10   H5    S    
C44   C76   A    
C6    H23   S    
C18   H30   S    
C2    C62   A    
C54   C81   A    
C5    C89   A    
C2    C71   A    
O5    Zn1   S    
C7    C80   S    
C13   C68   A    
C25   H50   S    
