data_mof_unit_51981.cif
_audit_creation_date              2012-12-10T19:43:03-0500
_audit_creation_method            fapswitch 2.2
_symmetry_space_group_name_H-M    P1
_symmetry_Int_Tables_number       1
_space_group_crystal_system       triclinic
_cell_length_a                    18.325914
_cell_length_b                    18.337273
_cell_length_c                    18.270712
_cell_angle_alpha                 119.661895
_cell_angle_beta                  89.909624
_cell_angle_gamma                 59.793484
_cell_volume                      4346.61762161

loop_
_atom_site_label
_atom_site_type_symbol
_atom_type_description
_atom_site_fract_x
_atom_site_fract_y
_atom_site_fract_z
_atom_type_partial_charge
C1    C     C_R   0.859861 0.779972 0.638239 0.802691
C2    C     C_R   0.109981 0.541461 0.939342 -0.000201
C3    C     C_3   0.093411 0.117115 0.201363 -0.798004
C4    C     C_R   0.059803 0.536671 0.881426 0.177957
C5    C     C_R   0.138448 0.220031 0.360084 0.842102
C6    C     C_R   0.085252 0.530737 0.805763 -0.101639
C7    C     C_R   0.243923 0.051966 0.334043 0.120895
C8    C     C_R   0.185776 0.108786 0.304899 -0.088732
C9    C     C_R   0.170614 0.056606 0.224772 0.057090
C10   C     C_R   0.227223 0.947092 0.168057 -0.040132
C11   C     C_R   0.293522 0.891681 0.195883 -0.179200
C12   C     C_R   0.295403 0.946458 0.281721 0.024328
C13   C     C_R   0.411796 0.469699 0.693603 -0.209553
C14   C     C_3   0.370895 0.937190 0.319001 -0.150614
C15   C     C_3   0.313131 0.057287 0.376520 -0.007836
C16   C     C_R   0.196925 0.581018 0.331264 0.004122
C17   C     C_R   0.859973 0.498033 0.638026 0.814621
C18   C     C_R   0.205729 0.491070 0.305679 -0.134862
C19   C     C_R   0.281017 0.395354 0.231340 -0.044201
C20   C     C_R   0.336745 0.395517 0.176898 0.101364
C21   C     C_R   0.314536 0.491450 0.197296 -0.049054
C22   C     C_R   0.249816 0.581280 0.278828 -0.009629
C23   C     C_3   0.179764 0.691138 0.311193 0.259888
C24   C     C_R   0.331395 0.482891 0.721787 -0.010253
C25   C     C_3   0.118527 0.690200 0.370398 0.326572
C26   C     C_R   0.831329 0.946838 0.749427 -0.003800
C27   C     C_R   0.804528 0.891564 0.686405 -0.185099
C28   C     C_R   0.730093 0.945719 0.664818 -0.035716
C29   C     C_R   0.141446 0.498454 0.360117 0.875391
C30   C     C_R   0.674276 0.055872 0.720785 -0.068947
C31   C     C_R   0.697110 0.108696 0.793860 -0.145339
C32   C     C_R   0.779245 0.052121 0.801446 -0.027642
C33   C     C_3   0.810684 0.059678 0.879385 0.057006
C34   C     C_3   0.871306 0.939097 0.819340 0.043957
C35   C     C_R   0.282726 0.470783 0.662539 0.069152
C36   C     C_R   0.826341 0.485164 0.226385 0.071371
C37   C     C_R   0.804619 0.492696 0.303961 -0.184915
C38   C     C_R   0.735388 0.482796 0.320323 -0.022395
C39   C     C_R   0.679365 0.484073 0.266207 0.120958
C40   C     C_R   0.696783 0.491244 0.194890 -0.109134
C41   C     C_R   0.859938 0.499132 0.360147 0.814949
C42   C     C_R   0.774327 0.483421 0.172623 0.088477
C43   C     C_3   0.793506 0.538834 0.144857 0.051751
C44   C     C_3   0.852913 0.540546 0.206296 0.219638
C45   C     C_R   0.718888 0.577581 0.743818 -0.009770
C46   C     C_R   0.300969 0.504202 0.806487 -0.085981
C47   C     C_R   0.803396 0.489349 0.684026 -0.110595
C48   C     C_R   0.827959 0.393570 0.665868 0.119045
C49   C     C_R   0.774377 0.393816 0.722909 -0.047477
C50   C     C_R   0.695086 0.489214 0.792755 -0.197166
C51   C     C_R   0.665937 0.577395 0.796308 0.025899
C52   C     C_3   0.624951 0.687159 0.872291 -0.251937
C53   C     C_R   0.138714 0.500608 0.641046 0.824967
C54   C     C_3   0.684336 0.687406 0.812879 -0.270949
C55   C     C_R   0.361627 0.498618 0.140103 0.809751
C56   C     C_R   0.640096 0.497831 0.857871 0.778986
C57   C     C_R   0.218069 0.521264 0.836180 0.034567
C58   C     C_R   0.357776 0.780004 0.139796 0.865460
C59   C     C_R   0.640189 0.220021 0.858184 0.768168
C60   C     C_R   0.640120 0.498554 0.139864 0.828173
C61   C     C_R   0.360203 0.500097 0.859800 0.834767
C62   C     C_R   0.322494 0.431961 0.572279 0.067110
C63   C     C_R   0.395022 0.434617 0.550699 0.029072
C64   C     C_R   0.440116 0.453576 0.612716 0.167579
C65   C     C_3   0.978627 0.537589 0.898974 -0.916921
C66   C     C_2   0.218249 0.893694 0.079400 0.475266
C67   C     C_2   0.384371 0.890450 0.371182 0.467326
C68   C     C_R   0.166997 0.515473 0.778432 -0.008269
C69   C     C_2   0.458358 0.882783 0.250061 0.383544
C70   C     C_2   0.281749 0.109806 0.476599 0.474646
C71   C     C_3   0.350105 0.104825 0.352654 -0.855421
C72   C     C_2   0.303422 0.295533 0.210574 0.436844
C73   C     C_3   0.420621 0.294277 0.101214 -0.848799
C74   C     C_3   0.210765 0.761092 0.361578 -0.720998
C75   C     C_3   0.148985 0.701910 0.236469 -0.830557
C76   C     C_3   0.094770 0.760947 0.472409 -0.810148
C77   C     C_3   0.302228 0.368119 0.494991 -0.872987
C78   C     C_3   0.035607 0.697415 0.345614 -0.863196
C79   C     C_R   0.197510 0.495061 0.694493 -0.107527
C80   C     C_2   0.715001 0.888159 0.581381 0.454960
C81   C     C_2   0.592162 0.115955 0.704751 0.550268
C82   C     C_2   0.859532 0.110105 0.899756 0.517143
C83   C     C_3   0.734653 0.112849 0.963199 -0.835095
C84   C     C_3   0.973168 0.886871 0.787544 -0.725740
C85   C     C_2   0.847252 0.889089 0.851027 0.496031
C86   C     C_2   0.723096 0.470266 0.392621 0.390002
C87   C     C_3   0.600198 0.481609 0.285099 -0.752781
C88   C     C_2   0.844184 0.473945 0.045968 0.450030
C89   C     C_2   0.421359 0.417131 0.462974 0.402021
C90   C     C_R   0.183246 0.544775 0.921666 -0.025890
C91   C     C_3   0.708943 0.643901 0.173790 -0.854882
C92   C     C_3   0.954669 0.473376 0.158077 -0.811472
C93   C     C_3   0.820483 0.647499 0.289619 -0.792595
C94   C     C_3   0.906859 0.292678 0.584669 -0.689017
C95   C     C_2   0.799217 0.296123 0.709336 0.473875
C96   C     C_2   0.644667 0.698736 0.956133 0.454546
C97   C     C_2   0.755757 0.699672 0.844777 0.469348
C98   C     C_3   0.519843 0.454692 0.594223 -0.766018
C99   C     C_2   0.210717 0.589522 0.998923 0.411093
C100  C     C_2   0.082425 0.547623 0.020118 0.340575
H1    H     H_    0.552460 0.738155 0.883759 0.192423
H2    H     H_    0.464364 0.851070 0.180358 0.113876
H3    H     H_    0.329010 0.110089 0.512254 0.068695
H4    H     H_    0.369472 0.069587 0.279705 0.261871
H5    H     H_    0.298314 0.188392 0.387087 0.239684
H6    H     H_    0.409427 0.093964 0.373959 0.269312
H7    H     H_    0.333246 0.228930 0.141794 0.081760
H8    H     H_    0.469021 0.303772 0.077865 0.243924
H9    H     H_    0.457522 0.244142 0.124090 0.230350
H10   H     H_    0.402138 0.254372 0.044171 0.252582
H11   H     H_    0.258076 0.751093 0.313611 0.284338
H12   H     H_    0.644788 0.738168 0.791109 0.196520
H13   H     H_    0.152284 0.843126 0.402298 0.241981
H14   H     H_    0.246093 0.742606 0.405625 0.226260
H15   H     H_    0.140281 0.640902 0.191031 0.251137
H16   H     H_    0.084777 0.778470 0.266080 0.255460
H17   H     H_    0.199460 0.695571 0.195525 0.246772
H18   H     H_    0.053821 0.842775 0.495466 0.243521
H19   H     H_    0.054933 0.751167 0.507943 0.262608
H20   H     H_    0.155541 0.743313 0.492313 0.226004
H21   H     H_    0.278953 0.331323 0.511780 0.235652
H22   H     H_    0.363959 0.302475 0.435899 0.248785
H23   H     H_    0.453834 0.473466 0.734409 0.158600
H24   H     H_    0.252777 0.415533 0.475107 0.256064
H25   H     H_    0.054248 0.635345 0.274914 0.240132
H26   H     H_    0.000144 0.689700 0.387744 0.224201
H27   H     H_    0.988135 0.773425 0.357166 0.256021
H28   H     H_    0.719510 0.819598 0.562277 0.091321
H29   H     H_    0.571625 0.189441 0.718314 0.026965
H30   H     H_    0.865749 0.138565 0.861932 0.094103
H31   H     H_    0.693340 0.197789 0.998199 0.229388
H32   H     H_    0.689659 0.087630 0.945665 0.218114
H33   H     H_    0.763500 0.094668 0.010139 0.277186
H34   H     H_    0.040409 0.535411 0.767484 0.163910
H35   H     H_    0.009598 0.802352 0.738699 0.263068
H36   H     H_    0.989689 0.916522 0.754690 0.208333
H37   H     H_    0.997769 0.901152 0.845329 0.271199
H38   H     H_    0.781971 0.902770 0.856254 0.099780
H39   H     H_    0.710124 0.528067 0.460971 0.095288
H40   H     H_    0.536757 0.556112 0.307726 0.245824
H41   H     H_    0.604604 0.418206 0.223571 0.224116
H42   H     H_    0.595400 0.469844 0.338191 0.273259
H43   H     H_    0.871594 0.500926 0.021001 0.051905
H44   H     H_    0.373400 0.429204 0.427894 0.089397
H45   H     H_    0.996839 0.475256 0.907446 0.249738
H46   H     H_    0.728132 0.691530 0.171532 0.263873
H47   H     H_    0.670166 0.632799 0.127648 0.235539
H48   H     H_    0.664065 0.686477 0.242186 0.266827
H49   H     H_    0.991570 0.470148 0.205783 0.261542
H50   H     H_    0.979751 0.393099 0.103728 0.246716
H51   H     H_    0.970095 0.506880 0.129109 0.229499
H52   H     H_    0.750922 0.690256 0.332197 0.243930
H53   H     H_    0.863939 0.639267 0.331375 0.219240
H54   H     H_    0.823826 0.693636 0.268879 0.253415
H55   H     H_    0.923959 0.301243 0.532473 0.209718
H56   H     H_    0.924797 0.613134 0.960281 0.234834
H57   H     H_    0.966228 0.261257 0.604842 0.283181
H58   H     H_    0.890416 0.235929 0.551732 0.231543
H59   H     H_    0.747360 0.286998 0.721589 0.041798
H60   H     H_    0.710823 0.644995 0.952567 0.045539
H61   H     H_    0.803328 0.649095 0.861250 0.040314
H62   H     H_    0.576701 0.376874 0.537572 0.276804
H63   H     H_    0.501588 0.511781 0.578605 0.258547
H64   H     H_    0.543273 0.476658 0.652618 0.205326
H65   H     H_    0.234572 0.554311 0.034692 0.117369
H66   H     H_    0.012085 0.590329 0.055841 0.083402
H67   H     H_    0.951815 0.524216 0.842688 0.243666
H68   H     H_    0.033758 0.183748 0.262304 0.241099
H69   H     H_    0.113586 0.144734 0.168831 0.255762
H70   H     H_    0.070695 0.071078 0.156401 0.235422
H71   H     H_    0.208674 0.923871 0.039296 0.059354
H72   H     H_    0.428668 0.891952 0.410396 0.078214
O1    O     O_3   0.000000 0.500000 0.500000 -0.491975
O2    O     O_R   0.676550 0.268320 0.884150 -0.647540
O3    O     O_R   0.555150 0.560600 0.176460 -0.645727
O4    O     O_R   0.944950 0.731580 0.615800 -0.641070
O5    O     O_R   0.384220 0.439220 0.884170 -0.659383
O6    O     O_R   0.676580 0.439170 0.055020 -0.595497
O7    O     O_R   0.384230 0.560650 0.884170 -0.607861
O8    O     O_R   0.384260 0.731500 0.055040 -0.605719
O9    O     O_R   0.555100 0.268330 0.884160 -0.647612
O10   O     O_R   0.384250 0.560620 0.176470 -0.644612
O11   O     O_R   0.676570 0.439190 0.884150 -0.632428
O12   O     O_R   0.944910 0.439280 0.615800 -0.635243
O13   O     O_R   0.115780 0.268410 0.444920 -0.608040
O14   O     O_R   0.823470 0.560720 0.615800 -0.630719
O15   O     O_R   0.115800 0.439290 0.323490 -0.619668
O16   O     O_R   0.823460 0.560740 0.444930 -0.675744
O17   O     O_R   0.115830 0.560690 0.615790 -0.631554
O18   O     O_R   0.944900 0.439310 0.323490 -0.634759
O19   O     O_R   0.115810 0.439260 0.615790 -0.642592
O20   O     O_2   0.217349 0.818732 0.052194 -0.479976
O21   O     O_2   0.346462 0.851195 0.370230 -0.552277
O22   O     O_2   0.522839 0.876252 0.272731 -0.558070
O23   O     O_R   0.115820 0.560710 0.444920 -0.660826
O24   O     O_2   0.204623 0.151431 0.518003 -0.526957
O25   O     O_2   0.292260 0.285497 0.270042 -0.590261
O26   O     O_2   0.699394 0.915967 0.531392 -0.546440
O27   O     O_2   0.545156 0.085807 0.679177 -0.535146
O28   O     O_2   0.893191 0.118518 0.958514 -0.541253
O29   O     O_2   0.900005 0.833824 0.871492 -0.533665
O30   O     O_2   0.730246 0.393149 0.375508 -0.542872
O31   O     O_2   0.854531 0.392191 0.993656 -0.521972
O32   O     O_2   0.496090 0.387691 0.427900 -0.552875
O33   O     O_2   0.877277 0.226274 0.686977 -0.552457
O34   O     O_R   0.823500 0.731590 0.615800 -0.653787
O35   O     O_2   0.585812 0.768359 0.028772 -0.577732
O36   O     O_2   0.760968 0.766306 0.851481 -0.565510
O37   O     O_2   0.204490 0.668279 0.024481 -0.528003
O38   O     O_2   0.138188 0.500774 0.044880 -0.600815
O39   O     O_R   0.115770 0.268420 0.323490 -0.622578
O40   O     O_3   0.500040 0.499910 0.999960 -0.503067
O41   O     O_R   0.384230 0.439200 0.055040 -0.633307
O42   O     O_R   0.555130 0.560630 0.884160 -0.639001
O43   O     O_R   0.384270 0.731490 0.176470 -0.615287
Zn1   Zn    Zn3+2 0.043370 0.413240 0.543370 1.008946
Zn2   Zn    Zn3+2 0.869870 0.586760 0.543380 0.967407
Zn3   Zn    Zn3+2 0.043360 0.413260 0.369880 0.985643
Zn4   Zn    Zn3+2 0.043390 0.586740 0.543370 0.962054
Zn5   Zn    Zn3+2 0.456670 0.586670 0.956580 1.021876
Zn6   Zn    Zn3+2 0.456680 0.586650 0.130080 0.995693
Zn7   Zn    Zn3+2 0.630180 0.413150 0.956570 0.994711
Zn8   Zn    Zn3+2 0.456650 0.413170 0.956580 0.975391

loop_
_geom_bond_atom_site_label_1
_geom_bond_atom_site_label_2
_ccdc_geom_bond_type
C95   O33   D    
C71   H4    S    
C1    O4    A    
C26   C32   A    
C40   C60   S    
O7    Zn5   S    
O9    Zn8   S    
C58   O8    A    
C62   C77   S    
C36   C42   A    
C19   C20   A    
O2    Zn7   S    
C5    O13   A    
C87   H40   S    
C59   O2    A    
C87   H41   S    
C91   H47   S    
C98   H63   S    
C73   H10   S    
C84   H35   S    
O40   Zn7   S    
C69   H2    S    
C61   O5    A    
C26   C27   A    
C76   H20   S    
C48   C94   S    
C41   O18   A    
C38   C86   S    
C97   O36   D    
C95   H59   S    
C43   C88   S    
C36   C37   A    
C53   C79   S    
C65   H56   S    
C1    O34   A    
C30   C31   A    
C13   H23   S    
O12   Zn1   S    
C45   C51   A    
C60   O6    A    
C74   H14   S    
O43   Zn6   S    
C100  H66   S    
C18   C19   A    
C45   C47   A    
C100  O38   D    
C59   O9    A    
C4    C65   S    
C44   C93   S    
C72   O25   D    
C26   C34   S    
C62   C63   A    
C31   C32   A    
C8    C9    A    
O4    Zn4   S    
C75   H17   S    
C20   C73   S    
C14   C67   S    
C54   C97   S    
C77   H22   S    
C39   C87   S    
C82   H30   S    
C11   C58   S    
O1    Zn2   S    
C9    C10   A    
C86   O30   D    
C88   H43   S    
C56   O42   A    
C44   C92   S    
C85   O29   D    
C58   O43   A    
C68   C79   A    
C6    C68   A    
C2    C100  S    
C94   H58   S    
C87   H42   S    
C63   C64   A    
C49   C95   S    
C19   C72   S    
C34   C84   S    
C28   C80   S    
C78   H27   S    
O18   Zn3   S    
O23   Zn4   S    
C91   H48   S    
C98   H62   S    
C52   C54   S    
C3    H68   S    
C33   C34   S    
O40   Zn6   S    
C10   C66   S    
O34   Zn2   S    
C7    C12   A    
C5    O39   A    
O14   Zn2   S    
C52   H1    S    
C24   C35   A    
C57   C90   A    
C46   C61   S    
C51   C52   S    
C76   H19   S    
C66   H71   S    
C7    C8    A    
O1    Zn1   S    
C4    C6    A    
C74   H11   S    
C21   C55   S    
C70   H3    S    
C94   H55   S    
C96   O35   D    
C7    C15   S    
O40   Zn5   S    
O16   Zn2   S    
C74   H13   S    
C43   C91   S    
C25   C78   S    
C13   C24   A    
C66   O20   D    
C34   C85   S    
C2    C4    A    
C43   C44   S    
C82   O28   D    
C37   C38   A    
C3    C9    S    
O19   Zn1   S    
C76   H18   S    
C33   C83   S    
C81   H29   S    
C47   C48   A    
C72   H7    S    
C17   O14   A    
C80   O26   D    
C63   C89   S    
C92   H51   S    
C50   C51   A    
O3    Zn6   S    
C54   H12   S    
C18   C29   S    
O5    Zn8   S    
O1    Zn3   S    
C53   O19   A    
C89   O32   D    
C86   H39   S    
C16   C18   A    
C48   C49   A    
C96   H60   S    
C12   C14   S    
C84   H37   S    
C61   O7    A    
C94   H57   S    
C97   H61   S    
C71   H5    S    
C46   C57   A    
C92   H50   S    
C14   C69   S    
C36   C44   S    
C75   H15   S    
C42   C43   S    
C23   C74   S    
C65   H45   S    
C78   H26   S    
C90   C99   S    
C39   C40   A    
C99   O37   D    
C31   C59   S    
C16   C25   S    
C67   O21   D    
C15   C70   S    
C84   H36   S    
O10   Zn6   S    
C16   C22   A    
C2    C90   A    
C14   C15   S    
C3    H69   S    
C17   C47   S    
C23   C75   S    
C40   C42   A    
C73   H8    S    
C93   H54   S    
C45   C54   S    
C5    C8    S    
C98   H64   S    
C11   C12   A    
C3    H70   S    
C73   H9    S    
C75   H16   S    
C56   O11   A    
C67   H72   S    
C89   H44   S    
C15   C71   S    
C65   H67   S    
O13   Zn1   S    
C25   C76   S    
C24   C46   A    
C32   C33   S    
C30   C81   S    
C93   H53   S    
C83   H31   S    
C80   H28   S    
C28   C30   A    
C6    H34   S    
C77   H24   S    
C29   O23   A    
O41   Zn8   S    
C17   O12   A    
C38   C39   A    
C13   C64   A    
O11   Zn7   S    
C64   C98   S    
C69   O22   D    
C55   O10   A    
C55   O41   A    
C52   C96   S    
C35   C62   A    
O39   Zn3   S    
C88   O31   D    
C37   C41   S    
O1    Zn4   S    
C33   C82   S    
C50   C56   S    
C83   H33   S    
C77   H21   S    
C10   C11   A    
C81   O27   D    
C29   O15   A    
C83   H32   S    
C23   C25   S    
C20   C21   A    
C41   O16   A    
C70   O24   D    
C49   C50   A    
C71   H6    S    
C92   H49   S    
C1    C27   S    
C60   O3    A    
C22   C23   S    
O6    Zn7   S    
C93   H52   S    
O42   Zn5   S    
C35   C79   A    
C57   C68   A    
C99   H65   S    
C21   C22   A    
C78   H25   S    
C53   O17   A    
C85   H38   S    
O40   Zn8   S    
C91   H46   S    
O17   Zn4   S    
O8    Zn5   S    
C27   C28   A    
O15   Zn3   S    
