data_mof_unit_16390.cif
_audit_creation_date              2012-12-11T15:10:42-0500
_audit_creation_method            fapswitch 2.2
_symmetry_space_group_name_H-M    P1
_symmetry_Int_Tables_number       1
_space_group_crystal_system       triclinic
_cell_length_a                    21.214354
_cell_length_b                    7.233225
_cell_length_c                    18.239176
_cell_angle_alpha                 90.010616
_cell_angle_beta                  93.267279
_cell_angle_gamma                 90.009673
_cell_volume                      2794.21923534

loop_
_atom_site_label
_atom_site_type_symbol
_atom_type_description
_atom_site_fract_x
_atom_site_fract_y
_atom_site_fract_z
_atom_type_partial_charge
O1    O     O_R   0.448880 0.506250 0.415280 -0.529971
O2    O     O_R   0.551120 0.006250 0.584720 -0.529932
O3    O     O_R   0.434830 0.174000 0.557310 -0.521118
O4    O     O_R   0.565170 0.674000 0.442690 -0.521132
C1    C     C_R   0.416989 0.344601 0.579677 0.696556
C2    C     C_R   0.583010 0.844602 0.420324 0.696501
O5    O     O_R   0.441680 0.176440 0.414130 -0.530530
O6    O     O_R   0.558320 0.676440 0.585870 -0.530525
O7    O     O_R   0.558020 0.007570 0.440520 -0.519447
O8    O     O_R   0.441980 0.507570 0.559480 -0.519477
C3    C     C_R   0.428224 0.344644 0.388255 0.675378
C4    C     C_R   0.571778 0.844700 0.611741 0.675398
O9    O     O_3   0.538160 0.339670 0.508820 -0.364290
O10   O     O_3   0.461840 0.839670 0.491180 -0.364317
V1    V     V_3+5 0.492920 0.064260 0.498360 1.420919
V2    V     V_3+5 0.507080 0.564260 0.501640 1.420831
C5    C     C_R   0.876352 0.919530 0.689176 -0.166464
C6    C     C_R   0.123749 0.422211 0.310820 -0.166415
H1    H     H_    0.963560 0.908111 0.753779 0.117512
H2    H     H_    0.036488 0.410838 0.246314 0.117455
H3    H     H_    0.798074 0.933372 0.570505 0.125161
H4    H     H_    0.202107 0.437277 0.429397 0.125158
H5    H     H_    0.899988 0.913935 0.638082 0.120479
H6    H     H_    0.100135 0.417890 0.361946 0.120483
C7    C     C_R   0.884431 0.940163 0.821910 -0.050395
C8    C     C_R   0.115624 0.440468 0.178036 -0.050033
C9    C     C_R   0.583274 0.793589 0.744984 -0.155942
C10   C     C_R   0.416613 0.291759 0.255130 -0.155799
C11   C     C_R   0.619343 0.768145 0.810274 -0.117379
C12   C     C_R   0.380476 0.265520 0.189936 -0.117430
C13   C     C_R   0.683889 0.804762 0.813814 -0.185274
C14   C     C_R   0.315979 0.302775 0.186355 -0.185187
C15   C     C_R   0.713609 0.877634 0.752868 0.077822
C16   C     C_R   0.286394 0.377161 0.247123 0.077805
C17   C     C_R   0.677651 0.885271 0.684072 0.076027
C18   C     C_R   0.322401 0.385683 0.315872 0.076049
C19   C     C_R   0.779808 0.919918 0.756181 0.040404
C20   C     C_R   0.220251 0.420133 0.243742 0.040278
C21   C     C_R   0.810370 0.921650 0.688943 0.117651
C22   C     C_R   0.189730 0.423499 0.310999 0.117653
C23   C     C_R   0.774868 0.924152 0.621809 -0.187447
C24   C     C_R   0.225272 0.426823 0.378101 -0.187488
C25   C     C_R   0.709262 0.915290 0.619578 -0.190090
C26   C     C_R   0.290864 0.417234 0.380309 -0.190189
C27   C     C_R   0.817514 0.959286 0.822513 0.060450
C28   C     C_R   0.182566 0.458702 0.177326 0.060679
C29   C     C_R   0.912656 0.917770 0.755093 -0.206124
C30   C     C_R   0.087405 0.419727 0.244935 -0.206162
C31   C     C_R   0.611594 0.848913 0.681087 -0.082684
C32   C     C_R   0.388407 0.348586 0.318906 -0.082861
H7    H     H_    0.533319 0.761356 0.743394 0.105502
H8    H     H_    0.466519 0.258904 0.256771 0.105571
H9    H     H_    0.710706 0.768353 0.863953 0.113186
H10   H     H_    0.289085 0.265698 0.136339 0.113306
H11   H     H_    0.597365 0.715395 0.858147 0.119329
H12   H     H_    0.402353 0.211599 0.142190 0.119325
H13   H     H_    0.683845 0.919717 0.566413 0.109390
H14   H     H_    0.316313 0.422345 0.433447 0.109631
C33   C     C_1   0.864497 0.938912 0.132035 -0.211252
C34   C     C_1   0.135505 0.438914 0.867966 -0.211164
C35   C     C_1   0.821655 0.924883 0.175804 -0.002869
C36   C     C_1   0.178346 0.424884 0.824198 -0.002849
C37   C     C_1   0.771128 0.905787 0.227973 -0.004340
C38   C     C_1   0.228874 0.405788 0.772029 -0.004349
C39   C     C_1   0.728594 0.889170 0.272015 -0.004616
C40   C     C_1   0.271408 0.389170 0.727987 -0.004620
C41   C     C_1   0.678076 0.870056 0.324197 -0.002720
C42   C     C_1   0.321925 0.370056 0.675804 -0.002727
C43   C     C_1   0.635255 0.855998 0.367993 -0.207016
C44   C     C_1   0.364745 0.355997 0.632008 -0.207013
O11   O     O_R   0.058070 0.289240 0.940580 -0.517976
O12   O     O_R   0.941930 0.789240 0.059420 -0.517980
O13   O     O_R   0.058330 0.616740 0.085880 -0.531736
O14   O     O_R   0.941670 0.116740 0.914120 -0.531659
C45   C     C_R   0.073251 0.448685 0.110655 0.709570
C46   C     C_R   0.926768 0.948634 0.889324 0.709414
O15   O     O_R   0.065180 0.619040 0.942700 -0.525178
O16   O     O_R   0.934820 0.119040 0.057300 -0.525047
O17   O     O_R   0.948870 0.787780 0.915270 -0.533070
O18   O     O_R   0.051130 0.287780 0.084730 -0.533050
C47   C     C_R   0.083224 0.450304 0.920238 0.706566
C48   C     C_R   0.916777 0.950303 0.079762 0.706670
O19   O     O_3   0.961870 0.453310 0.991210 -0.368896
O20   O     O_3   0.038130 0.953310 0.008790 -0.368803
V3    V     V_3+5 0.007070 0.728770 0.001630 1.387407
V4    V     V_3+5 0.992930 0.228770 0.998370 1.387451
C49   C     C_3   0.789228 0.050840 0.888725 -0.393143
C50   C     C_3   0.810166 0.253224 0.898795 -0.672105
H15   H     H_    0.842195 0.267836 0.948665 0.232258
H16   H     H_    0.834077 0.306221 0.850370 0.229851
H17   H     H_    0.768684 0.343442 0.906755 0.193184
H18   H     H_    0.737244 0.057894 0.883032 0.193449
H19   H     H_    0.801913 0.969876 0.939220 0.153968
C51   C     C_3   0.210962 0.548583 0.110835 -0.393588
C52   C     C_3   0.190300 0.750983 0.100156 -0.673444
H20   H     H_    0.157843 0.764745 0.050619 0.232621
H21   H     H_    0.167002 0.805757 0.148714 0.229933
H22   H     H_    0.231842 0.840218 0.091231 0.193257
H23   H     H_    0.262951 0.555225 0.116536 0.193660
H24   H     H_    0.198191 0.466743 0.060574 0.154166

loop_
_geom_bond_atom_site_label_1
_geom_bond_atom_site_label_2
_ccdc_geom_bond_type
C2    C43   S    
C40   C42   S    
C49   C50   S    
C37   C39   T    
C9    C11   A    
C23   C25   A    
C52   H20   S    
O1    C3    A    
C33   C48   S    
O2    C4    A    
C2    O7    A    
O12   V3    S    
C52   H22   S    
O3    V1    S    
C21   C23   A    
O5    C3    A    
C5    H5    S    
O14   C46   A    
C6    H6    S    
C27   C49   S    
H1    C29   S    
C34   C36   T    
C5    C21   A    
C35   C37   S    
C6    C22   A    
O18   V4    S    
C10   C32   A    
C26   H14   S    
C39   C41   S    
C17   C31   A    
C36   C38   S    
C13   C15   A    
C51   H24   S    
C12   C14   A    
C17   C25   A    
C45   O18   A    
C7    C29   A    
C8    C30   A    
O16   V4    S    
O5    V1    S    
O15   V3    S    
O6    V2    S    
C49   H18   S    
O13   C45   A    
C24   C26   A    
C14   H10   S    
C9    H7    S    
C4    C31   S    
C33   C35   T    
O20   V3    S    
O4    C2    A    
C25   H13   S    
C11   H11   S    
C12   H12   S    
O14   V4    S    
C41   C43   T    
C14   C16   A    
O4    V2    S    
C1    C44   S    
O11   V4    S    
C34   C47   S    
O16   C48   A    
C28   C51   S    
C50   H17   S    
O15   C47   A    
O6    C4    A    
O19   V4    S    
C8    C45   S    
O1    V2    S    
C13   H9    S    
O2    V1    S    
O13   V3    S    
H2    C30   S    
H3    C23   S    
C42   C44   T    
C50   H16   S    
C18   C26   A    
C19   C27   A    
C7    C27   A    
O17   V3    S    
C18   C32   A    
C16   C20   A    
C5    C29   A    
O3    C1    A    
C6    C30   A    
C52   H21   S    
C7    C46   S    
C10   C12   A    
O7    V1    S    
C1    O8    A    
C11   C13   A    
C3    C32   S    
O8    V2    S    
C20   C22   A    
C10   H8    S    
H4    C24   S    
C51   H23   S    
C49   H19   S    
C22   C24   A    
C15   C17   A    
C16   C18   A    
C51   C52   S    
C15   C19   A    
C20   C28   A    
C8    C28   A    
C46   O17   A    
C50   H15   S    
C19   C21   A    
O9    V2    S    
O10   V1    S    
O12   C48   A    
C9    C31   A    
C38   C40   T    
O11   C47   A    
