data_mof_unit_40317.cif
_audit_creation_date              2012-12-10T18:41:20-0500
_audit_creation_method            fapswitch 2.2
_symmetry_space_group_name_H-M    P1
_symmetry_Int_Tables_number       1
_space_group_crystal_system       triclinic
_cell_length_a                    15.190795
_cell_length_b                    13.866418
_cell_length_c                    10.833018
_cell_angle_alpha                 90.882396
_cell_angle_beta                  91.717746
_cell_angle_gamma                 89.358234
_cell_volume                      2280.46006621

loop_
_atom_site_label
_atom_site_type_symbol
_atom_type_description
_atom_site_fract_x
_atom_site_fract_y
_atom_site_fract_z
_atom_type_partial_charge
C1    C     C_R   0.329663 0.500111 0.502065 0.923544
C2    C     C_R   0.670363 0.499053 0.503048 0.914414
C3    C     C_R   0.192604 0.418581 0.564874 0.284646
C4    C     C_R   0.812693 0.409980 0.475719 0.291684
C5    C     C_R   0.100919 0.417691 0.576774 0.412334
C6    C     C_R   0.904968 0.407944 0.477768 0.399294
C7    C     C_R   0.048403 0.488226 0.517685 -0.158524
C8    C     C_R   0.952267 0.486551 0.528112 -0.167707
C9    C     C_R   0.521077 0.108875 0.609613 0.386035
C10   C     C_R   0.478458 0.106358 0.392244 0.370636
C11   C     C_R   0.525059 0.210543 0.604146 -0.095233
C12   C     C_R   0.474250 0.207952 0.396656 -0.072008
C13   C     C_R   0.500935 0.054635 0.501007 -0.034094
C14   C     C_R   0.424922 0.892969 0.460186 0.382203
C15   C     C_R   0.574515 0.892157 0.543547 0.357958
C16   C     C_R   0.429065 0.791293 0.453550 -0.069513
C17   C     C_R   0.571146 0.790376 0.546512 -0.070248
C18   C     C_R   0.499589 0.945499 0.503071 -0.018379
C19   C     C_R   0.502433 0.499285 0.262691 0.873669
C20   C     C_R   0.504160 0.500591 0.737369 0.838201
C21   C     C_R   0.474898 0.573776 0.062418 -0.184694
C22   C     C_R   0.480315 0.577719 0.938616 -0.177554
C23   C     C_R   0.509543 0.498061 0.130370 -0.236054
C24   C     C_R   0.513823 0.501693 0.870020 -0.237607
C25   C     C_R   0.553583 0.422766 0.066139 0.386035
C26   C     C_R   0.557179 0.425791 0.934947 0.389628
C27   C     C_3   0.423919 0.667705 0.929117 0.302061
C28   C     C_3   0.417263 0.662393 0.070974 0.297977
C29   C     C_R   0.087777 0.562987 0.452808 0.331012
C30   C     C_R   0.907277 0.567473 0.577048 0.365365
C31   C     C_R   0.179651 0.572662 0.458987 0.311712
C32   C     C_R   0.815300 0.572056 0.567920 0.343501
C33   C     C_R   0.232768 0.498007 0.509194 -0.378242
C34   C     C_R   0.767384 0.494658 0.513891 -0.396328
Cu1   Cu    Cu3+1 0.500000 0.596430 0.500000 0.966828
Cu2   Cu    Cu3+1 0.500000 0.403570 0.500000 0.985078
H1    H     H_    0.374620 0.752129 0.412180 0.206845
H2    H     H_    0.626491 0.750852 0.585075 0.201588
H3    H     H_    0.360647 0.654771 0.877656 0.109925
H4    H     H_    0.450722 0.722224 0.122447 0.131292
H5    H     H_    0.547171 0.250675 0.684819 0.210465
H6    H     H_    0.451792 0.246216 0.315423 0.159841
N1    N     N_R   0.500000 0.258690 0.500000 -0.217568
N2    N     N_R   0.500000 0.741330 0.500000 -0.223498
O1    O     O_R   0.371460 0.581430 0.500010 -0.562988
O2    O     O_R   0.628540 0.581430 0.499990 -0.570199
O3    O     O_R   0.371470 0.418560 0.500010 -0.558420
O4    O     O_R   0.628530 0.418560 0.499990 -0.537111
O5    O     O_R   0.499990 0.581450 0.319660 -0.581987
O6    O     O_R   0.500010 0.581450 0.680340 -0.589326
O7    O     O_R   0.500010 0.418580 0.319660 -0.568141
O8    O     O_R   0.499990 0.418580 0.680340 -0.556334
O9    O     O_3   0.600700 0.353802 0.132736 -0.553986
C35   C     C_3   0.566497 0.261180 0.107335 -0.207967
H7    H     H_    0.597395 0.227895 0.025385 0.199362
H8    H     H_    0.493295 0.260976 0.095982 0.124205
H9    H     H_    0.584653 0.214790 0.186447 0.176896
O10   O     O_3   0.601245 0.353804 0.871479 -0.590751
C36   C     C_3   0.689273 0.381939 0.858232 -0.330374
H10   H     H_    0.721253 0.404125 0.947971 0.177902
H11   H     H_    0.693166 0.440561 0.790110 0.131044
H12   H     H_    0.727157 0.319327 0.822191 0.182172
O11   O     O_3   0.348890 0.939243 0.418494 -0.530389
C37   C     C_3   0.301113 0.971197 0.521432 -0.326205
H13   H     H_    0.333160 0.033958 0.568019 0.152623
H14   H     H_    0.292042 0.912716 0.589134 0.143211
H15   H     H_    0.234711 0.995229 0.488513 0.187943
O12   O     O_3   0.649285 0.939671 0.586207 -0.542585
C38   C     C_3   0.716249 0.926091 0.500103 -0.304279
H16   H     H_    0.694114 0.948924 0.405959 0.133203
H17   H     H_    0.739963 0.849941 0.498005 0.201322
H18   H     H_    0.772950 0.971755 0.528948 0.194980
O13   O     O_3   0.464177 0.754435 0.890810 -0.569038
C39   C     C_3   0.557041 0.754890 0.906857 0.049855
H19   H     H_    0.586787 0.707943 0.835353 0.165273
H20   H     H_    0.579174 0.730614 0.000242 0.130785
C40   C     C_3   0.590185 0.856674 0.891676 -0.730991
H21   H     H_    0.565902 0.903701 0.967335 0.223080
H22   H     H_    0.663301 0.856731 0.895088 0.199698
H23   H     H_    0.566214 0.885232 0.801786 0.305707
O14   O     O_3   0.329219 0.651207 0.110273 -0.556466
C41   C     C_3   0.293604 0.558276 0.088237 0.122824
H24   H     H_    0.316070 0.509260 0.163353 0.144163
H25   H     H_    0.311554 0.526404 0.997474 0.117425
C42   C     C_3   0.193948 0.566012 0.088468 -0.810620
H26   H     H_    0.169448 0.608848 0.008489 0.233417
H27   H     H_    0.164720 0.492977 0.082407 0.177828
H28   H     H_    0.173719 0.602544 0.174829 0.299912
O15   O     O_3   0.037564 0.633874 0.393936 -0.518169
C43   C     C_3   0.997874 0.596559 0.283827 0.107540
H29   H     H_    0.934642 0.561552 0.303835 0.134520
H30   H     H_    0.040764 0.543498 0.235534 0.103695
C44   C     C_3   0.977818 0.679146 0.196222 -0.777568
H31   H     H_    0.039565 0.716592 0.174397 0.258981
H32   H     H_    0.946894 0.650745 0.109042 0.184161
H33   H     H_    0.931839 0.731606 0.239417 0.254628
O16   O     O_3   0.951799 0.648389 0.621178 -0.500749
C45   C     C_3   0.993048 0.629449 0.737169 0.080458
H34   H     H_    0.058425 0.594751 0.724418 0.129084
H35   H     H_    0.952880 0.582778 0.795930 0.096122
C46   C     C_3   0.007637 0.724369 0.806453 -0.773343
H36   H     H_    0.943401 0.761047 0.821653 0.253771
H37   H     H_    0.049823 0.772032 0.752423 0.245779
H38   H     H_    0.040660 0.710668 0.897445 0.193532
O17   O     O_3   0.217344 0.651624 0.406100 -0.536702
C47   C     C_3   0.206274 0.732498 0.485250 -0.227210
H39   H     H_    0.221956 0.797987 0.433425 0.205362
H40   H     H_    0.252062 0.727569 0.566987 0.141772
H41   H     H_    0.137699 0.742557 0.516763 0.194945
O18   O     O_3   0.773614 0.655796 0.606499 -0.531875
C48   C     C_3   0.750691 0.646284 0.730925 -0.323211
H42   H     H_    0.689576 0.603849 0.736736 0.138820
H43   H     H_    0.737782 0.719306 0.769779 0.185096
H44   H     H_    0.803679 0.613075 0.789721 0.137628
O19   O     O_3   0.243713 0.347109 0.620394 -0.552160
C49   C     C_3   0.240196 0.262812 0.545635 -0.177787
H45   H     H_    0.290959 0.211224 0.580842 0.152100
H46   H     H_    0.255164 0.277567 0.447679 0.141761
H47   H     H_    0.175238 0.227323 0.550521 0.190449
O20   O     O_3   0.767276 0.333320 0.421799 -0.526915
C50   C     C_3   0.763494 0.258111 0.507840 -0.163638
H48   H     H_    0.719844 0.201040 0.468548 0.167056
H49   H     H_    0.734953 0.283274 0.596274 0.135920
H50   H     H_    0.829428 0.224852 0.525724 0.182363
O21   O     O_3   0.062385 0.343841 0.639809 -0.522258
C51   C     C_3   0.063737 0.367258 0.766910 -0.303601
H51   H     H_    0.015677 0.425897 0.786354 0.120235
H52   H     H_    0.130631 0.387259 0.802881 0.174586
H53   H     H_    0.043260 0.302988 0.818081 0.185286
O22   O     O_3   0.948649 0.326937 0.433460 -0.523181
C52   C     C_3   0.959512 0.335598 0.305339 -0.284399
H54   H     H_    0.015073 0.384142 0.287636 0.122834
H55   H     H_    0.898495 0.360667 0.255312 0.169131
H56   H     H_    0.976832 0.263528 0.266811 0.186655
O23   O     O_3   0.539088 0.061930 0.719629 -0.541751
C53   C     C_3   0.476952 0.090661 0.807810 -0.322322
H57   H     H_    0.408094 0.086791 0.769810 0.150461
H58   H     H_    0.490969 0.164197 0.844898 0.173136
H59   H     H_    0.482043 0.040846 0.886706 0.193613
O24   O     O_3   0.455971 0.060107 0.281840 -0.533530
C54   C     C_3   0.531538 0.016683 0.230784 -0.313539
H60   H     H_    0.535602 0.939367 0.255460 0.173066
H61   H     H_    0.594559 0.052722 0.258404 0.122738
H62   H     H_    0.524761 0.020325 0.128799 0.173429

loop_
_geom_bond_atom_site_label_1
_geom_bond_atom_site_label_2
_ccdc_geom_bond_type
C15   C18   A    
C44   H31   S    
C7    C29   A    
O13   C39   S    
C14   C18   A    
Cu1   Cu2   S    
C6    O22   S    
C52   H56   S    
C29   O15   S    
O16   C45   S    
C1    C33   S    
O23   C53   S    
C40   H21   S    
C2    O2    A    
C30   O16   S    
C51   H51   S    
C39   H20   S    
C13   C18   S    
C41   C42   S    
C24   C26   A    
C12   N1    A    
C54   H61   S    
C42   H26   S    
C40   H23   S    
C47   H39   S    
C28   H4    S    
O19   C49   S    
C49   H45   S    
Cu2   O3    S    
C38   H17   S    
C9    C13   A    
O18   C48   S    
C50   H50   S    
C20   O6    A    
C20   C24   S    
C27   H3    S    
O12   C38   S    
C39   C40   S    
Cu1   O5    S    
C12   H6    S    
C31   C33   A    
C11   N1    A    
C14   C16   A    
C16   N2    A    
Cu2   O8    S    
C16   H1    S    
C2    C34   S    
C42   H27   S    
C36   H10   S    
C46   H37   S    
C21   C22   A    
C31   O17   S    
C10   O24   S    
C53   H59   S    
O14   C41   S    
C4    C34   A    
C40   H22   S    
C35   H8    S    
C36   H11   S    
C39   H19   S    
C46   H36   S    
C7    C8    S    
O24   C54   S    
C4    C6    A    
C54   H62   S    
C5    C7    A    
C1    O3    A    
C6    C8    A    
C51   H53   S    
C2    O4    A    
O10   C36   S    
O9    C35   S    
C37   H14   S    
C38   H18   S    
C19   C23   S    
C37   H15   S    
C26   O10   S    
C19   O5    A    
C43   H30   S    
Cu1   O6    S    
C48   H43   S    
Cu1   N2    S    
C9    C11   A    
C50   H48   S    
Cu2   O7    S    
C10   C12   A    
C9    O23   S    
C53   H58   S    
C21   C28   S    
C45   H34   S    
C46   H38   S    
C45   H35   S    
C22   C27   S    
C21   C23   A    
O21   C51   S    
C22   C24   A    
C52   H54   S    
Cu1   O1    S    
C3    C5    A    
O20   C50   S    
C43   C44   S    
C42   H28   S    
C15   C17   A    
C35   H7    S    
C36   H12   S    
C51   H52   S    
C48   H42   S    
C28   O14   S    
C25   O9    S    
C53   H57   S    
C52   H55   S    
C10   C13   A    
C44   H33   S    
C45   C46   S    
O17   C47   S    
C41   H25   S    
C49   H47   S    
C20   O8    A    
C8    C30   A    
C37   H13   S    
O22   C52   S    
C25   C26   A    
C17   N2    A    
C29   C31   A    
C3    O19   S    
C54   H60   S    
C30   C32   A    
C1    O1    A    
C43   H29   S    
C47   H40   S    
C15   O12   S    
C49   H46   S    
Cu2   O4    S    
C48   H44   S    
C14   O11   S    
C17   H2    S    
C23   C25   A    
C38   H16   S    
C50   H49   S    
O11   C37   S    
C19   O7    A    
C44   H32   S    
C41   H24   S    
C32   O18   S    
C11   H5    S    
C5    O21   S    
C27   C28   S    
C3    C33   A    
C4    O20   S    
Cu2   N1    S    
O15   C43   S    
C27   O13   S    
Cu1   O2    S    
C47   H41   S    
C32   C34   A    
C35   H9    S    
