data_mof_unit_36876.cif
_audit_creation_date              2013-03-05T15:55:11-0500
_audit_creation_method            fapswitch 2.2
_symmetry_space_group_name_H-M    P1
_symmetry_Int_Tables_number       1
_space_group_crystal_system       triclinic
_cell_length_a                    14.548853
_cell_length_b                    16.18589
_cell_length_c                    6.923732
_cell_angle_alpha                 89.998928
_cell_angle_beta                  99.02327
_cell_angle_gamma                 90.000269
_cell_volume                      1610.26570439

loop_
_atom_site_label
_atom_site_type_symbol
_atom_site_description
_atom_site_fract_x
_atom_site_fract_y
_atom_site_fract_z
_atom_type_partial_charge
O1    O     O_R   0.831700 0.662810 0.581550 -0.602854
O2    O     O_R   0.168300 0.337190 0.418450 -0.602869
O3    O     O_R   0.168300 0.162810 0.418450 -0.602796
O4    O     O_R   0.831700 0.837190 0.581550 -0.602926
O5    O     O_R   0.842890 0.834390 0.255500 -0.600992
O6    O     O_R   0.157110 0.165610 0.744500 -0.601007
O7    O     O_R   0.157110 0.334390 0.744500 -0.601001
O8    O     O_R   0.842890 0.665610 0.255500 -0.600983
O9    O     O_R   0.661690 0.835580 0.024130 -0.603622
O10   O     O_R   0.338310 0.164420 0.975870 -0.603480
O11   O     O_R   0.338310 0.335580 0.975870 -0.603556
O12   O     O_R   0.661690 0.664420 0.024130 -0.603533
C1    C     C_R   0.865633 0.864526 0.431519 0.937411
C2    C     C_R   0.134368 0.135473 0.568481 0.937799
C3    C     C_R   0.134367 0.364527 0.568479 0.937563
C4    C     C_R   0.865633 0.635473 0.431521 0.937643
C5    C     C_R   0.065096 0.066422 0.534139 -0.132529
C6    C     C_R   0.934907 0.933575 0.465862 -0.132513
C7    C     C_R   0.934906 0.566424 0.465864 -0.132538
C8    C     C_R   0.065094 0.433577 0.534137 -0.132523
H1    H     H_    0.957817 0.942971 0.164976 0.119355
H2    H     H_    0.042188 0.057026 0.835026 0.119341
H3    H     H_    0.042187 0.442968 0.835024 0.119348
H4    H     H_    0.957814 0.557033 0.164976 0.119358
H5    H     H_    0.069329 0.056216 0.222843 0.122534
H6    H     H_    0.930676 0.943780 0.777159 0.122504
H7    H     H_    0.930675 0.556213 0.777160 0.122522
H8    H     H_    0.069326 0.443787 0.222840 0.122525
C9    C     C_R   0.975529 0.967113 0.311942 -0.119630
C10   C     C_R   0.024476 0.032884 0.688060 -0.119544
C11   C     C_R   0.024474 0.467112 0.688059 -0.119576
C12   C     C_R   0.975526 0.532889 0.311941 -0.119549
O13   O     O_3   0.687240 0.750000 0.366320 -0.241363
O14   O     O_3   0.312760 0.250000 0.633680 -0.241451
V1    V     V_3+5 0.757720 0.750000 0.115230 1.196857
V2    V     V_3+5 0.242280 0.250000 0.884770 1.196899
O15   O     O_R   0.650500 0.664000 0.690740 -0.540373
O16   O     O_R   0.349500 0.336000 0.309260 -0.540412
O17   O     O_R   0.349500 0.164000 0.309260 -0.540409
O18   O     O_R   0.650500 0.836000 0.690740 -0.540334
C13   C     C_R   0.631776 0.633448 0.853820 0.892116
C14   C     C_R   0.368224 0.366552 0.146180 0.891990
C15   C     C_R   0.368204 0.133438 0.146178 0.891930
C16   C     C_R   0.631769 0.866553 0.853811 0.892174
C17   C     C_R   0.039605 0.032431 0.345545 -0.093224
C18   C     C_R   0.960399 0.967566 0.654457 -0.093453
C19   C     C_R   0.960398 0.532430 0.654457 -0.093320
C20   C     C_R   0.039602 0.467570 0.345543 -0.093346
V3    V     V_3+5 0.735670 0.750000 0.607790 1.262713
V4    V     V_3+5 0.264330 0.250000 0.392210 1.262736
O19   O     O_3   0.806150 0.750000 0.906560 -0.295473
O20   O     O_3   0.193850 0.250000 0.093440 -0.295487
H9    H     H_    0.469576 0.082988 0.888567 0.199270
H10   H     H_    0.531170 0.917471 0.112557 0.199961
H11   H     H_    0.530719 0.582791 0.111911 0.199560
H12   H     H_    0.469275 0.417212 0.888078 0.199546
C21   C     C_2   0.577139 0.944552 0.847378 0.063678
C22   C     C_2   0.422729 0.055396 0.152522 0.064540
C23   C     C_2   0.422795 0.444573 0.152545 0.064216
C24   C     C_2   0.577206 0.555427 0.847455 0.064231
C25   C     C_2   0.528767 0.962096 0.995256 -0.131077
C26   C     C_2   0.471561 0.038114 0.005230 -0.131862
C27   C     C_2   0.471416 0.461981 0.004997 -0.131548
C28   C     C_2   0.528581 0.538021 0.994998 -0.131433
N1    N     N_R   0.411376 0.995098 0.300717 0.266209
O21   O     O_R   0.398764 0.019395 0.473802 -0.362548
O22   O     O_R   0.390487 0.919090 0.250431 -0.374824
N2    N     N_R   0.587734 0.004497 0.697956 0.265930
O23   O     O_R   0.609170 0.080528 0.746993 -0.375702
O24   O     O_R   0.599256 0.979774 0.524536 -0.362916
N3    N     N_R   0.588218 0.495293 0.698738 0.266027
O25   O     O_R   0.600200 0.519786 0.525445 -0.362693
O26   O     O_R   0.609482 0.419307 0.748485 -0.375429
N4    N     N_R   0.411787 0.504705 0.301271 0.266041
O27   O     O_R   0.390517 0.580690 0.251530 -0.375169
O28   O     O_R   0.399813 0.480210 0.474567 -0.362656

loop_
_geom_bond_atom_site_label_1
_geom_bond_atom_site_label_2
_geom_bond_distance
_ccdc_geom_bond_type
C22   C26   1.360245 D    
O7    V2    1.991705 S    
N4    O28   1.301056 A    
C1    C6    1.498741 S    
O11   V2    1.998036 S    
C5    C17   1.411881 A    
O16   C14   1.300050 A    
C7    C19   1.411877 A    
O13   V3    1.709420 S    
O18   V3    2.006534 S    
O11   C14   1.292376 A    
O4    C1    1.295913 A    
O2    V4    2.014011 S    
C15   C22   1.488600 S    
N2    O23   1.301460 A    
V3    O19   2.159913 S    
V4    O20   2.159915 S    
O5    C1    1.306218 A    
V2    O20   1.703864 S    
O7    C3    1.306211 A    
O1    C4    1.295917 A    
O8    C4    1.306212 A    
C11   C19   1.404604 A    
C5    C10   1.406127 A    
C12   C20   1.404603 A    
C2    C5    1.498738 S    
C7    C12   1.406133 A    
C6    C18   1.411880 A    
O3    V4    2.013998 S    
C3    C8    1.498741 S    
O14   V4    1.709420 S    
N4    O27   1.301374 A    
N3    O26   1.301379 A    
O17   C15   1.300033 A    
C24   N3    1.443967 S    
N1    O22   1.301514 A    
H1    C9    1.082715 S    
C9    C17   1.404603 A    
O8    V1    1.991707 S    
H3    C11   1.082715 S    
H4    C12   1.082715 S    
O12   C13   1.292375 A    
O6    C2    1.306218 A    
O15   V3    2.006511 S    
H9    C26   1.083282 S    
C22   N1    1.444214 S    
C16   C21   1.488774 S    
H11   C28   1.083263 S    
H12   C27   1.083268 S    
C6    C9    1.406128 A    
O12   V1    1.998037 S    
O2    C3    1.295917 A    
C23   N4    1.443972 S    
C8    C20   1.411877 A    
O3    C2    1.295913 A    
V1    O19   1.703864 S    
C21   N2    1.444108 S    
H5    C17   1.082683 S    
H7    C19   1.082682 S    
H8    C20   1.082682 S    
O9    C16   1.292442 A    
H2    C10   1.082716 S    
O10   C15   1.292357 A    
C10   C18   1.404604 A    
C13   C24   1.488641 S    
C14   C23   1.488644 S    
C21   C25   1.360242 D    
O16   V4    2.006511 S    
H10   C25   1.083329 S    
C23   C27   1.360172 D    
O4    V3    2.013995 S    
C24   C28   1.360170 D    
N3    O25   1.301052 A    
C4    C7    1.498740 S    
O5    V1    1.991723 S    
O13   V1    2.152423 S    
O6    V2    1.991723 S    
O14   V2    2.152424 S    
O15   C13   1.300051 A    
C25   C26   1.493123 S    
H6    C18   1.082682 S    
C27   C28   1.493107 S    
O18   C16   1.300055 A    
O17   V4    2.006534 S    
N2    O24   1.301194 A    
N1    O21   1.301330 A    
O9    V1    1.998029 S    
O10   V2    1.998030 S    
O1    V3    2.014010 S    
C8    C11   1.406131 A    
