data_mof_unit_62703.cif
_audit_creation_date              2012-12-11T17:26:07-0500
_audit_creation_method            fapswitch 2.2
_symmetry_space_group_name_H-M    P1
_symmetry_Int_Tables_number       1
_space_group_crystal_system       triclinic
_cell_length_a                    6.947957
_cell_length_b                    18.957557
_cell_length_c                    20.735837
_cell_angle_alpha                 107.584061
_cell_angle_beta                  90.299274
_cell_angle_gamma                 90.505453
_cell_volume                      2603.43884374

loop_
_atom_site_label
_atom_site_type_symbol
_atom_type_description
_atom_site_fract_x
_atom_site_fract_y
_atom_site_fract_z
_atom_type_partial_charge
O1    O     O_R   0.505770 0.444240 0.557370 -0.534282
O2    O     O_R   0.169820 0.415250 0.421330 -0.535736
O3    O     O_R   0.005590 0.555760 0.442630 -0.531211
C1    C     C_R   0.338692 0.393644 0.395282 0.724721
O4    O     O_R   0.175660 0.435500 0.555540 -0.533757
O5    O     O_R   0.011460 0.576150 0.577800 -0.533187
C2    C     C_R   0.344552 0.421171 0.575626 0.722695
O6    O     O_R   0.499890 0.423850 0.422200 -0.533661
O7    O     O_3   0.341200 0.546120 0.507150 -0.366649
V1    V     V_3+5 0.063980 0.491440 0.498670 1.465303
O8    O     O_R   0.682100 0.584750 0.578670 -0.537362
C3    C     C_R   0.852055 0.606228 0.604607 0.724672
O9    O     O_R   0.676270 0.564500 0.444460 -0.534691
C4    C     C_R   0.845054 0.578859 0.424375 0.724676
V2    V     V_3+5 0.564720 0.508560 0.501330 1.463359
O10   O     O_3   0.837360 0.453880 0.492850 -0.368217
C5    C     C_R   0.054066 0.744356 0.207956 -0.163329
H1    H     H_    0.178669 0.739926 0.175839 0.148349
C6    C     C_R   0.905586 0.793036 0.204904 0.094977
C7    C     C_R   0.745542 0.798088 0.247016 -0.143395
H2    H     H_    0.629326 0.835296 0.245508 0.125164
C8    C     C_R   0.734128 0.755200 0.291562 -0.157449
H3    H     H_    0.609319 0.760239 0.323672 0.147533
C9    C     C_R   0.882007 0.706221 0.294617 0.087536
C10   C     C_R   0.043060 0.701030 0.252306 0.167670
C11   C     C_1   0.917597 0.837831 0.158901 -0.031674
C12   C     C_1   0.866631 0.661810 0.340933 0.025076
C13   C     C_1   0.855524 0.624343 0.379219 -0.141917
C14   C     C_1   0.927036 0.875513 0.120755 -0.179858
C15   C     C_1   0.916293 0.831601 0.833099 -0.186991
C16   C     C_1   0.900949 0.780155 0.780833 0.016727
C17   C     C_1   0.881468 0.719763 0.719217 0.017999
C18   C     C_1   0.866127 0.668326 0.666945 -0.182514
C19   C     C_1   0.352899 0.331322 0.332752 -0.183426
C20   C     C_1   0.375681 0.280102 0.280633 0.018226
C21   C     C_1   0.406773 0.220050 0.219260 0.016456
C22   C     C_1   0.429553 0.168807 0.167157 -0.187098
H4    H     H_    0.640899 0.245583 0.668475 0.146734
C23   C     C_R   0.539122 0.205692 0.748753 -0.136851
H5    H     H_    0.663528 0.170920 0.746254 0.152738
C24   C     C_R   0.393573 0.207431 0.795744 0.023561
C25   C     C_R   0.232173 0.253613 0.798342 -0.046761
C26   C     C_R   0.221061 0.297627 0.753647 0.125983
C27   C     C_R   0.369127 0.294767 0.706478 0.076170
C28   C     C_R   0.526560 0.248516 0.704490 -0.156673
C29   C     C_1   0.413924 0.162291 0.841436 0.030531
C30   C     C_1   0.361351 0.338763 0.659601 0.029533
C31   C     C_1   0.353828 0.375933 0.620996 -0.149985
C32   C     C_1   0.427420 0.124524 0.879372 -0.136513
O11   O     O_R   0.282550 0.076220 0.077760 -0.534319
O12   O     O_R   0.606940 0.064510 0.944450 -0.532262
O13   O     O_R   0.770980 0.923830 0.922210 -0.533982
C33   C     C_R   0.438005 0.078859 0.924342 0.723506
O14   O     O_R   0.612630 0.084760 0.078660 -0.535472
O15   O     O_R   0.776710 0.944230 0.057380 -0.536405
C34   C     C_R   0.443752 0.106436 0.104664 0.717029
O16   O     O_R   0.276820 0.055820 0.942590 -0.528586
O17   O     O_3   0.441200 0.953910 0.992830 -0.369140
V3    V     V_3+5 0.718480 0.008550 0.001330 1.461722
O18   O     O_R   0.106020 0.935440 0.055580 -0.538200
C35   C     C_R   0.937220 0.921103 0.075660 0.721362
O19   O     O_R   0.100330 0.915180 0.921370 -0.536564
C36   C     C_R   0.930375 0.893718 0.895424 0.725267
V4    V     V_3+5 0.217720 0.991360 0.998720 1.456511
O20   O     O_3   0.945130 0.046090 0.007170 -0.361429
I1    I     I_    0.273514 0.628656 0.253171 -0.420124
C37   C     C_2   0.075687 0.255524 0.847257 0.794042
O21   O     O_2   0.004525 0.197709 0.851108 -0.570003
O22   O     O_R   0.011679 0.323280 0.889706 -0.625277
H6    H     H_    0.904568 0.317213 0.920692 0.313275
I2    I     I_    0.977002 0.365666 0.753445 -0.374156

loop_
_geom_bond_atom_site_label_1
_geom_bond_atom_site_label_2
_ccdc_geom_bond_type
C1    O6    A    
O5    V1    S    
O2    C1    A    
C24   C29   S    
C27   C30   S    
C9    C10   A    
O19   C36   A    
O1    V2    S    
O13   V3    S    
O15   V3    S    
C1    C19   S    
O11   V4    S    
C24   C25   A    
O19   V4    S    
C6    C7    A    
C9    C12   S    
O18   V4    S    
C23   C28   A    
C5    C10   A    
C17   C18   T    
C8    C9    A    
C5    H1    S    
O7    V2    S    
O4    V1    S    
C23   C24   A    
O3    V1    S    
V1    O10   S    
C15   C36   S    
C2    C31   S    
O17   V4    S    
C3    C18   S    
C29   C32   T    
C25   C37   S    
O3    C4    A    
C11   C14   T    
C32   C33   S    
O15   C35   A    
V4    O20   S    
O22   H6    S    
C21   C22   T    
C5    C6    A    
C7    C8    A    
O6    V2    S    
O14   C34   A    
O14   V3    S    
O9    V2    S    
C26   C27   A    
O5    C3    A    
C15   C16   T    
C14   C35   S    
O12   V3    S    
C25   C26   A    
C10   I1    S    
O12   C33   A    
C37   O21   D    
O2    V1    S    
C30   C31   T    
C12   C13   T    
C7    H2    S    
O16   V4    S    
O11   C34   A    
C19   C20   T    
O7    V1    S    
O1    C2    A    
C23   H5    S    
O4    C2    A    
C6    C11   S    
C33   O16   A    
C8    H3    S    
H4    C28   S    
C26   I2    S    
C4    C13   S    
O17   V3    S    
O9    C4    A    
C22   C34   S    
O8    V2    S    
O13   C36   A    
C16   C17   S    
V3    O20   S    
C27   C28   A    
V2    O10   S    
O8    C3    A    
O18   C35   A    
C37   O22   S    
C20   C21   S    
