data_mof_unit_19329.cif
_audit_creation_date              2012-12-10T18:54:27-0500
_audit_creation_method            fapswitch 2.2
_symmetry_space_group_name_H-M    P1
_symmetry_Int_Tables_number       1
_space_group_crystal_system       triclinic
_cell_length_a                    10.814054
_cell_length_b                    9.909308
_cell_length_c                    23.469074
_cell_angle_alpha                 90.518555
_cell_angle_beta                  91.123746
_cell_angle_gamma                 89.526548
_cell_volume                      2514.27217223

loop_
_atom_site_label
_atom_site_type_symbol
_atom_type_description
_atom_site_fract_x
_atom_site_fract_y
_atom_site_fract_z
_atom_type_partial_charge
C1    C     C_R   0.260196 0.500976 0.497501 1.009661
C2    C     C_R   0.546277 0.594183 0.708151 -0.108468
C3    C     C_R   0.411942 0.576768 0.236397 -0.027058
C4    C     C_R   0.540328 0.582899 0.767864 -0.022099
C5    C     C_R   0.473517 0.468959 0.208855 0.120288
C6    C     C_R   0.474250 0.475561 0.791558 0.112578
C7    C     C_R   0.063986 0.388284 0.475296 0.363060
C8    C     C_R   0.936963 0.615761 0.517926 0.350504
C9    C     C_R   0.936944 0.382741 0.481172 0.414317
C10   C     C_R   0.063262 0.621944 0.510027 0.389275
C11   C     C_R   0.873137 0.498465 0.500727 -0.411020
C12   C     C_R   0.740123 0.499412 0.500924 1.018179
C13   C     C_R   0.127536 0.504054 0.493936 -0.391311
C14   C     C_R   0.480349 0.071677 0.548930 0.339960
C15   C     C_R   0.534300 0.926650 0.452870 0.337600
C16   C     C_R   0.522133 0.070177 0.451166 0.357743
C17   C     C_R   0.466989 0.928689 0.547367 0.364102
C18   C     C_R   0.499199 0.499475 0.389522 0.884383
C19   C     C_R   0.496259 0.500663 0.610590 0.867038
C20   C     C_R   0.580492 0.435359 0.881374 0.532034
C21   C     C_R   0.363441 0.439621 0.118735 0.537791
C22   C     C_R   0.363947 0.480374 0.880072 0.520065
C23   C     C_R   0.541481 0.372046 0.240348 -0.040414
C24   C     C_R   0.580718 0.477236 0.120174 0.504650
C25   C     C_R   0.359862 0.462374 0.939119 -0.114225
C26   C     C_R   0.584520 0.460294 0.060975 -0.104468
C27   C     C_R   0.472544 0.455675 0.970123 -0.093683
C28   C     C_R   0.471635 0.456171 0.030012 -0.093370
C29   C     C_R   0.585937 0.449279 0.941081 -0.080255
C30   C     C_R   0.358095 0.453231 0.059040 -0.078564
C31   C     C_R   0.246665 0.454584 0.967626 0.466306
C32   C     C_R   0.697689 0.450140 0.032317 0.475073
C33   C     C_R   0.245025 0.458856 0.027404 -0.171868
C34   C     C_R   0.406343 0.385043 0.756757 -0.024764
C35   C     C_R   0.699065 0.453192 0.972583 -0.174533
C36   C     C_3   0.116946 0.308439 0.922630 -0.209263
C37   C     C_3   0.831785 0.303480 0.074489 -0.253875
C38   C     C_2   0.123691 0.481223 0.054212 0.599029
C39   C     C_2   0.820187 0.473154 0.945704 0.603469
C40   C     C_2   0.580316 0.243495 0.211956 0.397652
C41   C     C_2   0.341212 0.271373 0.784172 0.405697
C42   C     C_2   0.680295 0.335999 0.325877 0.554509
C43   C     C_2   0.312558 0.326743 0.661430 0.606208
C44   C     C_2   0.339298 0.685397 0.327634 0.575920
C45   C     C_R   0.568223 0.398545 0.298169 -0.066643
C46   C     C_2   0.618646 0.703735 0.682316 0.565404
C47   C     C_2   0.340810 0.675710 0.201156 0.600325
C48   C     C_2   0.605070 0.679362 0.807040 0.588978
C49   C     C_3   0.135269 0.302435 0.392269 -0.217351
C50   C     C_3   0.900933 0.741196 0.597988 -0.224001
C51   C     C_3   0.885355 0.168114 0.504437 -0.184948
C52   C     C_3   0.111607 0.825258 0.472945 -0.232161
C53   C     C_3   0.594377 0.129473 0.626711 -0.224124
C54   C     C_3   0.705374 0.869271 0.403655 -0.193950
C55   C     C_3   0.446079 0.099084 0.360431 -0.094095
C56   C     C_R   0.402404 0.404141 0.697402 -0.080961
C57   C     C_3   0.315904 0.900556 0.613929 -0.083550
C58   C     C_R   0.496179 0.496517 0.327076 -0.177341
C59   C     C_R   0.481335 0.500714 0.672932 -0.182026
C60   C     C_R   0.416353 0.585125 0.296438 -0.117097
H1    H     H_    0.195659 0.264143 0.898751 0.175549
H2    H     H_    0.384065 0.221353 0.820562 0.067414
H3    H     H_    0.722382 0.245037 0.309107 0.120207
H4    H     H_    0.297132 0.220614 0.669014 0.096309
H5    H     H_    0.289554 0.654749 0.365019 -0.009968
H6    H     H_    0.674357 0.682504 0.645563 0.031186
H7    H     H_    0.378840 0.711195 0.161597 0.040802
H8    H     H_    0.561034 0.712410 0.845978 0.033403
H9    H     H_    0.177239 0.211885 0.372177 0.175850
H10   H     H_    0.196632 0.389514 0.384107 0.113425
H11   H     H_    0.042959 0.318524 0.371416 0.195978
H12   H     H_    0.033850 0.301192 0.894347 0.224856
H13   H     H_    0.883306 0.645726 0.621061 0.140748
H14   H     H_    0.839711 0.821006 0.615555 0.176756
H15   H     H_    0.997440 0.774226 0.606438 0.203979
H16   H     H_    0.821560 0.084693 0.492885 0.154388
H17   H     H_    0.858600 0.206743 0.547209 0.121883
H18   H     H_    0.980596 0.125272 0.506496 0.184155
H19   H     H_    0.147077 0.774204 0.434026 0.152629
H20   H     H_    0.167528 0.917372 0.480244 0.172038
H21   H     H_    0.013921 0.857948 0.465844 0.173855
H22   H     H_    0.625418 0.023325 0.632860 0.203821
H23   H     H_    0.099856 0.247949 0.961367 0.108345
H24   H     H_    0.590451 0.178069 0.669412 0.184501
H25   H     H_    0.663626 0.184598 0.601551 0.145502
H26   H     H_    0.731862 0.973660 0.392274 0.181750
H27   H     H_    0.751771 0.839495 0.444455 0.173244
H28   H     H_    0.740002 0.800486 0.369888 0.196628
H29   H     H_    0.482739 0.019492 0.331691 0.254142
H30   H     H_    0.421401 0.187459 0.333851 0.160338
H31   H     H_    0.358573 0.064311 0.379795 0.121144
H32   H     H_    0.325740 0.976761 0.648585 0.174511
H33   H     H_    0.254457 0.940767 0.579263 0.133767
H34   H     H_    0.754764 0.256762 0.097842 0.162413
H35   H     H_    0.269127 0.811807 0.631969 0.185887
H36   H     H_    0.915706 0.295869 0.102242 0.217121
H37   H     H_    0.849659 0.245442 0.034647 0.121155
H38   H     H_    0.043539 0.428588 0.037726 0.069446
H39   H     H_    0.900373 0.418994 0.961649 0.060439
H40   H     H_    0.588258 0.236996 0.166131 0.081659
N1    N     N_R   0.472552 0.461880 0.852382 -0.382386
N2    N     N_R   0.472078 0.461312 0.147784 -0.379857
N3    N     N_R   0.500000 0.857200 0.500000 -0.195187
N4    N     N_R   0.500000 0.142800 0.500000 -0.189859
O1    O     O_R   0.316770 0.614620 0.500000 -0.585087
O2    O     O_2   0.262900 0.402927 0.147765 -0.515764
O3    O     O_2   0.261141 0.517191 0.850372 -0.448870
O4    O     O_2   0.684285 0.508565 0.150356 -0.475170
O5    O     O_3   0.136225 0.445521 0.937073 -0.573356
O6    O     O_3   0.808404 0.440996 0.062684 -0.569331
O7    O     O_2   0.110892 0.565147 0.092102 -0.472064
O8    O     O_2   0.832741 0.556605 0.908338 -0.466063
O9    O     O_2   0.595097 0.139761 0.238963 -0.600511
O10   O     O_2   0.237421 0.237504 0.768853 -0.566634
O11   O     O_2   0.732683 0.390914 0.366252 -0.562496
O12   O     O_R   0.683230 0.385380 0.500000 -0.573814
O13   O     O_2   0.252170 0.382464 0.623841 -0.590311
O14   O     O_2   0.334792 0.803488 0.313382 -0.560964
O15   O     O_2   0.612470 0.819372 0.700452 -0.560455
O16   O     O_2   0.236910 0.712319 0.214059 -0.489387
O17   O     O_2   0.710163 0.716567 0.797952 -0.487025
O18   O     O_3   0.125198 0.279254 0.451215 -0.584920
O19   O     O_3   0.874837 0.727952 0.539045 -0.604003
O20   O     O_3   0.874433 0.268697 0.462347 -0.529796
O21   O     O_3   0.124036 0.742031 0.521274 -0.589350
O22   O     O_3   0.475790 0.137368 0.600627 -0.597904
O23   O     O_R   0.683230 0.614620 0.500000 -0.581274
O24   O     O_3   0.575771 0.856569 0.405876 -0.553252
O25   O     O_3   0.538691 0.137346 0.400719 -0.576360
O26   O     O_3   0.433993 0.859196 0.595480 -0.554470
O27   O     O_R   0.316770 0.385380 0.500000 -0.550896
O28   O     O_R   0.499970 0.614690 0.416160 -0.580313
O29   O     O_R   0.500030 0.385310 0.583840 -0.573410
O30   O     O_R   0.500030 0.614690 0.583840 -0.574173
O31   O     O_R   0.499970 0.385310 0.416160 -0.553791
O32   O     O_2   0.680600 0.394928 0.852163 -0.514889
Zn1   Zn    Zn3+2 0.500000 0.653120 0.500000 1.042370
Zn2   Zn    Zn3+2 0.500000 0.346880 0.500000 1.055451

loop_
_geom_bond_atom_site_label_1
_geom_bond_atom_site_label_2
_ccdc_geom_bond_type
C25   C31   A    
O31   Zn2   S    
C34   C56   A    
C23   C45   A    
C57   H32   S    
C27   C29   A    
C18   O28   A    
C41   O10   D    
C38   H38   S    
O30   Zn1   S    
C37   H37   S    
C12   O23   A    
C2    C46   S    
C19   O30   A    
C26   C32   A    
C22   N1    A    
C32   O6    S    
C53   H24   S    
C19   O29   A    
C24   C26   A    
C46   H6    S    
C55   H30   S    
C50   H14   S    
C35   C39   S    
C57   H33   S    
C36   H23   S    
C58   C60   A    
C23   C40   S    
C9    O20   S    
C6    N1    S    
C3    C47   S    
C55   H31   S    
C14   N4    A    
C16   N4    A    
C55   O25   S    
C22   C25   A    
C37   H34   S    
C31   C33   A    
C24   O4    S    
C52   H19   S    
C21   O2    S    
C3    C60   A    
O29   Zn2   S    
C49   H9    S    
C51   O20   S    
C14   C17   A    
C44   H5    S    
C34   C41   S    
C41   H2    S    
C47   H7    S    
C18   C58   S    
C43   H4    S    
O12   Zn2   S    
C20   C29   A    
C45   C58   A    
C15   C16   A    
C32   C35   A    
C57   O26   S    
C51   H16   S    
C4    C6    A    
C50   H13   S    
C48   O17   D    
C54   H26   S    
C2    C59   A    
C20   N1    A    
C3    C5    A    
O28   Zn1   S    
C54   O24   S    
C20   O32   S    
C6    C34   A    
C37   H36   S    
C53   H22   S    
C42   C45   S    
C2    C4    A    
C51   H17   S    
C43   C56   S    
C39   H39   S    
C40   O9    D    
C5    C23   A    
C44   O14   D    
C11   C12   S    
C31   O5    S    
C18   O31   A    
C48   H8    S    
C16   O25   S    
C9    C11   A    
C37   O6    S    
C43   O13   D    
C21   N2    A    
C47   O16   D    
C15   O24   S    
C49   H11   S    
C1    C13   S    
C7    O18   S    
C36   H1    S    
C10   O21   S    
C36   O5    S    
C4    C48   S    
C7    C9    A    
C5    N2    S    
C39   O8    D    
C30   C33   A    
C17   O26   S    
C50   O19   S    
C1    O27   A    
C10   C13   A    
C40   H40   S    
C52   O21   S    
C8    O19   S    
C25   C27   A    
C21   C30   A    
C29   C35   A    
C26   C28   A    
C33   C38   S    
C14   O22   S    
C56   C59   A    
C49   H10   S    
C19   C59   S    
N3    Zn1   S    
C17   N3    A    
C51   H18   S    
C55   H29   S    
O27   Zn2   S    
C50   H15   S    
C54   H28   S    
C54   H27   S    
C44   C60   S    
C8    C11   A    
C49   O18   S    
C28   C30   A    
N4    Zn2   S    
C46   O15   D    
C24   N2    A    
C52   H21   S    
C53   O22   S    
O1    Zn1   S    
C36   H12   S    
C42   O11   D    
C7    C13   A    
C8    C10   A    
C57   H35   S    
C27   C28   A    
C53   H25   S    
O23   Zn1   S    
C15   N3    A    
C38   O7    D    
C52   H20   S    
C42   H3    S    
C22   O3    S    
C1    O1    A    
C12   O12   A    
