data_mof_unit_44144.cif
_audit_creation_date              2012-12-11T15:50:30-0500
_audit_creation_method            fapswitch 2.2
_symmetry_space_group_name_H-M    P1
_symmetry_Int_Tables_number       1
_space_group_crystal_system       triclinic
_cell_length_a                    18.919993
_cell_length_b                    11.210647
_cell_length_c                    18.651301
_cell_angle_alpha                 90.114079
_cell_angle_beta                  91.045386
_cell_angle_gamma                 89.497576
_cell_volume                      3955.22380256

loop_
_atom_site_label
_atom_site_type_symbol
_atom_type_description
_atom_site_fract_x
_atom_site_fract_y
_atom_site_fract_z
_atom_type_partial_charge
C1    C     C_R   0.273059 0.040022 0.854567 0.545495
C2    C     C_R   0.727864 0.042352 0.146820 0.540661
C3    C     C_R   0.772576 0.541936 0.853607 0.546196
C4    C     C_R   0.228256 0.542875 0.146857 0.536048
C5    C     C_3   0.493498 0.713587 0.980721 -0.118078
C6    C     C_3   0.443402 0.771606 0.035589 -0.147176
C7    C     C_3   0.001257 0.218961 0.978334 -0.130122
C8    C     C_3   0.948502 0.267372 0.033602 -0.145834
C9    C     C_R   0.253393 0.598076 0.081255 0.013647
C10   C     C_R   0.756465 0.583654 0.925423 0.045888
C11   C     C_R   0.746966 0.087557 0.077024 0.021335
C12   C     C_R   0.260103 0.067474 0.929644 0.028861
C13   C     C_R   0.309199 0.549485 0.042120 -0.000433
C14   C     C_R   0.693205 0.560401 0.959741 0.035949
C15   C     C_R   0.808249 0.052430 0.041427 -0.009537
C16   C     C_R   0.209695 0.004067 0.967367 0.014228
C17   C     C_R   0.318572 0.580049 0.970761 0.021123
C18   C     C_R   0.689847 0.565282 0.033687 0.015921
C19   C     C_R   0.812997 0.065365 0.967657 0.030055
C20   C     C_R   0.207041 0.008826 0.041619 0.005489
C21   C     C_R   0.220055 0.715832 0.976951 -0.164802
C22   C     C_R   0.810766 0.626473 0.041413 -0.173128
C23   C     C_R   0.696131 0.151708 0.963860 -0.142085
C24   C     C_R   0.314175 0.122438 0.043835 -0.163972
C25   C     C_R   0.212553 0.689378 0.049243 -0.154349
C26   C     C_R   0.813280 0.627791 0.967387 -0.165595
C27   C     C_R   0.693485 0.146692 0.037413 -0.153835
C28   C     C_R   0.314339 0.123244 0.969587 -0.175352
C29   C     C_3   0.328837 0.422469 0.029185 -0.262346
C30   C     C_3   0.643647 0.458593 0.954948 -0.280680
C31   C     C_3   0.847103 0.936455 0.041253 -0.259307
C32   C     C_3   0.131336 0.005915 0.959150 -0.286147
C33   C     C_3   0.339712 0.455604 0.951347 -0.258219
C34   C     C_3   0.640438 0.462886 0.036411 -0.286526
C35   C     C_3   0.852281 0.949978 0.960588 -0.267518
C36   C     C_3   0.128215 0.001966 0.040669 -0.282119
C37   C     C_R   0.270700 0.657127 0.935761 0.031799
C38   C     C_R   0.749150 0.592713 0.076199 0.012899
C39   C     C_R   0.754785 0.107006 0.927345 0.074771
C40   C     C_R   0.255470 0.078983 0.080505 0.015638
C41   C     C_R   0.520290 0.829452 0.431323 0.016621
C42   C     C_R   0.508668 0.831344 0.581011 0.005250
C43   C     C_R   0.020267 0.329472 0.431311 0.016386
C44   C     C_R   0.008642 0.331359 0.580995 0.005425
C45   C     C_R   0.466314 0.820057 0.856810 0.546137
C46   C     C_R   0.529664 0.822442 0.145280 0.559229
C47   C     C_R   0.967917 0.321066 0.856073 0.574862
C48   C     C_R   0.030098 0.322604 0.145043 0.560646
C49   C     C_R   0.532270 0.727093 0.471379 0.018388
C50   C     C_R   0.530217 0.727277 0.545132 0.011641
C51   C     C_R   0.032258 0.227119 0.471367 0.018348
C52   C     C_R   0.030206 0.227301 0.545119 0.011413
C53   C     C_R   0.507187 0.939359 0.542590 -0.167166
C54   C     C_R   0.513587 0.937402 0.468032 -0.152036
C55   C     C_R   0.007144 0.439377 0.542574 -0.167199
C56   C     C_R   0.013546 0.437428 0.468015 -0.152196
C57   C     C_3   0.495747 0.611444 0.463379 -0.281032
C58   C     C_3   0.498175 0.605343 0.543899 -0.260690
C59   C     C_3   0.995745 0.111463 0.463365 -0.281014
C60   C     C_3   0.998177 0.105357 0.543885 -0.260719
C61   C     C_R   0.256696 0.620756 0.411008 -0.016372
C62   C     C_R   0.750549 0.601235 0.582259 0.006436
C63   C     C_R   0.756681 0.120760 0.411014 -0.016432
C64   C     C_R   0.250554 0.101249 0.582263 0.005978
C65   C     C_R   0.216747 0.712567 0.442092 0.065080
C66   C     C_R   0.802938 0.661457 0.546282 0.098257
C67   C     C_R   0.716718 0.212549 0.442110 0.064996
C68   C     C_R   0.302957 0.161428 0.546277 0.098283
C69   C     C_R   0.223613 0.737218 0.514161 -0.038245
C70   C     C_R   0.794877 0.686602 0.474904 -0.061759
C71   C     C_R   0.723587 0.237175 0.514181 -0.037875
C72   C     C_R   0.294901 0.186541 0.474894 -0.061765
C73   C     C_R   0.318057 0.595606 0.524128 -0.172740
C74   C     C_R   0.680574 0.596181 0.474471 -0.134627
C75   C     C_R   0.818060 0.095620 0.524125 -0.172867
C76   C     C_R   0.180579 0.096177 0.474477 -0.134558
C77   C     C_R   0.314705 0.578138 0.449949 -0.194226
C78   C     C_R   0.687814 0.573439 0.547396 -0.186782
C79   C     C_R   0.814701 0.078160 0.449946 -0.194456
C80   C     C_R   0.187813 0.073480 0.547407 -0.187048
C81   C     C_3   0.142565 0.763066 0.436756 0.508863
C82   C     C_3   0.830961 0.782899 0.563479 0.499842
C83   C     C_3   0.642521 0.263011 0.436813 0.508816
C84   C     C_3   0.330986 0.282876 0.563449 0.500201
C85   C     C_3   0.147542 0.773291 0.518725 -0.188059
C86   C     C_3   0.819249 0.810763 0.484587 -0.206447
C87   C     C_3   0.647513 0.273192 0.518781 -0.187831
C88   C     C_3   0.319289 0.310700 0.484553 -0.206272
C89   C     C_R   0.274161 0.683479 0.859224 0.571395
C90   C     C_R   0.739667 0.635929 0.148854 0.549934
C91   C     C_R   0.761484 0.139464 0.852635 0.557827
C92   C     C_R   0.240220 0.134773 0.149345 0.546684
C93   C     C_R   0.270837 0.672938 0.558283 -0.006705
C94   C     C_R   0.734427 0.652358 0.437783 0.001438
C95   C     C_R   0.770832 0.172924 0.558288 -0.005459
C96   C     C_R   0.234443 0.152309 0.437778 0.001414
C97   C     C_R   0.270410 0.048558 0.648612 0.560346
C98   C     C_R   0.730297 0.051807 0.350530 0.525379
C99   C     C_R   0.770411 0.548554 0.648609 0.557966
C100  C     C_R   0.230300 0.551807 0.350528 0.525609
C101  C     C_R   0.471166 0.822926 0.648265 0.539715
C102  C     C_R   0.534147 0.823136 0.355059 0.536026
C103  C     C_R   0.971157 0.322928 0.648258 0.540802
C104  C     C_R   0.034135 0.323141 0.355052 0.537016
C105  C     C_R   0.273998 0.689348 0.636173 0.579656
C106  C     C_R   0.726608 0.685293 0.363774 0.567366
C107  C     C_R   0.773997 0.189342 0.636173 0.578203
C108  C     C_R   0.226614 0.185272 0.363776 0.567827
C109  C     C_3   0.497610 0.943313 0.021996 0.018291
C110  C     C_3   0.546868 0.884752 0.967502 -0.008361
C111  C     C_3   0.994356 0.445821 0.023536 0.007092
C112  C     C_3   0.046325 0.397712 0.968040 -0.009622
C113  C     C_3   0.433323 0.881773 0.986108 -0.154315
C114  C     C_3   0.557209 0.775864 0.016459 -0.089632
C115  C     C_3   0.933322 0.377994 0.985897 -0.152194
C116  C     C_3   0.062262 0.288261 0.015215 -0.119499
C117  C     C_3   0.484133 0.823944 0.932522 0.021348
C118  C     C_3   0.506700 0.833527 0.070878 0.052960
C119  C     C_3   0.986836 0.329028 0.931508 0.045995
C120  C     C_3   0.008763 0.335154 0.070316 0.058664
Cr1   Cr    Cr6+3 0.229640 0.835880 0.747370 0.991445
Cr2   Cr    Cr6+3 0.770360 0.835880 0.252630 0.995928
Cr3   Cr    Cr6+3 0.729640 0.335880 0.747370 0.987128
Cr4   Cr    Cr6+3 0.270360 0.335880 0.252630 0.995144
Cr5   Cr    Cr6+3 0.387390 0.989720 0.750850 0.988879
Cr6   Cr    Cr6+3 0.612610 0.989720 0.249150 1.058912
Cr7   Cr    Cr6+3 0.887390 0.489720 0.750850 1.002517
Cr8   Cr    Cr6+3 0.112610 0.489720 0.249150 1.058795
Cr9   Cr    Cr6+3 0.385770 0.677220 0.749340 0.993791
Cr10  Cr    Cr6+3 0.614230 0.677220 0.250660 0.968584
Cr11  Cr    Cr6+3 0.885770 0.177220 0.749340 0.997059
Cr12  Cr    Cr6+3 0.114230 0.177220 0.250660 0.963053
H1    H     H_    0.381254 0.919775 0.970645 0.130404
H2    H     H_    0.609515 0.740315 0.032088 0.156122
H3    H     H_    0.879727 0.412048 0.971825 0.125607
H4    H     H_    0.117539 0.259984 0.027280 0.126883
H5    H     H_    0.493886 0.022970 0.568442 0.153411
H6    H     H_    0.509040 0.017917 0.438511 0.181308
H7    H     H_    0.993832 0.522983 0.568426 0.153610
H8    H     H_    0.008990 0.517953 0.438495 0.181207
H9    H     H_    0.025554 0.040165 0.436331 0.139172
H10   H     H_    0.946701 0.104691 0.567888 0.171292
H11   H     H_    0.525550 0.540127 0.436354 0.139104
H12   H     H_    0.446695 0.604692 0.567895 0.171319
H13   H     H_    0.443114 0.627340 0.439417 0.148947
H14   H     H_    0.533269 0.533939 0.564943 0.117369
H15   H     H_    0.943110 0.127350 0.439406 0.148919
H16   H     H_    0.033279 0.033963 0.564923 0.117409
H17   H     H_    0.349829 0.534751 0.555378 0.168424
H18   H     H_    0.633363 0.572740 0.446614 0.194849
H19   H     H_    0.849835 0.034764 0.555372 0.168427
H20   H     H_    0.133366 0.072737 0.446624 0.194850
H21   H     H_    0.349874 0.514465 0.425504 0.122982
H22   H     H_    0.645743 0.536356 0.577703 0.120322
H23   H     H_    0.849872 0.014497 0.425495 0.123008
H24   H     H_    0.145738 0.036425 0.577723 0.120276
H25   H     H_    0.138244 0.863141 0.538609 0.115234
H26   H     H_    0.774648 0.871618 0.471552 0.103694
H27   H     H_    0.638204 0.363027 0.538691 0.115336
H28   H     H_    0.274696 0.371569 0.471510 0.104059
H29   H     H_    0.116516 0.704301 0.546875 0.115873
H30   H     H_    0.868818 0.825672 0.455137 0.126544
H31   H     H_    0.616510 0.204161 0.546922 0.115590
H32   H     H_    0.368861 0.325595 0.455110 0.126443
H33   H     H_    0.492379 0.619259 0.962646 0.124908
H34   H     H_    0.401264 0.728666 0.066537 0.129712
H35   H     H_    0.000381 0.125298 0.959341 0.126259
H36   H     H_    0.908767 0.216096 0.063209 0.126820
H37   H     H_    0.182427 0.775064 0.951710 0.135280
H38   H     H_    0.856533 0.657259 0.071404 0.173788
H39   H     H_    0.650199 0.186885 0.935435 0.111796
H40   H     H_    0.356300 0.169522 0.071497 0.173547
H41   H     H_    0.169496 0.731166 0.077553 0.146352
H42   H     H_    0.862960 0.652904 0.944050 0.133544
H43   H     H_    0.644976 0.177164 0.061620 0.162861
H44   H     H_    0.358534 0.165334 0.943920 0.139094
H45   H     H_    0.812872 0.861956 0.057377 0.185229
H46   H     H_    0.109179 0.925707 0.932448 0.127573
H47   H     H_    0.283324 0.362092 0.036744 0.167445
H48   H     H_    0.670133 0.378622 0.933545 0.164379
H49   H     H_    0.378604 0.396464 0.057876 0.140550
H50   H     H_    0.592923 0.483504 0.927756 0.131168
H51   H     H_    0.899066 0.941759 0.069811 0.135798
H52   H     H_    0.113820 0.091173 0.934464 0.154492
H53   H     H_    0.395907 0.449554 0.935242 0.122735
H54   H     H_    0.587626 0.489934 0.056314 0.149067
H55   H     H_    0.907308 0.963059 0.942497 0.126101
H56   H     H_    0.101450 0.078402 0.065885 0.175289
H57   H     H_    0.301433 0.412309 0.913786 0.189380
H58   H     H_    0.664904 0.384671 0.063702 0.134370
H59   H     H_    0.821752 0.882154 0.929761 0.175249
H60   H     H_    0.109608 0.914799 0.060808 0.127595
O1    O     O_R   0.214300 0.709080 0.827500 -0.511064
O2    O     O_R   0.785700 0.709080 0.172500 -0.517153
O3    O     O_R   0.714300 0.209080 0.827500 -0.541474
O4    O     O_R   0.285700 0.209080 0.172500 -0.516565
O5    O     O_R   0.445900 0.919370 0.676500 -0.504293
O6    O     O_R   0.554100 0.919370 0.323500 -0.493444
O7    O     O_R   0.945900 0.419370 0.676500 -0.504384
O8    O     O_R   0.054100 0.419370 0.323500 -0.492352
O9    O     O_R   0.456660 0.717710 0.669820 -0.539269
O10   O     O_R   0.543340 0.717710 0.330180 -0.544708
O11   O     O_R   0.956660 0.217710 0.669820 -0.540117
O12   O     O_R   0.043340 0.217710 0.330180 -0.543924
O13   O     O_R   0.320590 0.625770 0.672930 -0.495146
O14   O     O_R   0.679410 0.625770 0.327070 -0.517258
O15   O     O_R   0.820590 0.125770 0.672930 -0.499927
O16   O     O_R   0.179410 0.125770 0.327070 -0.516251
O17   O     O_3   0.334270 0.834280 0.749190 -0.295040
O18   O     O_3   0.665730 0.834280 0.250810 -0.277536
O19   O     O_3   0.834270 0.334280 0.749190 -0.276802
O20   O     O_3   0.165730 0.334280 0.250810 -0.277635
O21   O     O_R   0.236190 0.958390 0.823150 -0.518055
O22   O     O_R   0.763810 0.958390 0.176850 -0.507984
O23   O     O_R   0.736190 0.458390 0.823150 -0.509779
O24   O     O_R   0.263810 0.458390 0.176850 -0.505440
O25   O     O_R   0.332090 0.075280 0.831290 -0.533236
O26   O     O_R   0.667910 0.075280 0.168710 -0.514510
O27   O     O_R   0.832090 0.575280 0.831290 -0.536213
O28   O     O_R   0.167910 0.575280 0.168710 -0.512021
O29   O     O_R   0.446280 0.918040 0.826620 -0.519665
O30   O     O_R   0.553720 0.918040 0.173380 -0.444119
O31   O     O_R   0.946280 0.418040 0.826620 -0.509061
O32   O     O_R   0.053720 0.418040 0.173380 -0.443489
O33   O     O_R   0.457080 0.716270 0.831760 -0.526801
O34   O     O_R   0.542920 0.716270 0.168240 -0.536448
O35   O     O_R   0.957080 0.216270 0.831760 -0.524891
O36   O     O_R   0.042920 0.216270 0.168240 -0.544043
O37   O     O_R   0.320980 0.624440 0.823040 -0.493094
O38   O     O_R   0.679020 0.624440 0.176960 -0.511016
O39   O     O_R   0.820980 0.124440 0.823040 -0.497971
O40   O     O_R   0.179020 0.124440 0.176960 -0.517146
O41   O     O_R   0.213880 0.710510 0.665560 -0.525139
O42   O     O_R   0.786120 0.710510 0.334440 -0.521027
O43   O     O_R   0.713880 0.210510 0.665560 -0.530421
O44   O     O_R   0.286120 0.210510 0.334440 -0.521180
O45   O     O_R   0.235800 0.959720 0.673040 -0.527060
O46   O     O_R   0.764200 0.959720 0.326960 -0.530953
O47   O     O_R   0.735800 0.459720 0.673040 -0.527000
O48   O     O_R   0.264200 0.459720 0.326960 -0.530604
O49   O     O_R   0.331670 0.076720 0.669350 -0.500267
O50   O     O_R   0.668330 0.076720 0.330650 -0.484494
O51   O     O_R   0.831670 0.576720 0.669350 -0.502220
O52   O     O_R   0.168330 0.576720 0.330650 -0.484353
O53   O     O_3   0.087223 0.686815 0.413617 -0.540661
C121  C     C_3   0.020063 0.743040 0.422858 -0.031858
H61   H     H_    0.021563 0.841834 0.422696 0.156020
H62   H     H_    0.998843 0.717193 0.475693 0.153467
C122  C     C_3   0.968219 0.704945 0.363159 -0.367101
H63   H     H_    0.928631 0.641915 0.383998 0.139617
H64   H     H_    0.938968 0.783836 0.341608 0.110033
H65   H     H_    0.996404 0.661173 0.318353 0.196008
O54   O     O_3   0.904857 0.775186 0.579520 -0.588529
C123  C     C_3   0.923559 0.820195 0.648029 0.035939
H66   H     H_    0.892259 0.777697 0.690776 0.191428
H67   H     H_    0.915557 0.918562 0.649598 0.161108
C124  C     C_3   0.001277 0.793362 0.663364 -0.388777
H68   H     H_    0.010954 0.695510 0.662405 0.159189
H69   H     H_    0.034258 0.836286 0.622373 0.132862
H70   H     H_    0.016690 0.828588 0.717041 0.093508
O55   O     O_3   0.587189 0.186755 0.413662 -0.540710
C125  C     C_3   0.520022 0.242957 0.422916 -0.031546
H71   H     H_    0.521507 0.341752 0.422755 0.156051
H72   H     H_    0.498813 0.217103 0.475754 0.153558
C126  C     C_3   0.468173 0.204844 0.363224 -0.367816
H73   H     H_    0.428632 0.141722 0.384054 0.139560
H74   H     H_    0.438865 0.283712 0.341722 0.110088
H75   H     H_    0.496366 0.161181 0.318385 0.194807
O56   O     O_3   0.404879 0.275174 0.579508 -0.588598
C127  C     C_3   0.423557 0.320131 0.648038 0.037291
H76   H     H_    0.392217 0.277651 0.690760 0.192204
H77   H     H_    0.415586 0.418505 0.649617 0.161597
C128  C     C_3   0.501258 0.293216 0.663420 -0.390711
H78   H     H_    0.510907 0.195358 0.662430 0.156700
H79   H     H_    0.534280 0.336164 0.622474 0.133631
H80   H     H_    0.516641 0.328369 0.717123 0.091344
O57   O     O_3   0.141749 0.875013 0.401355 -0.604475
C129  C     C_3   0.156786 0.864820 0.327229 0.022508
H81   H     H_    0.170927 0.775119 0.308512 0.155665
H82   H     H_    0.204173 0.918451 0.316144 0.164307
C130  C     C_3   0.094302 0.909027 0.281580 -0.325780
H83   H     H_    0.070165 0.989813 0.305546 0.190183
H84   H     H_    0.112046 0.929660 0.226617 0.114883
H85   H     H_    0.053581 0.839090 0.277235 0.120487
O58   O     O_3   0.791186 0.850954 0.614721 -0.575942
C131  C     C_3   0.719111 0.875197 0.597403 -0.030686
H86   H     H_    0.693134 0.807506 0.563245 0.123536
H87   H     H_    0.713997 0.960622 0.568480 0.152715
C132  C     C_3   0.678597 0.886534 0.666812 -0.335840
H88   H     H_    0.705389 0.950587 0.703553 0.200214
H89   H     H_    0.624246 0.919944 0.655502 0.103065
H90   H     H_    0.675876 0.798241 0.693480 0.151873
O59   O     O_3   0.641678 0.374987 0.401452 -0.604501
C133  C     C_3   0.656610 0.364843 0.327304 0.021703
H91   H     H_    0.670631 0.275124 0.308528 0.155888
H92   H     H_    0.704028 0.418373 0.316180 0.163907
C134  C     C_3   0.594100 0.409251 0.281767 -0.325302
H93   H     H_    0.570027 0.489999 0.305837 0.189982
H94   H     H_    0.611794 0.430006 0.226804 0.115624
H95   H     H_    0.553340 0.339383 0.277397 0.120425
O60   O     O_3   0.291205 0.350998 0.614653 -0.575642
C135  C     C_3   0.219117 0.375137 0.597341 -0.036634
H96   H     H_    0.193208 0.307598 0.563017 0.123194
H97   H     H_    0.213954 0.460718 0.568592 0.152633
C136  C     C_3   0.178558 0.385984 0.666744 -0.322451
H98   H     H_    0.205312 0.449829 0.703645 0.215397
H99   H     H_    0.124207 0.419422 0.655475 0.105771
H100  H     H_    0.175845 0.297515 0.693204 0.155150
C137  C     C_2   0.497681 0.073769 0.039690 0.200546
H101  H     H_    0.495184 0.138482 0.996549 0.070509
O61   O     O_2   0.499826 0.108250 0.101719 -0.506839
C138  C     C_2   0.603706 0.936085 0.923040 0.209549
H102  H     H_    0.592112 0.012110 0.888856 0.096162
O62   O     O_2   0.662296 0.889719 0.922878 -0.529461
C139  C     C_2   0.990071 0.574919 0.044323 0.193199
H103  H     H_    0.984090 0.642039 0.002822 0.069891
O63   O     O_2   0.993078 0.605706 0.107026 -0.502989
C140  C     C_2   0.101195 0.467694 0.929961 0.221755
H104  H     H_    0.100704 0.564272 0.932806 0.106273
O64   O     O_2   0.145515 0.416502 0.894172 -0.518412

loop_
_geom_bond_atom_site_label_1
_geom_bond_atom_site_label_2
_ccdc_geom_bond_type
C57   H13   S    
C134  H94   S    
C73   C93   A    
Cr8   O32   S    
C108  O44   A    
C75   C95   A    
C48   C120  S    
O60   C135  S    
C130  H85   S    
C81   O57   S    
C104  O12   A    
C16   C20   A    
C63   C98   S    
C69   C93   A    
C5    C6    S    
C20   C40   A    
C71   C95   A    
C92   O40   A    
C3    O23   A    
C22   C38   A    
C29   C33   S    
C128  H80   S    
C55   H7    S    
C33   H57   S    
C34   H54   S    
C9    C13   A    
C123  H67   S    
C8    H36   S    
C11   C15   A    
C12   C16   A    
C107  O15   A    
Cr10  O10   S    
C96   C108  S    
C59   C60   S    
C113  H1    S    
O53   C121  S    
C30   H50   S    
C32   H46   S    
Cr2   O2    S    
C41   C49   A    
C109  C118  S    
C63   C67   A    
C23   C27   A    
C122  H64   S    
C9    C25   A    
C51   C52   A    
C7    C119  S    
C62   C66   A    
C36   H56   S    
Cr1   O21   S    
C66   C82   S    
C91   O3    A    
C11   C27   A    
C68   C72   A    
C89   O1    A    
C110  C138  S    
C45   O33   A    
C22   H38   S    
C98   O46   A    
C64   C97   S    
Cr2   O42   S    
C2    O22   A    
Cr8   O52   S    
C53   H5    S    
Cr9   O17   S    
C47   O31   A    
C131  C132  S    
C84   C88   S    
C92   O4    A    
C106  O14   A    
C97   O45   A    
C38   C90   S    
C46   O30   A    
C18   C38   A    
C19   C35   S    
C76   C96   A    
C131  H87   S    
C44   C55   A    
C66   C70   A    
C56   H8    S    
C87   H27   S    
C88   H28   S    
C98   O50   A    
C79   H23   S    
C62   C99   S    
C72   C96   A    
C61   C65   A    
C23   H39   S    
Cr10  O34   S    
C29   H47   S    
C2    O26   A    
C76   H20   S    
C101  O9    A    
C60   H16   S    
C75   C79   A    
Cr6   O26   S    
C59   H15   S    
C67   C83   S    
C4    O24   A    
C111  C112  S    
C108  O16   A    
Cr11  O15   S    
C7    C8    S    
C53   C54   A    
C122  H63   S    
C84   O56   S    
C32   C36   S    
C42   C53   A    
O55   C125  S    
C48   O36   A    
C101  O5    A    
C112  C140  S    
C49   C57   S    
C41   C102  S    
C124  H68   S    
C82   O58   S    
C43   C104  S    
C140  O64   D    
C52   C60   S    
C77   H21   S    
C61   C77   A    
C136  H99   S    
Cr6   O50   S    
Cr2   O18   S    
C82   O54   S    
Cr8   O28   S    
C100  O52   A    
Cr9   O9    S    
Cr6   O6    S    
O57   C129  S    
C104  O8    A    
C1    C12   S    
C2    C11   S    
C44   C103  S    
Cr3   O47   S    
C137  O61   D    
C135  H97   S    
C30   C34   S    
C34   H58   S    
Cr7   O51   S    
C10   C14   A    
Cr5   O17   S    
C103  O7    A    
C48   O32   A    
C123  C124  S    
C88   H32   S    
C116  C120  S    
C91   O39   A    
Cr4   O44   S    
C7    C116  S    
O59   C133  S    
Cr10  O14   S    
C25   H41   S    
C18   C34   S    
Cr4   O4    S    
C132  H88   S    
C114  H2    S    
C30   H48   S    
C126  H74   S    
C42   C50   A    
C113  C117  S    
C35   H55   S    
C115  C119  S    
Cr11  O19   S    
C83   O55   S    
C61   C100  S    
C42   C101  S    
C112  C116  S    
C69   C85   S    
Cr11  O39   S    
C21   C25   A    
C121  H61   S    
C122  H65   S    
C35   H59   S    
C106  O42   A    
C36   H60   S    
C62   C78   A    
C76   C80   A    
Cr7   O7    S    
C1    O25   A    
C15   C31   S    
C125  H71   S    
Cr5   O29   S    
C16   C32   S    
C13   C17   A    
C124  H70   S    
C45   O29   A    
C57   C58   S    
Cr2   O46   S    
C115  H3    S    
C21   H37   S    
C128  H79   S    
C100  O48   A    
C129  H82   S    
C24   H40   S    
C58   H12   S    
C47   O35   A    
C59   H9    S    
C49   C50   A    
Cr9   O33   S    
C129  H81   S    
C90   O38   A    
C4    C9    S    
C81   C85   S    
C121  C122  S    
C83   C87   S    
C55   C56   A    
C6    H34   S    
Cr3   O23   S    
C85   H29   S    
C74   C94   A    
C125  C126  S    
Cr7   O27   S    
C15   C19   A    
C85   H25   S    
C12   C28   A    
C13   C29   S    
C70   C94   A    
Cr12  O36   S    
C133  H91   S    
Cr4   O48   S    
Cr10  O38   S    
C45   C117  S    
C132  H90   S    
C46   C118  S    
C39   C91   S    
C73   C77   A    
C7    H35   S    
C60   H10   S    
C4    O28   A    
C129  C130  S    
Cr11  O11   S    
C99   O47   A    
C139  H103  S    
O56   C127  S    
C64   C80   A    
C127  C128  S    
Cr3   O3    S    
C17   C33   S    
C110  C117  S    
Cr1   O1    S    
Cr12  O12   S    
C68   C84   S    
C24   C28   A    
C133  C134  S    
C27   H43   S    
C78   H22   S    
Cr4   O20   S    
C82   C86   S    
Cr2   O22   S    
C50   C58   S    
Cr8   O8    S    
O58   C131  S    
Cr9   O13   S    
C65   C81   S    
C90   O2    A    
Cr6   O30   S    
C95   C107  S    
C71   C87   S    
Cr1   O41   S    
C1    O21   A    
C31   C35   S    
C130  H84   S    
C107  O43   A    
C64   C68   A    
C26   H42   S    
C24   C40   A    
C73   H17   S    
C28   H44   S    
C112  C119  S    
C105  O13   A    
C116  H4    S    
C37   C89   S    
C102  O10   A    
C109  C110  S    
Cr8   O20   S    
C43   C51   A    
O54   C123  S    
C65   C69   A    
C138  O62   D    
C67   C71   A    
C99   O51   A    
C97   O49   A    
C84   O60   S    
C20   C36   S    
Cr11  O35   S    
C21   C37   A    
C3    O27   A    
C136  H98   S    
C22   C26   A    
C127  H76   S    
C33   H53   S    
Cr5   O25   S    
C87   H31   S    
C5    C114  S    
C134  H93   S    
C14   C18   A    
Cr12  O20   S    
C63   C79   A    
C137  H101  S    
C138  H102  S    
C135  C136  S    
C123  H66   S    
C29   H49   S    
C31   H45   S    
C102  O6    A    
C131  H86   S    
Cr1   O45   S    
Cr9   O37   S    
C8    C115  S    
C93   C105  S    
Cr3   O19   S    
Cr5   O49   S    
C86   H30   S    
C5    H33   S    
C126  H73   S    
C74   C78   A    
Cr7   O31   S    
C10   C26   A    
C47   C119  S    
Cr5   O5    S    
C14   C30   S    
Cr12  O40   S    
C72   C88   S    
C80   H24   S    
C121  H62   S    
C139  O63   D    
C57   H11   S    
C81   O53   S    
Cr6   O18   S    
C75   H19   S    
C125  H72   S    
C130  H83   S    
C5    C117  S    
C111  C120  S    
C124  H69   S    
C6    C113  S    
C140  H104  S    
C111  C139  S    
C136  H100  S    
C128  H78   S    
C46   O34   A    
C17   C37   A    
C40   C92   S    
C86   H26   S    
C114  C118  S    
C19   C39   A    
Cr7   O19   S    
Cr12  O16   S    
Cr1   O17   S    
C134  H95   S    
Cr3   O43   S    
Cr10  O18   S    
C51   C59   S    
C70   C86   S    
C8    C120  S    
Cr4   O24   S    
C110  C114  S    
C135  H96   S    
C94   C106  S    
C31   H51   S    
C105  O41   A    
C32   H52   S    
C58   H14   S    
C109  C113  S    
C3    C10   S    
C133  H92   S    
C83   O59   S    
C44   C52   A    
C54   H6    S    
C23   C39   A    
C132  H89   S    
C127  H77   S    
C126  H75   S    
C103  O11   A    
C41   C54   A    
C43   C56   A    
C109  C137  S    
C74   H18   S    
C111  C115  S    
C89   O37   A    
C6    C118  S    
