data_mof_unit_26639.cif
_audit_creation_date              2012-12-10T19:58:44-0500
_audit_creation_method            fapswitch 2.2
_symmetry_space_group_name_H-M    P1
_symmetry_Int_Tables_number       1
_space_group_crystal_system       triclinic
_cell_length_a                    18.432636
_cell_length_b                    18.476376
_cell_length_c                    22.3456
_cell_angle_alpha                 89.850395
_cell_angle_beta                  90.011474
_cell_angle_gamma                 90.214907
_cell_volume                      7610.12369064

loop_
_atom_site_label
_atom_site_type_symbol
_atom_type_description
_atom_site_fract_x
_atom_site_fract_y
_atom_site_fract_z
_atom_type_partial_charge
C1    C     C_R   0.500009 0.000060 0.340170 0.827167
C2    C     C_R   0.859444 0.639296 0.501001 0.833388
C3    C     C_3   0.436320 0.644365 0.471083 0.212943
C4    C     C_3   0.476811 0.690741 0.517366 -0.334729
C5    C     C_3   0.489545 0.648690 0.575141 -1.062012
C6    C     C_3   0.353478 0.424513 0.471012 0.212599
C7    C     C_3   0.308490 0.467006 0.516786 -0.335149
C8    C     C_3   0.352368 0.484877 0.572687 -1.058453
C9    C     C_3   0.565772 0.356683 0.471799 0.213191
C10   C     C_3   0.525592 0.310295 0.518453 -0.335313
C11   C     C_3   0.512108 0.352798 0.575713 -1.061808
C12   C     C_3   0.303092 0.566089 0.348314 0.107114
C13   C     C_R   0.360295 0.859431 0.501111 0.831577
C14   C     C_3   0.228252 0.533148 0.335543 -0.249882
C15   C     C_3   0.227536 0.492572 0.276346 -0.999306
C16   C     C_3   0.570914 0.685425 0.344646 0.143386
C17   C     C_3   0.536355 0.750374 0.312913 -0.309187
C18   C     C_3   0.502986 0.728441 0.253066 -0.959933
C19   C     C_3   0.692212 0.434823 0.348548 0.115006
C20   C     C_3   0.764873 0.468985 0.330216 -0.261207
C21   C     C_3   0.758008 0.511438 0.271884 -0.986424
C22   C     C_3   0.431816 0.314360 0.345839 0.146256
C23   C     C_3   0.466413 0.247649 0.317038 -0.303825
C24   C     C_R   0.140619 0.360665 0.501117 0.830145
C25   C     C_3   0.500735 0.266224 0.256733 -0.960880
C26   C     C_3   0.147560 0.076246 0.970407 0.213865
C27   C     C_3   0.192206 0.033049 0.016164 -0.333657
C28   C     C_3   0.148067 0.014592 0.071854 -1.061063
C29   C     C_3   0.936954 0.144022 0.973466 0.218820
C30   C     C_3   0.976844 0.190322 0.020147 -0.339137
C31   C     C_3   0.989300 0.147853 0.077776 -1.058478
C32   C     C_3   0.850208 0.919510 0.968449 0.211620
C33   C     C_3   0.807249 0.963863 0.014340 -0.336405
C34   C     C_3   0.853026 0.983085 0.068890 -1.055760
C35   C     C_R   0.359309 0.139525 0.499647 0.860247
C36   C     C_3   0.063664 0.856338 0.969750 0.209595
C37   C     C_3   0.023133 0.809849 0.016146 -0.334512
C38   C     C_3   0.010679 0.851634 0.073906 -1.061947
C39   C     C_3   0.800320 0.064708 0.850108 0.087541
C40   C     C_3   0.723647 0.034202 0.841452 -0.239528
C41   C     C_3   0.717283 0.992739 0.783092 -0.996547
C42   C     C_3   0.067984 0.187671 0.845865 0.146564
C43   C     C_3   0.032692 0.254804 0.818027 -0.302998
C44   C     C_3   0.998245 0.237473 0.757593 -0.956308
C45   C     C_3   0.193634 0.934057 0.847587 0.115021
C46   C     C_R   0.138924 0.641201 0.498587 0.857068
C47   C     C_3   0.267096 0.967710 0.830949 -0.259090
C48   C     C_3   0.263186 0.007541 0.771241 -0.996815
C49   C     C_3   0.928538 0.811596 0.844187 0.141185
C50   C     C_3   0.963658 0.745679 0.814612 -0.306546
C51   C     C_3   0.998297 0.765693 0.754733 -0.955981
C52   C     C_3   0.801337 0.897301 0.595639 0.131497
C53   C     C_3   0.801616 0.940558 0.653461 -0.302115
C54   C     C_3   0.866009 0.992385 0.656891 -1.001507
C55   C     C_3   0.076566 0.812704 0.507883 0.117506
C56   C     C_3   0.999886 0.829799 0.529479 -0.293250
C57   C     C_R   0.640316 0.860148 0.500075 0.865648
C58   C     C_3   0.951991 0.853885 0.477314 -1.008467
C59   C     C_3   0.186981 0.093571 0.574437 0.133954
C60   C     C_3   0.175821 0.039407 0.625263 -0.296397
C61   C     C_3   0.110730 0.990185 0.613430 -0.937165
C62   C     C_3   0.930825 0.194945 0.519737 0.154758
C63   C     C_3   0.940869 0.113699 0.529459 -0.344392
C64   C     C_3   0.995723 0.082307 0.485566 -1.019437
C65   C     C_3   0.270257 0.845953 0.635893 0.139432
C66   C     C_3   0.216433 0.810937 0.679690 -0.334000
C67   C     C_3   0.254613 0.784626 0.736229 -1.034518
C68   C     C_R   0.861281 0.358623 0.498550 0.852659
C69   C     C_3   0.818359 0.684401 0.642220 0.145641
C70   C     C_3   0.780600 0.720132 0.695462 -0.340258
C71   C     C_3   0.760300 0.664512 0.743243 -1.017941
C72   C     C_3   0.726986 0.151771 0.635870 0.147586
C73   C     C_3   0.778069 0.188701 0.680652 -0.336843
C74   C     C_3   0.737557 0.211456 0.737043 -1.039144
C75   C     C_3   0.172713 0.302847 0.642566 0.148916
C76   C     C_3   0.215753 0.262896 0.691049 -0.337470
C77   C     C_3   0.236476 0.313488 0.742163 -1.022736
C78   C     C_3   0.307024 0.402474 0.083419 0.128574
C79   C     C_R   0.139478 0.640776 0.001221 0.833468
C80   C     C_3   0.312036 0.455630 0.135322 -0.306593
C81   C     C_3   0.377544 0.505858 0.128912 -0.951016
C82   C     C_3   0.583455 0.326175 0.010650 0.136515
C83   C     C_3   0.514090 0.358512 0.036332 -0.298714
C84   C     C_3   0.480779 0.412380 0.992277 -1.046997
C85   C     C_3   0.717379 0.590568 0.093354 0.204551
C86   C     C_3   0.651357 0.591595 0.134903 -0.387320
C87   C     C_3   0.608012 0.521279 0.130633 -0.983306
C88   C     C_3   0.419947 0.686269 0.017510 0.112623
C89   C     C_3   0.496339 0.673030 0.041065 -0.279869
C90   C     C_R   0.359311 0.139211 0.001153 0.831008
C91   C     C_3   0.545609 0.645001 0.991465 -1.001121
C92   C     C_3   0.766445 0.351392 0.135195 0.130463
C93   C     C_3   0.712326 0.314663 0.177885 -0.339399
C94   C     C_3   0.749721 0.288710 0.234872 -1.031159
C95   C     C_3   0.323906 0.190872 0.143110 0.146747
C96   C     C_3   0.282711 0.228903 0.193489 -0.336758
C97   C     C_3   0.263330 0.176242 0.243751 -1.021688
C98   C     C_3   0.223441 0.655658 0.138205 0.143956
C99   C     C_3   0.274473 0.692963 0.182821 -0.333291
C100  C     C_3   0.233865 0.716393 0.238946 -1.035449
C101  C     C_R   0.860357 0.359426 0.001225 0.836013
C102  C     C_3   0.680823 0.816112 0.142207 0.138439
C103  C     C_3   0.718384 0.782031 0.196438 -0.335479
C104  C     C_3   0.736994 0.838878 0.243462 -1.017198
C105  C     C_R   0.999994 0.500011 0.340141 0.837140
C106  C     C_R   0.640526 0.860523 0.001102 0.838196
C107  C     C_R   0.859829 0.639936 0.000331 0.867782
C108  C     C_R   0.638899 0.141296 0.998531 0.861659
C109  C     C_R   0.140374 0.360208 0.000034 0.860749
C110  C     C_R   0.360789 0.858951 0.998944 0.857615
C111  C     C_R   0.699013 0.750163 0.459299 -0.087721
C112  C     C_R   0.262212 0.684723 0.473772 -0.042435
C113  C     C_R   0.304360 0.253347 0.462311 -0.082077
C114  C     C_R   0.739041 0.314202 0.472589 -0.041374
C115  C     C_R   0.316589 0.735832 0.477551 -0.146130
C116  C     C_R   0.999988 0.500060 0.840171 0.827894
C117  C     C_R   0.748389 0.696206 0.462178 -0.140521
C118  C     C_R   0.684531 0.263570 0.476454 -0.144807
C119  C     C_R   0.255223 0.307503 0.465574 -0.139099
C120  C     C_R   0.196359 0.247618 0.961737 -0.084990
C121  C     C_R   0.762866 0.184351 0.974756 -0.045816
C122  C     C_R   0.800019 0.748894 0.959350 -0.085198
C123  C     C_R   0.237441 0.815569 0.973603 -0.043939
C124  C     C_R   0.817264 0.235497 0.978820 -0.148606
C125  C     C_R   0.245674 0.193605 0.964693 -0.141324
C126  C     C_R   0.183059 0.764573 0.977104 -0.142859
C127  C     C_R   0.499984 0.000014 0.840141 0.839550
C128  C     C_R   0.750814 0.802877 0.962176 -0.141364
C129  C     C_R   0.695632 0.804078 0.502492 -0.232095
C130  C     C_R   0.194331 0.697598 0.499051 -0.298612
C131  C     C_R   0.303989 0.195537 0.502223 -0.244965
C132  C     C_R   0.806306 0.301947 0.499092 -0.298499
C133  C     C_R   0.306452 0.801575 0.506331 -0.297436
C134  C     C_R   0.801947 0.692637 0.505146 -0.246044
C135  C     C_R   0.693962 0.198025 0.505917 -0.295663
C136  C     C_R   0.198435 0.307623 0.505856 -0.261682
C137  C     C_R   0.195209 0.303721 0.003035 -0.239786
C138  C     C_R   0.500000 0.000014 0.659871 0.833220
C139  C     C_R   0.694596 0.197481 0.999360 -0.287942
C140  C     C_R   0.804310 0.695556 0.003121 -0.249364
C141  C     C_R   0.304457 0.803463 0.000689 -0.295368
C142  C     C_R   0.806742 0.301495 0.006965 -0.291963
C143  C     C_R   0.301294 0.192032 0.005997 -0.255220
C144  C     C_R   0.192359 0.699294 0.007110 -0.295805
C145  C     C_R   0.697813 0.806772 0.005491 -0.256161
C146  C     C_R   0.746999 0.800577 0.550212 0.347095
C147  C     C_R   0.184227 0.762075 0.532332 0.357741
C148  C     C_R   0.248938 0.195267 0.547166 0.345609
C149  C     C_R   0.999985 0.499941 0.659836 0.819752
C150  C     C_R   0.815429 0.238265 0.534063 0.373820
C151  C     C_R   0.242749 0.809694 0.541125 0.398282
C152  C     C_R   0.797739 0.742936 0.552878 0.370401
C153  C     C_R   0.756966 0.190191 0.541837 0.401009
C154  C     C_R   0.199239 0.253523 0.551066 0.363903
C155  C     C_R   0.248446 0.302032 0.049401 0.350493
C156  C     C_R   0.684312 0.262039 0.032321 0.350849
C157  C     C_R   0.753837 0.699501 0.051715 0.360959
C158  C     C_R   0.312812 0.740370 0.036337 0.358956
C159  C     C_R   0.742664 0.310036 0.041141 0.386258
C160  C     C_R   0.000004 0.500018 0.159871 0.835857
C161  C     C_R   0.298898 0.244198 0.052512 0.365757
C162  C     C_R   0.254348 0.692415 0.044095 0.393296
C163  C     C_R   0.702575 0.756613 0.053739 0.394899
C164  C     C_1   0.999982 0.500032 0.276747 -0.177848
C165  C     C_1   0.500020 0.000080 0.276747 -0.171520
C166  C     C_1   0.499933 0.000042 0.776747 -0.182456
C167  C     C_1   0.999972 0.500081 0.776748 -0.172094
C168  C     C_1   0.499970 0.000038 0.723272 -0.173501
C169  C     C_1   0.999970 0.499922 0.723259 -0.171195
C170  C     C_1   0.999999 0.500033 0.223272 -0.173978
C171  C     C_R   0.500010 0.999940 0.159836 0.817468
C172  C     C_1   0.500021 0.999920 0.223258 -0.170138
C173  C     C_3   0.722218 0.659944 0.406903 0.302454
C174  C     C_3   0.347946 0.717105 0.418083 0.333024
C175  C     C_3   0.280731 0.343414 0.409662 0.304658
C176  C     C_3   0.652611 0.283820 0.417422 0.323894
C177  C     C_3   0.284277 0.664130 0.411231 0.278028
C178  C     C_3   0.669408 0.724665 0.400212 0.280189
C179  C     C_3   0.716729 0.336595 0.410467 0.277849
C180  C     C_3   0.333157 0.278510 0.402847 0.282496
C181  C     C_3   0.219940 0.157972 0.908908 0.307218
C182  C     C_R   0.639839 0.140483 0.500930 0.835157
C183  C     C_3   0.849331 0.216875 0.919681 0.336208
C184  C     C_3   0.776841 0.839087 0.906661 0.304053
C185  C     C_3   0.152349 0.783673 0.917378 0.326802
C186  C     C_3   0.785795 0.164078 0.912310 0.282936
C187  C     C_3   0.167182 0.222727 0.902424 0.281700
C188  C     C_3   0.216238 0.836758 0.910917 0.277397
C189  C     C_3   0.829479 0.774282 0.900123 0.282235
C190  C     C_3   0.649250 0.579389 0.469166 0.211973
C191  C     C_3   0.692492 0.535270 0.515228 -0.332120
C192  C     C_3   0.647121 0.516629 0.570192 -1.062667
H1    H     H_    0.764304 0.659062 0.371317 0.066564
H2    H     H_    0.846866 0.262455 0.887181 0.060276
H3    H     H_    0.985636 0.904727 0.064059 0.271967
H4    H     H_    0.840299 0.020480 0.844220 0.190947
H5    H     H_    0.813626 0.106062 0.815328 0.116849
H6    H     H_    0.710094 0.997262 0.879049 0.300269
H7    H     H_    0.683631 0.078954 0.841292 0.203704
H8    H     H_    0.730344 0.029359 0.745273 0.258423
H9    H     H_    0.661118 0.972107 0.777412 0.287382
H10   H     H_    0.754947 0.946010 0.783416 0.263448
H11   H     H_    0.026633 0.144039 0.849585 0.181270
H12   H     H_    0.111150 0.166218 0.815700 0.097779
H13   H     H_    0.734599 0.840089 0.871187 0.065644
H14   H     H_    0.990301 0.275943 0.848605 0.276413
H15   H     H_    0.074107 0.297920 0.811768 0.204250
H16   H     H_    0.039815 0.216821 0.726024 0.270455
H17   H     H_    0.974101 0.287349 0.738337 0.281405
H18   H     H_    0.954656 0.196270 0.763048 0.262529
H19   H     H_    0.151018 0.976197 0.844032 0.184527
H20   H     H_    0.178054 0.890732 0.815313 0.113845
H21   H     H_    0.284297 0.006416 0.866167 0.290843
H22   H     H_    0.308931 0.924793 0.828190 0.198747
H23   H     H_    0.243561 0.970381 0.735838 0.256902
H24   H     H_    0.155528 0.738200 0.885025 0.061824
H25   H     H_    0.317928 0.027821 0.758760 0.285014
H26   H     H_    0.225757 0.054352 0.774603 0.262267
H27   H     H_    0.969979 0.854969 0.848941 0.181460
H28   H     H_    0.885315 0.834366 0.814644 0.098682
H29   H     H_    0.005971 0.723138 0.844715 0.275501
H30   H     H_    0.922037 0.703052 0.807062 0.206812
H31   H     H_    0.956894 0.787994 0.723677 0.269618
H32   H     H_    0.022288 0.716656 0.734145 0.282741
H33   H     H_    0.042046 0.806432 0.761387 0.260717
H34   H     H_    0.795105 0.934927 0.556965 0.145645
H35   H     H_    0.744586 0.181906 0.878785 0.018495
H36   H     H_    0.854445 0.869331 0.592304 0.168260
H37   H     H_    0.750356 0.971678 0.656025 0.243886
H38   H     H_    0.804269 0.902428 0.691922 0.214283
H39   H     H_    0.917897 0.962516 0.652215 0.262755
H40   H     H_    0.865846 0.020297 0.700833 0.259638
H41   H     H_    0.861892 0.033604 0.621035 0.299845
H42   H     H_    0.072218 0.775297 0.468932 0.114842
H43   H     H_    0.102889 0.864004 0.492782 0.120793
H44   H     H_    0.975635 0.780809 0.550432 0.280145
H45   H     H_    0.002113 0.873369 0.563639 0.210951
H46   H     H_    0.182006 0.261881 0.866382 0.036374
H47   H     H_    0.975977 0.901920 0.454726 0.265812
H48   H     H_    0.897213 0.868322 0.493650 0.252365
H49   H     H_    0.946106 0.809329 0.444356 0.262949
H50   H     H_    0.199590 0.063587 0.532533 0.131947
H51   H     H_    0.135305 0.123669 0.568276 0.161456
H52   H     H_    0.225430 0.006067 0.630096 0.251925
H53   H     H_    0.166725 0.069157 0.667766 0.212606
H54   H     H_    0.060196 0.022522 0.610798 0.254050
H55   H     H_    0.104910 0.950539 0.650498 0.263274
H56   H     H_    0.118190 0.960348 0.570852 0.290868
H57   H     H_    0.258346 0.819789 0.877980 0.025286
H58   H     H_    0.983801 0.222295 0.527470 0.189792
H59   H     H_    0.916051 0.205550 0.471984 0.080376
H60   H     H_    0.960185 0.104136 0.575901 0.230544
H61   H     H_    0.888072 0.085518 0.523258 0.240053
H62   H     H_    0.974738 0.086321 0.439084 0.269589
H63   H     H_    0.005171 0.024443 0.496406 0.274560
H64   H     H_    0.048191 0.111749 0.488515 0.257003
H65   H     H_    0.292163 0.896054 0.656488 0.160208
H66   H     H_    0.318166 0.809902 0.629279 0.113125
H67   H     H_    0.174184 0.850862 0.692100 0.219447
H68   H     H_    0.814866 0.735506 0.863912 0.037209
H69   H     H_    0.189402 0.763827 0.658369 0.254571
H70   H     H_    0.293218 0.740624 0.725177 0.272499
H71   H     H_    0.213855 0.763328 0.768429 0.263747
H72   H     H_    0.284807 0.829700 0.757571 0.266185
H73   H     H_    0.866405 0.654388 0.659009 0.178896
H74   H     H_    0.781539 0.643262 0.621590 0.095314
H75   H     H_    0.817160 0.761457 0.715514 0.221449
H76   H     H_    0.730416 0.747410 0.679928 0.250253
H77   H     H_    0.723455 0.622777 0.724219 0.273989
H78   H     H_    0.731961 0.691918 0.780661 0.259804
H79   H     H_    0.599838 0.548068 0.457138 0.128360
H80   H     H_    0.809759 0.637889 0.761070 0.264377
H81   H     H_    0.706850 0.100588 0.656063 0.163952
H82   H     H_    0.677839 0.185839 0.628263 0.111593
H83   H     H_    0.822472 0.150990 0.692960 0.228308
H84   H     H_    0.802511 0.237848 0.660197 0.254335
H85   H     H_    0.696610 0.253381 0.726011 0.273167
H86   H     H_    0.776544 0.234390 0.769877 0.264112
H87   H     H_    0.709676 0.164302 0.757642 0.267328
H88   H     H_    0.123355 0.326193 0.663417 0.179132
H89   H     H_    0.204890 0.349633 0.624941 0.099264
H90   H     H_    0.629886 0.629886 0.490311 0.163389
H91   H     H_    0.182664 0.217356 0.709040 0.224740
H92   H     H_    0.266244 0.240504 0.671481 0.247666
H93   H     H_    0.271570 0.358110 0.725329 0.273218
H94   H     H_    0.266851 0.282796 0.776772 0.260566
H95   H     H_    0.187173 0.336838 0.762965 0.262603
H96   H     H_    0.297925 0.433235 0.041131 0.134331
H97   H     H_    0.359583 0.373432 0.080667 0.169471
H98   H     H_    0.261652 0.488302 0.136851 0.252236
H99   H     H_    0.317100 0.424858 0.177895 0.214367
H100  H     H_    0.428536 0.474033 0.128603 0.254615
H101  H     H_    0.712620 0.484705 0.495004 0.285361
H102  H     H_    0.379478 0.543748 0.167317 0.262136
H103  H     H_    0.373743 0.537667 0.086836 0.294595
H104  H     H_    0.569417 0.294218 0.970003 0.108409
H105  H     H_    0.619949 0.371903 0.997503 0.142862
H106  H     H_    0.474496 0.314465 0.045882 0.250134
H107  H     H_    0.526742 0.386814 0.078918 0.231378
H108  H     H_    0.520713 0.455255 0.980503 0.269502
H109  H     H_    0.433014 0.438917 0.012554 0.263621
H110  H     H_    0.463312 0.384076 0.950887 0.268864
H111  H     H_    0.751460 0.543666 0.106578 0.196447
H112  H     H_    0.345033 0.762714 0.385641 0.061283
H113  H     H_    0.740012 0.566195 0.530820 0.208536
H114  H     H_    0.700521 0.580354 0.046168 0.098138
H115  H     H_    0.669570 0.599490 0.181809 0.224016
H116  H     H_    0.615267 0.637045 0.122894 0.263003
H117  H     H_    0.587760 0.513439 0.084267 0.283323
H118  H     H_    0.560787 0.523615 0.161398 0.261842
H119  H     H_    0.642306 0.474511 0.143493 0.284503
H120  H     H_    0.424214 0.719182 0.975689 0.113343
H121  H     H_    0.394504 0.633106 0.006566 0.130177
H122  H     H_    0.519180 0.724425 0.058715 0.280212
H123  H     H_    0.494007 0.632912 0.078160 0.219615
H124  H     H_    0.635422 0.566483 0.596046 0.279887
H125  H     H_    0.525343 0.592182 0.974637 0.262197
H126  H     H_    0.601179 0.637857 0.008981 0.266233
H127  H     H_    0.548206 0.684427 0.953897 0.259769
H128  H     H_    0.784527 0.403129 0.155594 0.160617
H129  H     H_    0.816463 0.317833 0.130575 0.122143
H130  H     H_    0.668676 0.353413 0.189670 0.216896
H131  H     H_    0.687050 0.266964 0.156081 0.258376
H132  H     H_    0.788783 0.244941 0.224285 0.272022
H133  H     H_    0.708605 0.267206 0.266667 0.264124
H134  H     H_    0.779368 0.333947 0.256383 0.265947
H135  H     H_    0.677751 0.478878 0.599451 0.276580
H136  H     H_    0.373059 0.165174 0.162450 0.180347
H137  H     H_    0.290224 0.145971 0.124269 0.096569
H138  H     H_    0.316651 0.273439 0.211935 0.224759
H139  H     H_    0.231809 0.252444 0.175524 0.248058
H140  H     H_    0.228068 0.132114 0.226457 0.273382
H141  H     H_    0.233592 0.205430 0.279468 0.260313
H142  H     H_    0.313218 0.152393 0.263331 0.263394
H143  H     H_    0.202605 0.605026 0.158858 0.160506
H144  H     H_    0.174608 0.689966 0.129917 0.110901
H145  H     H_    0.318661 0.655270 0.195607 0.222705
H146  H     H_    0.595444 0.490287 0.556888 0.268596
H147  H     H_    0.299232 0.741742 0.161993 0.249910
H148  H     H_    0.192840 0.758089 0.227521 0.272720
H149  H     H_    0.272775 0.739780 0.271621 0.262777
H150  H     H_    0.206125 0.669385 0.259885 0.266623
H151  H     H_    0.632178 0.845828 0.158010 0.180046
H152  H     H_    0.717414 0.857276 0.121177 0.094944
H153  H     H_    0.682279 0.740427 0.216821 0.221811
H154  H     H_    0.769276 0.755386 0.181888 0.252491
H155  H     H_    0.773375 0.880901 0.224098 0.273947
H156  H     H_    0.765263 0.812689 0.281632 0.260553
H157  H     H_    0.472703 0.599757 0.457072 0.115257
H158  H     H_    0.686813 0.864946 0.260326 0.264767
H159  H     H_    0.388807 0.617518 0.492129 0.173089
H160  H     H_    0.529582 0.708837 0.499011 0.267871
H161  H     H_    0.445670 0.739769 0.528686 0.228648
H162  H     H_    0.437181 0.639306 0.598561 0.281014
H163  H     H_    0.526001 0.680066 0.605046 0.279193
H164  H     H_    0.238195 0.344197 0.374418 0.065743
H165  H     H_    0.514822 0.595767 0.565304 0.272096
H166  H     H_    0.402098 0.457354 0.459417 0.129069
H167  H     H_    0.374208 0.374308 0.492015 0.164521
H168  H     H_    0.288390 0.517857 0.496723 0.282151
H169  H     H_    0.260861 0.435192 0.531154 0.213650
H170  H     H_    0.364414 0.434532 0.597999 0.279458
H171  H     H_    0.320512 0.521342 0.601996 0.276595
H172  H     H_    0.403898 0.512358 0.560528 0.268672
H173  H     H_    0.529611 0.401779 0.458245 0.117801
H174  H     H_    0.613867 0.382785 0.492465 0.173710
H175  H     H_    0.654698 0.238820 0.384558 0.062852
H176  H     H_    0.473078 0.291414 0.500196 0.270306
H177  H     H_    0.557285 0.261739 0.530393 0.225410
H178  H     H_    0.564329 0.363779 0.598852 0.281414
H179  H     H_    0.476591 0.320922 0.606144 0.278090
H180  H     H_    0.485392 0.404935 0.565280 0.271466
H181  H     H_    0.344957 0.523434 0.343433 0.186920
H182  H     H_    0.316998 0.608818 0.314809 0.112728
H183  H     H_    0.213144 0.495070 0.371998 0.294031
H184  H     H_    0.186802 0.576539 0.334137 0.201087
H185  H     H_    0.244781 0.529237 0.239639 0.258093
H186  H     H_    0.242486 0.681499 0.378057 0.022617
H187  H     H_    0.171878 0.472534 0.266799 0.285889
H188  H     H_    0.264783 0.445524 0.278618 0.261115
H189  H     H_    0.529272 0.642358 0.350227 0.179887
H190  H     H_    0.614374 0.661537 0.316085 0.097632
H191  H     H_    0.493425 0.773801 0.341817 0.273808
H192  H     H_    0.578079 0.792800 0.304847 0.207312
H193  H     H_    0.545031 0.705203 0.223203 0.264565
H194  H     H_    0.479411 0.776778 0.230855 0.284219
H195  H     H_    0.459137 0.687875 0.260127 0.261048
H196  H     H_    0.649308 0.476817 0.346547 0.184461
H197  H     H_    0.683863 0.763400 0.363774 0.039100
H198  H     H_    0.675472 0.391915 0.316300 0.113799
H199  H     H_    0.784084 0.506137 0.365875 0.292294
H200  H     H_    0.806443 0.426201 0.324890 0.194674
H201  H     H_    0.735553 0.476468 0.236034 0.259556
H202  H     H_    0.812250 0.531519 0.257795 0.281480
H203  H     H_    0.721712 0.558616 0.278398 0.261758
H204  H     H_    0.473438 0.357696 0.349682 0.180060
H205  H     H_    0.388411 0.336657 0.316230 0.097357
H206  H     H_    0.508781 0.225427 0.347229 0.275791
H207  H     H_    0.424567 0.205073 0.310317 0.205172
H208  H     H_    0.757999 0.319945 0.376711 0.027809
H209  H     H_    0.459186 0.287940 0.225529 0.269894
H210  H     H_    0.524454 0.216664 0.236795 0.282463
H211  H     H_    0.544642 0.306975 0.262587 0.261242
H212  H     H_    0.098806 0.043769 0.958642 0.128414
H213  H     H_    0.127109 0.126294 0.991595 0.163259
H214  H     H_    0.212316 0.982420 0.995997 0.283669
H215  H     H_    0.239804 0.064545 0.030868 0.211653
H216  H     H_    0.136569 0.064591 0.097581 0.279413
H217  H     H_    0.179500 0.977254 0.100892 0.276792
H218  H     H_    0.096264 0.987886 0.059417 0.268943
H219  H     H_    0.317846 0.239773 0.366785 0.035100
H220  H     H_    0.973473 0.099397 0.959739 0.118231
H221  H     H_    0.889131 0.117246 0.994072 0.173738
H222  H     H_    0.029707 0.208787 0.002183 0.267514
H223  H     H_    0.945349 0.239169 0.031461 0.227077
H224  H     H_    0.936708 0.137290 0.100508 0.281027
H225  H     H_    0.024703 0.179508 0.108327 0.278436
H226  H     H_    0.015666 0.095462 0.067872 0.271793
H227  H     H_    0.899704 0.950625 0.956181 0.133643
H228  H     H_    0.869405 0.869001 0.989882 0.163417
H229  H     H_    0.786650 0.014147 0.993742 0.284989
H230  H     H_    0.262248 0.157623 0.873488 0.065415
H231  H     H_    0.760037 0.932867 0.030544 0.207572
H232  H     H_    0.865006 0.933478 0.095198 0.279110
H233  H     H_    0.822538 0.021025 0.097909 0.275800
H234  H     H_    0.904585 0.009400 0.055136 0.266790
H235  H     H_    0.027219 0.900866 0.955476 0.115049
H236  H     H_    0.111033 0.883290 0.990814 0.174739
H237  H     H_    0.970289 0.791985 0.997902 0.267819
H238  H     H_    0.054051 0.760636 0.027488 0.229430
H239  H     H_    0.063121 0.860640 0.097284 0.281166
H240  H     H_    0.974125 0.820258 0.103854 0.279346
O1    O     O_3   0.500000 0.000000 0.500000 -0.495989
O2    O     O_R   0.560750 0.000000 0.867980 -0.662170
O3    O     O_R   1.000000 0.560750 0.867980 -0.650933
O4    O     O_R   0.439250 0.000000 0.867980 -0.656483
O5    O     O_R   0.560720 0.000000 0.632020 -0.647163
O6    O     O_R   1.000000 0.560720 0.632020 -0.643574
O7    O     O_R   0.439280 0.000000 0.632020 -0.644551
O8    O     O_R   1.000000 0.439280 0.632020 -0.642347
O9    O     O_R   0.060720 0.500000 0.132020 -0.645651
O10   O     O_R   0.500000 0.060720 0.132020 -0.643308
O11   O     O_R   0.939280 0.500000 0.132020 -0.647970
O12   O     O_3   0.000000 0.500000 0.500000 -0.490568
O13   O     O_R   0.500000 0.939280 0.132020 -0.645362
O14   O     O_R   0.585450 0.146130 0.465380 -0.641754
O15   O     O_R   0.853870 0.585450 0.465380 -0.646034
O16   O     O_R   0.414550 0.853870 0.465380 -0.641559
O17   O     O_R   0.146130 0.414550 0.465380 -0.649923
O18   O     O_R   0.414550 0.146130 0.465380 -0.629164
O19   O     O_R   0.146130 0.585450 0.465380 -0.651317
O20   O     O_R   0.585450 0.853870 0.465380 -0.626186
O21   O     O_R   0.853870 0.414550 0.465380 -0.641931
O22   O     O_R   0.085450 0.646130 0.965380 -0.643176
O23   O     O_3   0.000000 0.500000 0.000000 -0.492953
O24   O     O_R   0.353870 0.085450 0.965380 -0.648393
O25   O     O_R   0.914550 0.353870 0.965380 -0.642770
O26   O     O_R   0.646130 0.914550 0.965380 -0.651915
O27   O     O_R   0.914550 0.646130 0.965380 -0.622016
O28   O     O_R   0.646130 0.085450 0.965380 -0.662622
O29   O     O_R   0.085450 0.353870 0.965380 -0.628467
O30   O     O_R   0.353870 0.914550 0.965380 -0.646241
O31   O     O_R   0.353850 0.914510 0.534610 -0.616619
O32   O     O_R   0.085490 0.353850 0.534610 -0.619431
O33   O     O_R   0.646150 0.085490 0.534610 -0.617842
O34   O     O_3   0.500000 0.000000 0.000000 -0.490719
O35   O     O_R   0.914510 0.646150 0.534610 -0.619986
O36   O     O_R   0.646150 0.914510 0.534610 -0.610333
O37   O     O_R   0.914510 0.353850 0.534610 -0.611554
O38   O     O_R   0.353850 0.085490 0.534610 -0.604286
O39   O     O_R   0.085490 0.646150 0.534610 -0.599476
O40   O     O_R   0.853850 0.414510 0.034610 -0.622753
O41   O     O_R   0.585490 0.853850 0.034610 -0.623559
O42   O     O_R   0.146150 0.585490 0.034610 -0.615932
O43   O     O_R   0.414510 0.146150 0.034610 -0.610263
O44   O     O_R   0.146150 0.414510 0.034610 -0.607355
O45   O     O_R   0.500000 0.939250 0.367980 -0.648714
O46   O     O_R   0.414510 0.853850 0.034610 -0.601241
O47   O     O_R   0.853850 0.585490 0.034610 -0.638923
O48   O     O_R   0.585490 0.146150 0.034610 -0.591611
O49   O     O_3   0.689684 0.590062 0.415407 -0.630853
O50   O     O_3   0.418675 0.685203 0.418937 -0.616658
O51   O     O_3   0.313982 0.413077 0.416962 -0.631122
O52   O     O_3   0.582146 0.316190 0.419355 -0.620405
O53   O     O_3   0.306058 0.591102 0.407903 -0.628414
O54   O     O_3   0.595316 0.705462 0.402420 -0.618619
O55   O     O_3   0.695870 0.409949 0.408277 -0.630074
O56   O     O_R   0.060750 0.500000 0.367980 -0.660239
O57   O     O_3   0.407307 0.297516 0.404321 -0.618719
O58   O     O_3   0.187213 0.088033 0.916430 -0.629086
O59   O     O_3   0.919994 0.184893 0.921194 -0.616108
O60   O     O_3   0.809637 0.908858 0.914776 -0.635287
O61   O     O_3   0.081624 0.815600 0.917794 -0.619743
O62   O     O_3   0.808076 0.091220 0.908894 -0.632328
O63   O     O_3   0.093111 0.203429 0.904312 -0.618170
O64   O     O_3   0.194849 0.909913 0.907578 -0.628298
O65   O     O_3   0.903586 0.793393 0.902264 -0.620142
O66   O     O_3   0.742465 0.848161 0.597707 -0.624286
O67   O     O_R   0.500000 0.060750 0.367980 -0.651828
O68   O     O_3   0.116912 0.780799 0.554882 -0.601228
O69   O     O_3   0.245173 0.140293 0.589261 -0.615158
O70   O     O_3   0.880616 0.222466 0.562029 -0.610907
O71   O     O_3   0.235116 0.865534 0.581706 -0.614231
O72   O     O_3   0.843770 0.737949 0.601753 -0.640958
O73   O     O_3   0.764274 0.133934 0.582378 -0.624983
O74   O     O_3   0.149505 0.254060 0.597567 -0.627758
O75   O     O_3   0.248859 0.354047 0.093872 -0.618266
O76   O     O_3   0.616578 0.280925 0.053801 -0.601822
O77   O     O_3   0.759837 0.654063 0.101043 -0.637139
O78   O     O_R   0.939250 0.500000 0.367980 -0.656981
O79   O     O_3   0.378908 0.722649 0.061525 -0.603061
O80   O     O_3   0.733295 0.367924 0.079542 -0.624432
O81   O     O_3   0.347507 0.241900 0.099790 -0.635669
O82   O     O_3   0.261111 0.636703 0.085171 -0.615170
O83   O     O_3   0.656614 0.761374 0.102548 -0.643083
O84   O     O_R   1.000000 0.439250 0.867980 -0.651637
Zn1   Zn    Zn3+2 0.586760 0.000000 0.549450 0.965330
Zn2   Zn    Zn3+2 0.913280 0.500000 0.450540 0.934840
Zn3   Zn    Zn3+2 0.500000 0.913280 0.450540 0.956490
Zn4   Zn    Zn3+2 0.086720 0.500000 0.450540 0.927681
Zn5   Zn    Zn3+2 1.000000 0.586720 0.950540 0.955491
Zn6   Zn    Zn3+2 0.413280 0.000000 0.950540 0.934334
Zn7   Zn    Zn3+2 1.000000 0.413280 0.950540 0.952296
Zn8   Zn    Zn3+2 0.586720 0.000000 0.950540 0.922416
Zn9   Zn    Zn3+2 1.000000 0.586760 0.549450 0.968796
Zn10  Zn    Zn3+2 0.413240 0.000000 0.549450 0.968081
Zn11  Zn    Zn3+2 0.000000 0.413240 0.549450 0.965639
Zn12  Zn    Zn3+2 0.086760 0.500000 0.049450 0.967253
Zn13  Zn    Zn3+2 0.500000 0.086760 0.049450 0.977504
Zn14  Zn    Zn3+2 0.913240 0.500000 0.049450 0.951738
Zn15  Zn    Zn3+2 0.500000 0.913240 0.049450 0.964474
Zn16  Zn    Zn3+2 0.500000 0.086720 0.450540 0.952361

loop_
_geom_bond_atom_site_label_1
_geom_bond_atom_site_label_2
_ccdc_geom_bond_type
C120  C187  S    
C74   H85   S    
C107  O27   A    
C52   O66   S    
O12   Zn9   S    
C132  C150  A    
C19   C20   S    
C133  C151  A    
C146  O66   S    
C181  C187  S    
C59   O69   S    
C20   H200  S    
C96   H138  S    
C11   H180  S    
C2    C134  S    
C177  H186  S    
C92   O80   S    
C180  O57   S    
C115  C174  S    
C69   H73   S    
C128  C145  A    
C110  O46   A    
O12   Zn2   S    
C176  H175  S    
C38   H3    S    
O38   Zn10  S    
C161  O81   S    
C107  C140  S    
C11   H178  S    
C27   H215  S    
C176  C179  S    
C184  O60   S    
O29   Zn7   S    
C51   H31   S    
C94   H134  S    
C8    H170  S    
C42   O63   S    
C156  O76   S    
C17   H192  S    
C90   C143  S    
C189  H68   S    
C86   H116  S    
C63   H60   S    
C174  O50   S    
C163  O83   S    
C59   C60   S    
O34   Zn6   S    
C147  O68   S    
C103  H153  S    
C41   H8    S    
C32   H228  S    
C16   O54   S    
C48   H25   S    
C45   C47   S    
C87   H119  S    
C98   H143  S    
C88   H120  S    
O17   Zn4   S    
C72   H81   S    
O22   Zn5   S    
C120  C125  A    
C72   C73   S    
C123  C126  A    
O23   Zn7   S    
C160  O11   A    
C16   H190  S    
C184  H13   S    
C68   O21   A    
C178  H197  S    
C65   H65   S    
C43   C44   S    
C37   C38   S    
C138  O7    A    
C97   H142  S    
C44   H18   S    
C71   H77   S    
O32   Zn11  S    
C123  C141  A    
C90   O43   A    
C105  C164  S    
O33   Zn1   S    
C10   H177  S    
C174  C177  S    
C13   O16   A    
C84   H110  S    
C104  H158  S    
C85   H111  S    
C14   H183  S    
O12   Zn11  S    
C151  O71   S    
C100  H149  S    
C116  O3    A    
C101  O40   A    
C22   H204  S    
C102  H151  S    
C175  O51   S    
C102  O83   S    
C122  C189  S    
C92   H129  S    
C16   H189  S    
C117  C173  S    
C138  O5    A    
C158  O79   S    
C50   H30   S    
O56   Zn4   S    
C37   H238  S    
C13   C133  S    
C76   H92   S    
C126  C185  S    
C5    H163  S    
C77   H93   S    
C4    C5    S    
C67   H71   S    
C7    H169  S    
C104  H155  S    
C70   H76   S    
C6    C7    S    
C40   H7    S    
O12   Zn4   S    
C31   H224  S    
C34   H234  S    
C185  H24   S    
C98   O82   S    
C31   H226  S    
C179  H208  S    
C28   H218  S    
C80   H98   S    
C30   C31   S    
C105  O78   A    
C94   H132  S    
C8    H172  S    
C88   H121  S    
C69   C70   S    
C81   H100  S    
C57   O20   A    
C83   H106  S    
C62   H58   S    
O23   Zn14  S    
C20   C21   S    
C98   C99   S    
C123  C188  S    
C22   C23   S    
C29   H221  S    
O25   Zn7   S    
C41   H10   S    
C19   H196  S    
C143  C161  A    
C182  O33   A    
C135  C153  A    
C87   H117  S    
C190  C191  S    
C157  O77   S    
C22   O57   S    
C69   O72   S    
C42   H12   S    
O34   Zn13  S    
O10   Zn13  S    
C7    C8    S    
C110  O30   A    
C6    H167  S    
O48   Zn13  S    
C192  H124  S    
C49   H27   S    
C29   H220  S    
C149  C169  S    
C21   H202  S    
C36   C37   S    
C28   H216  S    
C14   H184  S    
C127  C166  S    
C85   C86   S    
C91   H126  S    
O2    Zn8   S    
C47   H22   S    
C47   H21   S    
O43   Zn13  S    
C183  H2    S    
C137  C155  A    
C138  C168  S    
C44   H17   S    
C95   O81   S    
C36   H235  S    
O9    Zn12  S    
C186  H35   S    
C92   H128  S    
C46   O39   A    
C187  O63   S    
C89   C91   S    
C66   H69   S    
C9    C10   S    
C85   O77   S    
C53   H38   S    
C119  C175  S    
C24   C136  S    
C66   C67   S    
C48   H23   S    
C118  C176  S    
C60   H53   S    
O7    Zn10  S    
C43   H14   S    
C166  C168  T    
C38   H239  S    
C24   O17   A    
C77   H95   S    
C78   H96   S    
C111  C129  A    
C33   C34   S    
O36   Zn1   S    
C152  O72   S    
O15   Zn2   S    
C12   O53   S    
C183  C186  S    
C39   C40   S    
C16   C17   S    
C25   H209  S    
C145  C163  A    
C61   H54   S    
C19   O55   S    
C68   C132  S    
C110  C141  S    
C147  C151  A    
C81   H102  S    
O11   Zn14  S    
C29   C30   S    
C190  O49   S    
C101  C142  S    
C83   C84   S    
O37   Zn11  S    
C17   C18   S    
C46   O19   A    
O39   Zn9   S    
C89   H123  S    
C93   H131  S    
C15   H187  S    
C127  O4    A    
O3    Zn5   S    
C52   H34   S    
C82   C83   S    
C177  O53   S    
C90   O24   A    
C55   H42   S    
C3    C4    S    
C187  H46   S    
C52   C53   S    
C171  O13   A    
C1    O45   A    
C74   H86   S    
C1    O67   A    
C130  C147  A    
C186  O62   S    
C100  H148  S    
C95   H136  S    
C46   C130  S    
C108  C139  S    
C13   O31   A    
C23   H206  S    
C175  C180  S    
C11   H179  S    
C75   H88   S    
C111  C117  A    
C121  C139  A    
C65   O71   S    
C57   O36   A    
C122  C140  A    
O47   Zn14  S    
C40   H6    S    
C173  C178  S    
C125  C143  A    
O24   Zn6   S    
C56   C58   S    
C107  O47   A    
O13   Zn15  S    
C102  C103  S    
O21   Zn2   S    
C10   C11   S    
C63   C64   S    
C191  H101  S    
C49   C50   S    
C155  O75   S    
C14   C15   S    
C56   H44   S    
C79   O42   A    
C173  O49   S    
C112  C130  A    
C153  O73   S    
O67   Zn16  S    
C58   H47   S    
C85   H114  S    
C101  O25   A    
C83   H107  S    
C55   C56   S    
C188  O64   S    
C106  O26   A    
C73   C74   S    
C142  C159  A    
O1    Zn10  S    
C25   H211  S    
C48   H26   S    
C155  C161  A    
C61   H56   S    
C26   H212  S    
C68   O37   A    
C98   H144  S    
C26   C27   S    
C45   H19   S    
C106  C145  S    
C59   H50   S    
C72   H82   S    
C7    H168  S    
C189  O65   S    
C149  O6    A    
C18   H194  S    
C73   H84   S    
C36   O61   S    
C30   H222  S    
O1    Zn1   S    
C15   H185  S    
C97   H141  S    
C121  C186  S    
C113  C119  A    
C127  O2    A    
C91   H127  S    
C52   H36   S    
C26   H213  S    
C29   O59   S    
C71   H80   S    
C150  C153  A    
C70   C71   S    
C113  C131  A    
C77   H94   S    
C64   H63   S    
C39   H5    S    
C108  O28   A    
C109  O44   A    
O14   Zn16  S    
C100  H150  S    
C148  C154  A    
C117  C134  A    
C22   H205  S    
C102  H152  S    
C148  O69   S    
C9    O52   S    
O28   Zn8   S    
C20   H199  S    
C35   O38   A    
C60   H52   S    
C125  C181  S    
C45   H20   S    
C56   H45   S    
C5    H162  S    
C167  C169  T    
C192  H135  S    
C69   H74   S    
C86   C87   S    
C104  H156  S    
C3    H159  S    
C182  O14   A    
C53   C54   S    
C37   H237  S    
C39   O62   S    
C191  C192  S    
C60   C61   S    
C31   H225  S    
C62   C63   S    
C95   H137  S    
C136  C154  A    
C21   H201  S    
C51   H32   S    
C94   H133  S    
C134  C152  A    
C150  O70   S    
C50   C51   S    
O84   Zn7   S    
C2    O35   A    
C17   H191  S    
C18   H193  S    
C86   H115  S    
C173  H1    S    
C108  O48   A    
C12   H182  S    
C42   C43   S    
C103  H154  S    
C41   H9    S    
C32   H227  S    
C35   C131  S    
C181  H230  S    
C78   H97   S    
O41   Zn15  S    
C35   O18   A    
C4    H160  S    
O8    Zn11  S    
C181  O58   S    
O20   Zn3   S    
C55   H43   S    
O45   Zn3   S    
C116  O84   A    
C149  O8    A    
C75   O74   S    
C115  C133  A    
C39   H4    S    
C79   C144  S    
C32   C33   S    
C26   O58   S    
C65   H66   S    
O1    Zn3   S    
O16   Zn3   S    
C99   H147  S    
C135  C182  S    
C91   H125  S    
C23   H207  S    
C159  O80   S    
C71   H78   S    
O30   Zn6   S    
C92   C93   S    
C78   C80   S    
C122  C128  A    
O44   Zn12  S    
C5    H165  S    
C36   H236  S    
C55   O68   S    
C84   H109  S    
C141  C158  A    
C113  C180  S    
C96   H139  S    
C114  C179  S    
C103  C104  S    
O35   Zn9   S    
O40   Zn14  S    
C120  C137  A    
O26   Zn8   S    
C118  C135  A    
O1    Zn16  S    
C53   H37   S    
C112  C177  S    
C180  H219  S    
C171  C172  S    
C50   H29   S    
C93   C94   S    
C76   H91   S    
C38   H240  S    
C95   C96   S    
C128  C184  S    
C190  H79   S    
C75   C76   S    
O27   Zn5   S    
C6    O51   S    
C67   H72   S    
C82   H105  S    
C70   H75   S    
C3    H157  S    
C33   H231  S    
C109  O29   A    
C3    O50   S    
C34   H233  S    
C139  C156  A    
C57   C129  S    
C73   H83   S    
C27   H214  S    
C28   H217  S    
O31   Zn10  S    
C164  C170  T    
C21   H203  S    
C179  O55   S    
C8    H171  S    
C44   H16   S    
C43   H15   S    
C59   H51   S    
C32   O60   S    
C126  C144  A    
O46   Zn15  S    
C121  C124  A    
C33   H229  S    
C51   H33   S    
C111  C178  S    
C49   O65   S    
C116  C167  S    
C89   H122  S    
C157  C163  A    
C93   H130  S    
C171  O10   A    
C88   C89   S    
C87   H118  S    
C9    H174  S    
C124  C142  A    
C42   H11   S    
C188  H57   S    
C58   H48   S    
C64   H62   S    
C6    H166  S    
C74   H87   S    
C49   H28   S    
C12   H181  S    
C47   C48   S    
C106  O41   A    
C76   C77   S    
C162  O82   S    
C124  C183  S    
C66   H67   S    
C99   H145  S    
C185  C188  S    
O42   Zn12  S    
C190  H90   S    
C183  O59   S    
C19   H198  S    
C58   H49   S    
C54   H40   S    
C140  C157  A    
C99   C100  S    
C1    C165  S    
C96   C97   S    
O34   Zn15  S    
C129  C146  A    
C131  C148  A    
C114  C118  A    
C146  C152  A    
C82   O76   S    
C40   C41   S    
C12   C14   S    
C178  O54   S    
C174  H112  S    
C54   H39   S    
C67   H70   S    
C62   H59   S    
O34   Zn8   S    
O23   Zn5   S    
C144  C162  A    
C114  C132  A    
C156  C159  A    
C185  O61   S    
C175  H164  S    
C80   C81   S    
O4    Zn6   S    
C80   H99   S    
C10   H176  S    
C25   H210  S    
C72   O73   S    
C61   H55   S    
C75   H89   S    
O18   Zn16  S    
C191  H113  S    
C109  C137  S    
O19   Zn4   S    
C81   H103  S    
C79   O22   A    
C82   H104  S    
C4    H161  S    
C119  C136  A    
C78   O75   S    
C192  H146  S    
C18   H195  S    
C63   H61   S    
C160  O9    A    
C165  C172  T    
C34   H232  S    
C88   O79   S    
C23   C25   S    
C9    H173  S    
C30   H223  S    
C176  O52   S    
C45   O64   S    
C62   O70   S    
C15   H188  S    
C158  C162  A    
C97   H140  S    
C105  O56   A    
O6    Zn9   S    
O5    Zn1   S    
C2    O15   A    
O78   Zn2   S    
C65   C66   S    
C27   C28   S    
C160  C170  S    
C184  C189  S    
C154  O74   S    
C54   H41   S    
C64   H64   S    
C24   O32   A    
C112  C115  A    
O23   Zn12  S    
C84   H108  S    
