data_mof_unit_62089.cif
_audit_creation_date              2013-03-05T16:17:22-0500
_audit_creation_method            fapswitch 2.2
_symmetry_space_group_name_H-M    P1
_symmetry_Int_Tables_number       1
_space_group_crystal_system       triclinic
_cell_length_a                    39.071961
_cell_length_b                    39.071822
_cell_length_c                    30.302663
_cell_angle_alpha                 90.000204
_cell_angle_beta                  90.000088
_cell_angle_gamma                 89.999877
_cell_volume                      46260.4303423

loop_
_atom_site_label
_atom_site_type_symbol
_atom_site_description
_atom_site_fract_x
_atom_site_fract_y
_atom_site_fract_z
_atom_type_partial_charge
O1    O     O_R   0.028750 0.449060 0.500000 -0.582904
O2    O     O_R   0.449060 0.971250 0.500000 -0.583133
O3    O     O_R   0.971250 0.550940 0.500000 -0.582917
O4    O     O_R   0.550940 0.028750 0.500000 -0.583141
O5    O     O_R   0.028750 0.550940 0.500000 -0.582889
O6    O     O_R   0.449060 0.028750 0.500000 -0.583136
O7    O     O_R   0.971250 0.449060 0.500000 -0.582906
O8    O     O_R   0.550940 0.971250 0.500000 -0.583139
O9    O     O_R   0.528750 0.949060 0.000000 -0.582908
O10   O     O_R   0.949060 0.471250 0.000000 -0.583133
O11   O     O_R   0.471250 0.050940 0.000000 -0.582908
O12   O     O_R   0.050940 0.528750 0.000000 -0.583132
O13   O     O_R   0.528750 0.050940 0.000000 -0.582908
O14   O     O_R   0.949060 0.528750 0.000000 -0.583131
O15   O     O_R   0.471250 0.949060 0.000000 -0.582909
O16   O     O_R   0.050940 0.471250 0.000000 -0.583133
C1    C     C_R   0.000000 0.432994 0.500000 0.992066
C2    C     C_R   0.432993 0.000000 0.500000 0.991995
C3    C     C_R   1.000000 0.567006 0.500000 0.992066
C4    C     C_R   0.567007 0.000000 0.500001 0.991996
C5    C     C_R   0.500000 0.932994 0.000000 0.992066
C6    C     C_R   0.932993 0.500000 0.000000 0.991996
C7    C     C_R   0.500000 0.067006 0.000000 0.992066
C8    C     C_R   0.067007 0.500000 1.000000 0.991996
O17   O     O_R   0.028750 0.499990 0.566060 -0.576616
O18   O     O_R   0.499990 0.971250 0.566060 -0.576686
O19   O     O_R   0.971250 0.500010 0.566060 -0.576617
O20   O     O_R   0.500010 0.028750 0.566060 -0.576688
O21   O     O_R   0.028750 0.500010 0.433940 -0.576612
O22   O     O_R   0.499990 0.028750 0.433940 -0.576684
O23   O     O_R   0.971250 0.499990 0.433940 -0.576617
O24   O     O_R   0.500010 0.971250 0.433940 -0.576693
O25   O     O_R   0.528750 0.999990 0.066060 -0.576617
O26   O     O_R   0.999990 0.471250 0.066060 -0.576686
O27   O     O_R   0.471250 0.000010 0.066060 -0.576616
O28   O     O_R   0.000010 0.528750 0.066060 -0.576686
O29   O     O_R   0.528750 0.000010 0.933940 -0.576616
O30   O     O_R   0.999990 0.528750 0.933940 -0.576685
O31   O     O_R   0.471250 0.999990 0.933940 -0.576618
O32   O     O_R   0.000010 0.471250 0.933940 -0.576687
C9    C     C_R   1.000000 0.500000 0.586792 1.011522
C10   C     C_R   0.500000 0.000000 0.586797 1.011522
C11   C     C_R   1.000000 0.500000 0.413208 1.011522
C12   C     C_R   0.500000 1.000000 0.413203 1.011510
C13   C     C_R   0.500000 1.000000 0.086792 1.011525
C14   C     C_R   0.000000 0.500000 0.086797 1.011514
C15   C     C_R   0.500000 0.000000 0.913208 1.011524
C16   C     C_R   0.000000 0.500000 0.913203 1.011516
Zn1   Zn    Zn3+2 0.038390 0.500000 0.500000 1.225294
Zn2   Zn    Zn3+2 0.500000 0.961610 0.500000 1.225089
Zn3   Zn    Zn3+2 0.961610 0.500000 0.500000 1.225284
Zn4   Zn    Zn3+2 0.500000 0.038390 0.500000 1.225089
Zn5   Zn    Zn3+2 0.538390 0.000000 0.000000 1.225283
Zn6   Zn    Zn3+2 0.000000 0.461610 0.000000 1.225095
Zn7   Zn    Zn3+2 0.461610 0.000000 0.000000 1.225283
Zn8   Zn    Zn3+2 0.000000 0.538390 0.000000 1.225095
O33   O     O_R   0.949030 0.999970 0.537240 -0.564836
O34   O     O_R   0.999970 0.050970 0.537240 -0.564708
O35   O     O_R   0.050970 0.000030 0.537240 -0.564668
O36   O     O_R   0.000030 0.949030 0.537240 -0.564773
O37   O     O_R   0.949030 0.000030 0.462760 -0.564670
O38   O     O_R   0.999970 0.949030 0.462760 -0.564546
O39   O     O_R   0.050970 0.999970 0.462760 -0.564674
O40   O     O_R   0.000030 0.050970 0.462760 -0.564732
O41   O     O_R   0.449030 0.499970 0.037240 -0.564670
O42   O     O_R   0.499970 0.550970 0.037240 -0.564722
O43   O     O_R   0.550970 0.500030 0.037240 -0.564677
O44   O     O_R   0.500030 0.449030 0.037240 -0.564732
O45   O     O_R   0.449030 0.500030 0.962760 -0.564675
O46   O     O_R   0.499970 0.449030 0.962760 -0.564730
O47   O     O_R   0.550970 0.499970 0.962760 -0.564665
O48   O     O_R   0.500030 0.550970 0.962760 -0.564723
C17   C     C_R   0.932921 0.999998 0.500001 0.998482
C18   C     C_R   1.000000 0.067078 0.500000 0.998358
C19   C     C_R   0.067079 0.000001 0.500000 0.998413
C20   C     C_R   0.000002 0.932922 0.500001 0.998344
C21   C     C_R   0.432921 0.500000 1.000000 0.998402
C22   C     C_R   0.500000 0.567078 0.000000 0.998377
C23   C     C_R   0.567079 0.500000 0.000000 0.998408
C24   C     C_R   0.500000 0.432922 1.000000 0.998374
C25   C     C_R   0.983077 0.473477 0.841924 0.251111
C26   C     C_R   0.473558 0.017051 0.841942 0.250933
C27   C     C_R   0.016924 0.526523 0.841925 0.251114
C28   C     C_R   0.526442 0.982950 0.841942 0.250933
C29   C     C_R   0.983076 0.526523 0.158075 0.251112
C30   C     C_R   0.473558 0.982950 0.158058 0.250934
C31   C     C_R   0.016924 0.473477 0.158075 0.251112
C32   C     C_R   0.526442 0.017050 0.158058 0.250932
C33   C     C_R   0.483077 0.973477 0.341924 0.251110
C34   C     C_R   0.973558 0.517051 0.341942 0.250931
C35   C     C_R   0.516922 0.026523 0.341924 0.251113
C36   C     C_R   0.026442 0.482949 0.341942 0.250934
C37   C     C_R   0.483077 0.026524 0.658076 0.251113
C38   C     C_R   0.973558 0.482949 0.658058 0.250932
C39   C     C_R   0.516921 0.973476 0.658076 0.251120
C40   C     C_R   0.026441 0.517052 0.658058 0.250930
C41   C     C_R   0.000000 0.500000 0.865147 -0.256628
C42   C     C_R   0.500000 0.000000 0.865159 -0.256673
C43   C     C_R   0.000000 0.500000 0.134853 -0.256630
C44   C     C_R   0.500000 1.000000 0.134841 -0.256670
C45   C     C_R   0.500000 0.000000 0.365147 -0.256639
C46   C     C_R   1.000000 0.500000 0.365159 -0.256669
C47   C     C_R   0.499999 1.000000 0.634853 -0.256624
C48   C     C_R   1.000000 0.500000 0.634841 -0.256670
C49   C     C_R   0.019852 0.524235 0.796080 0.002131
C50   C     C_R   0.524137 0.980030 0.796097 0.002177
C51   C     C_R   0.980149 0.475765 0.796079 0.002130
C52   C     C_R   0.475863 0.019971 0.796097 0.002178
C53   C     C_R   0.019852 0.475766 0.203920 0.002130
C54   C     C_R   0.524137 0.019970 0.203903 0.002178
C55   C     C_R   0.980148 0.524235 0.203921 0.002130
C56   C     C_R   0.475863 0.980029 0.203903 0.002177
C57   C     C_R   0.519851 0.024235 0.296079 0.002129
C58   C     C_R   0.024137 0.480030 0.296097 0.002177
C59   C     C_R   0.480149 0.975765 0.296079 0.002131
C60   C     C_R   0.975863 0.519971 0.296097 0.002179
C61   C     C_R   0.519850 0.975764 0.703921 0.002130
C62   C     C_R   0.024137 0.519971 0.703903 0.002177
C63   C     C_R   0.480149 0.024236 0.703921 0.002130
C64   C     C_R   0.975863 0.480029 0.703903 0.002178
C65   C     C_R   0.000000 0.500000 0.773100 0.033744
C66   C     C_R   0.500000 0.000000 0.773117 0.033764
C67   C     C_R   0.000000 0.500000 0.226900 0.033745
C68   C     C_R   0.500000 1.000000 0.226883 0.033764
C69   C     C_R   0.500000 1.000000 0.273100 0.033744
C70   C     C_R   0.000000 0.500000 0.273117 0.033765
C71   C     C_R   0.500000 0.000000 0.726900 0.033743
C72   C     C_R   0.000000 0.500000 0.726883 0.033765
C73   C     C_R   0.042364 0.545583 0.772720 -0.074893
C74   C     C_R   0.545366 0.957404 0.772738 -0.074834
C75   C     C_R   0.957637 0.454417 0.772719 -0.074893
C76   C     C_R   0.454634 0.042596 0.772738 -0.074833
C77   C     C_R   0.042365 0.454418 0.227280 -0.074893
C78   C     C_R   0.545367 0.042595 0.227262 -0.074834
C79   C     C_R   0.957635 0.545582 0.227281 -0.074891
C80   C     C_R   0.454633 0.957405 0.227262 -0.074834
C81   C     C_R   0.542364 0.045582 0.272720 -0.074891
C82   C     C_R   0.045367 0.457405 0.272738 -0.074838
C83   C     C_R   0.457636 0.954417 0.272719 -0.074892
C84   C     C_R   0.954633 0.542595 0.272738 -0.074834
C85   C     C_R   0.542362 0.954416 0.727281 -0.074888
C86   C     C_R   0.045366 0.542596 0.727262 -0.074840
C87   C     C_R   0.457636 0.045584 0.727281 -0.074890
C88   C     C_R   0.954634 0.457404 0.727262 -0.074835
C89   C     C_R   0.969987 0.122801 0.487234 0.268896
C90   C     C_R   0.122807 0.029988 0.487118 0.268955
C91   C     C_R   0.030019 0.877189 0.487244 0.268869
C92   C     C_R   0.877186 0.970001 0.487091 0.268478
C93   C     C_R   0.969996 0.877210 0.512752 0.269421
C94   C     C_R   0.122808 0.970021 0.512884 0.269026
C95   C     C_R   0.030009 0.122802 0.512771 0.268924
C96   C     C_R   0.877195 0.029964 0.512907 0.268906
C97   C     C_R   0.469991 0.622802 0.987223 0.268908
C98   C     C_R   0.622808 0.529986 0.987122 0.268957
C99   C     C_R   0.530010 0.377198 0.987222 0.268882
C100  C     C_R   0.377192 0.470017 0.987121 0.268969
C101  C     C_R   0.469993 0.377198 0.012778 0.268885
C102  C     C_R   0.622807 0.470016 0.012878 0.268985
C103  C     C_R   0.530008 0.622802 0.012778 0.268909
C104  C     C_R   0.377192 0.529986 0.012879 0.268960
C105  C     C_R   0.969953 0.158421 0.491219 -0.091495
C106  C     C_R   0.158429 0.030025 0.491089 -0.091457
C107  C     C_R   0.030036 0.841568 0.491232 -0.091638
C108  C     C_R   0.841563 0.969974 0.491090 -0.091536
C109  C     C_R   0.969944 0.841592 0.508787 -0.091393
C110  C     C_R   0.158430 0.969985 0.508920 -0.091450
C111  C     C_R   0.030041 0.158422 0.508785 -0.091516
C112  C     C_R   0.841574 0.030007 0.508943 -0.091362
C113  C     C_R   0.469957 0.658422 0.991210 -0.091507
C114  C     C_R   0.658429 0.530021 0.991091 -0.091456
C115  C     C_R   0.530044 0.341578 0.991211 -0.091508
C116  C     C_R   0.341571 0.469981 0.991088 -0.091447
C117  C     C_R   0.469959 0.341578 0.008791 -0.091505
C118  C     C_R   0.658429 0.469979 0.008911 -0.091445
C119  C     C_R   0.530042 0.658422 0.008791 -0.091508
C120  C     C_R   0.341571 0.530022 0.008910 -0.091451
C121  C     C_R   0.999997 0.176376 0.500001 0.066250
C122  C     C_R   0.176381 0.000005 0.500005 0.066258
C123  C     C_R   0.999982 0.823624 0.500011 0.066232
C124  C     C_R   0.823618 0.999993 0.500022 0.066287
C125  C     C_R   0.500000 0.676376 0.000000 0.066246
C126  C     C_R   0.676381 0.500000 0.000001 0.066262
C127  C     C_R   0.500002 0.323624 0.000002 0.066248
C128  C     C_R   0.323619 0.500002 0.999999 0.066262
C129  C     C_R   0.999999 0.104490 0.500001 -0.256455
C130  C     C_R   0.104493 0.000004 0.500001 -0.256415
C131  C     C_R   0.000013 0.895510 0.500006 -0.256385
C132  C     C_R   0.895507 0.999981 0.500005 -0.256520
C133  C     C_R   0.500000 0.604490 0.000000 -0.256452
C134  C     C_R   0.604493 0.500001 0.000000 -0.256424
C135  C     C_R   0.500001 0.395510 1.000000 -0.256460
C136  C     C_R   0.395507 0.500001 1.000000 -0.256424
C137  C     C_R   0.015806 0.232323 0.534913 0.196724
C138  C     C_R   0.232325 0.984322 0.535013 0.196772
C139  C     C_R   0.984150 0.767675 0.534904 0.196767
C140  C     C_R   0.767674 0.015680 0.535028 0.196772
C141  C     C_R   0.015776 0.767679 0.465087 0.196710
C142  C     C_R   0.232325 0.015688 0.465000 0.196770
C143  C     C_R   0.984185 0.232324 0.465092 0.196730
C144  C     C_R   0.767674 0.984325 0.465006 0.196735
C145  C     C_R   0.515806 0.732324 0.034914 0.196725
C146  C     C_R   0.732325 0.484313 0.035005 0.196772
C147  C     C_R   0.484195 0.267676 0.034915 0.196724
C148  C     C_R   0.267675 0.515688 0.035002 0.196770
C149  C     C_R   0.515809 0.267676 0.965089 0.196724
C150  C     C_R   0.732325 0.515686 0.964997 0.196769
C151  C     C_R   0.484194 0.732324 0.965086 0.196725
C152  C     C_R   0.267675 0.484317 0.964993 0.196770
C153  C     C_R   0.017864 0.268113 0.533222 0.196590
C154  C     C_R   0.268116 0.982268 0.533344 0.196631
C155  C     C_R   0.982092 0.731885 0.533209 0.196604
C156  C     C_R   0.731883 0.017737 0.533357 0.196633
C157  C     C_R   0.017834 0.731889 0.466774 0.196583
C158  C     C_R   0.268116 0.017740 0.466668 0.196628
C159  C     C_R   0.982127 0.268114 0.466782 0.196590
C160  C     C_R   0.731883 0.982274 0.466673 0.196613
C161  C     C_R   0.517864 0.768114 0.033224 0.196590
C162  C     C_R   0.768116 0.482260 0.033335 0.196630
C163  C     C_R   0.482137 0.231887 0.033225 0.196590
C164  C     C_R   0.231884 0.517741 0.033333 0.196630
C165  C     C_R   0.517867 0.231886 0.966780 0.196589
C166  C     C_R   0.768116 0.517739 0.966665 0.196629
C167  C     C_R   0.482135 0.768114 0.966777 0.196589
C168  C     C_R   0.231884 0.482263 0.966662 0.196629
C169  C     C_R   0.999996 0.286211 0.500002 -0.180549
C170  C     C_R   0.286212 0.000004 0.500005 -0.180680
C171  C     C_R   0.999965 0.713789 0.499991 -0.180556
C172  C     C_R   0.713787 0.000007 0.500014 -0.180668
C173  C     C_R   0.500000 0.786211 0.000000 -0.180547
C174  C     C_R   0.786212 0.499999 0.000000 -0.180680
C175  C     C_R   0.500001 0.213788 0.000002 -0.180545
C176  C     C_R   0.213788 0.500002 0.999998 -0.180680
C177  C     C_R   0.999995 0.214224 0.500002 -0.180047
C178  C     C_R   0.214227 0.000005 0.500006 -0.180161
C179  C     C_R   0.999967 0.785777 0.500000 -0.180005
C180  C     C_R   0.785772 1.000000 0.500020 -0.180215
C181  C     C_R   0.500000 0.714224 0.000000 -0.180045
C182  C     C_R   0.714227 0.500000 0.000001 -0.180166
C183  C     C_R   0.500002 0.285776 0.000002 -0.180049
C184  C     C_R   0.285773 0.500002 0.999998 -0.180168
C185  C     C_R   0.006506 0.342060 0.461025 -0.099262
C186  C     C_R   0.342056 0.993300 0.461082 -0.099243
C187  C     C_R   0.993474 0.657937 0.461019 -0.099246
C188  C     C_R   0.657943 0.006713 0.461090 -0.099242
C189  C     C_R   0.006485 0.657943 0.538971 -0.099275
C190  C     C_R   0.342059 0.006702 0.538926 -0.099240
C191  C     C_R   0.993490 0.342061 0.538977 -0.099262
C192  C     C_R   0.657940 0.993301 0.538930 -0.099247
C193  C     C_R   0.506512 0.842060 0.961026 -0.099263
C194  C     C_R   0.842057 0.493302 0.961077 -0.099241
C195  C     C_R   0.493490 0.157940 0.961027 -0.099265
C196  C     C_R   0.157942 0.506699 0.961076 -0.099240
C197  C     C_R   0.506511 0.157939 0.038976 -0.099263
C198  C     C_R   0.842058 0.506697 0.038923 -0.099241
C199  C     C_R   0.493488 0.842061 0.038975 -0.099263
C200  C     C_R   0.157943 0.493302 0.038921 -0.099243
C201  C     C_R   0.003787 0.377645 0.459830 0.266076
C202  C     C_R   0.377642 0.996003 0.459867 0.265943
C203  C     C_R   0.996207 0.622352 0.459825 0.266082
C204  C     C_R   0.622358 0.004005 0.459872 0.265941
C205  C     C_R   0.003777 0.622357 0.540168 0.266074
C206  C     C_R   0.377644 0.003998 0.540138 0.265946
C207  C     C_R   0.996212 0.377646 0.540172 0.266080
C208  C     C_R   0.622354 0.996001 0.540141 0.265944
C209  C     C_R   0.503791 0.877645 0.959830 0.266076
C210  C     C_R   0.877643 0.496005 0.959864 0.265945
C211  C     C_R   0.496210 0.122355 0.959831 0.266079
C212  C     C_R   0.122356 0.503995 0.959863 0.265946
C213  C     C_R   0.503790 0.122354 0.040171 0.266078
C214  C     C_R   0.877643 0.503994 0.040136 0.265946
C215  C     C_R   0.496209 0.877646 0.040170 0.266078
C216  C     C_R   0.122357 0.496005 0.040135 0.265945
C217  C     C_R   1.000000 0.395710 0.500001 -0.260132
C218  C     C_R   0.395708 0.000000 0.500002 -0.260155
C219  C     C_R   0.999997 0.604290 0.499997 -0.260132
C220  C     C_R   0.604292 0.000001 0.500004 -0.260156
C221  C     C_R   0.500000 0.895710 0.000000 -0.260133
C222  C     C_R   0.895708 0.500000 0.000000 -0.260154
C223  C     C_R   0.500000 0.104290 0.000001 -0.260133
C224  C     C_R   0.104292 0.500000 0.999999 -0.260154
C225  C     C_R   0.999997 0.324044 0.500001 0.074087
C226  C     C_R   0.324043 0.000002 0.500004 0.074188
C227  C     C_R   0.999973 0.675956 0.499994 0.074089
C228  C     C_R   0.675956 0.000008 0.500012 0.074186
C229  C     C_R   0.500000 0.824044 0.000000 0.074086
C230  C     C_R   0.824043 0.499999 0.000000 0.074187
C231  C     C_R   0.500001 0.175955 0.000002 0.074086
C232  C     C_R   0.175957 0.500001 0.999998 0.074188
Zn9   Zn    Zn3+2 0.000000 0.000000 0.549810 1.237257
Zn10  Zn    Zn3+2 0.000000 0.000000 0.450190 1.237072
Zn11  Zn    Zn3+2 0.500000 0.500000 0.049810 1.237170
Zn12  Zn    Zn3+2 0.500000 0.500000 0.950190 1.237166
N1    N     N_R   0.969800 0.443805 0.864185 0.223169
O49   O     O_R   0.981646 0.413619 0.854417 -0.303004
O50   O     O_R   0.944253 0.446391 0.891413 -0.301329
N2    N     N_R   0.443949 0.030466 0.864207 0.223231
O51   O     O_R   0.413699 0.018823 0.854365 -0.302971
O52   O     O_R   0.446672 0.055911 0.891574 -0.302100
N3    N     N_R   0.030200 0.556195 0.864185 0.223169
O53   O     O_R   0.018353 0.586380 0.854417 -0.303006
O54   O     O_R   0.055747 0.553609 0.891414 -0.301330
N4    N     N_R   0.556051 0.969535 0.864206 0.223232
O55   O     O_R   0.586301 0.981178 0.854365 -0.302970
O56   O     O_R   0.553329 0.944090 0.891572 -0.302096
N5    N     N_R   0.969799 0.556195 0.135815 0.223169
O57   O     O_R   0.981645 0.586380 0.145584 -0.303003
O58   O     O_R   0.944253 0.553608 0.108585 -0.301329
N6    N     N_R   0.443948 0.969535 0.135793 0.223232
O59   O     O_R   0.413698 0.981180 0.145634 -0.302970
O60   O     O_R   0.446670 0.944090 0.108427 -0.302097
N7    N     N_R   0.030201 0.443805 0.135815 0.223169
O61   O     O_R   0.018355 0.413620 0.145583 -0.303005
O62   O     O_R   0.055747 0.446392 0.108585 -0.301328
N8    N     N_R   0.556052 0.030465 0.135793 0.223232
O63   O     O_R   0.586301 0.018821 0.145635 -0.302970
O64   O     O_R   0.553329 0.055910 0.108428 -0.302098
N9    N     N_R   0.469802 0.943804 0.364184 0.223170
O65   O     O_R   0.481648 0.913619 0.354415 -0.303007
O66   O     O_R   0.444254 0.946389 0.391414 -0.301317
N10   N     N_R   0.943949 0.530467 0.364207 0.223231
O67   O     O_R   0.913699 0.518824 0.354367 -0.302971
O68   O     O_R   0.946674 0.555912 0.391574 -0.302121
N11   N     N_R   0.530195 0.056197 0.364184 0.223171
O69   O     O_R   0.518347 0.086381 0.354414 -0.303002
O70   O     O_R   0.555743 0.053614 0.391413 -0.301308
N12   N     N_R   0.056050 0.469533 0.364207 0.223230
O71   O     O_R   0.086301 0.481176 0.354368 -0.302970
O72   O     O_R   0.053326 0.444087 0.391572 -0.302104
N13   N     N_R   0.469803 0.056197 0.635816 0.223171
O73   O     O_R   0.481651 0.086382 0.645585 -0.303005
O74   O     O_R   0.444256 0.053613 0.608586 -0.301322
N14   N     N_R   0.943950 0.469533 0.635793 0.223231
O75   O     O_R   0.913699 0.481176 0.645633 -0.302972
O76   O     O_R   0.946674 0.444088 0.608427 -0.302107
N15   N     N_R   0.530193 0.943801 0.635816 0.223172
O77   O     O_R   0.518343 0.913618 0.645587 -0.303002
O78   O     O_R   0.555741 0.946383 0.608588 -0.301310
N16   N     N_R   0.056048 0.530471 0.635792 0.223228
O79   O     O_R   0.086300 0.518829 0.645630 -0.302973
O80   O     O_R   0.053322 0.555916 0.608427 -0.302101
H1    H     H_    0.058666 0.563810 0.789529 0.213279
H2    H     H_    0.563506 0.941006 0.789547 0.213276
H3    H     H_    0.941334 0.436190 0.789528 0.213279
H4    H     H_    0.436494 0.058995 0.789548 0.213276
H5    H     H_    0.058667 0.436191 0.210472 0.213279
H6    H     H_    0.563507 0.058993 0.210453 0.213276
H7    H     H_    0.941333 0.563809 0.210472 0.213279
H8    H     H_    0.436492 0.941007 0.210452 0.213276
H9    H     H_    0.558665 0.063810 0.289528 0.213280
H10   H     H_    0.063508 0.441007 0.289547 0.213276
H11   H     H_    0.441334 0.936190 0.289528 0.213280
H12   H     H_    0.936492 0.558993 0.289547 0.213276
H13   H     H_    0.558664 0.936188 0.710472 0.213279
H14   H     H_    0.063506 0.558994 0.710453 0.213276
H15   H     H_    0.441335 0.063812 0.710472 0.213279
H16   H     H_    0.936494 0.441006 0.710452 0.213276
N17   N     N_R   0.939364 0.106522 0.470365 0.242703
O81   O     O_R   0.940547 0.077036 0.450622 -0.349098
O82   O     O_R   0.911050 0.123944 0.467413 -0.264698
N18   N     N_R   0.106536 0.060587 0.470156 0.242796
O83   O     O_R   0.077023 0.059391 0.450485 -0.348903
O84   O     O_R   0.123975 0.088882 0.467074 -0.264727
N19   N     N_R   0.060645 0.893455 0.470362 0.242849
O85   O     O_R   0.059485 0.922985 0.450729 -0.349340
O86   O     O_R   0.088933 0.876001 0.467309 -0.264590
N20   N     N_R   0.893431 0.939404 0.470053 0.243273
O87   O     O_R   0.923184 0.940490 0.450985 -0.350252
O88   O     O_R   0.875851 0.911236 0.466389 -0.264198
N21   N     N_R   0.939379 0.893517 0.529562 0.242246
O89   O     O_R   0.940666 0.922767 0.549877 -0.347737
O90   O     O_R   0.910945 0.876242 0.531962 -0.265258
N22   N     N_R   0.106535 0.939422 0.529837 0.242740
O91   O     O_R   0.077056 0.940630 0.549593 -0.348656
O92   O     O_R   0.123955 0.911110 0.532837 -0.264794
N23   N     N_R   0.060631 0.106527 0.529648 0.242730
O93   O     O_R   0.059450 0.077035 0.549376 -0.349075
O94   O     O_R   0.088941 0.123953 0.532618 -0.264700
N24   N     N_R   0.893468 0.060564 0.529868 0.242743
O95   O     O_R   0.922977 0.059369 0.549550 -0.348817
O96   O     O_R   0.876031 0.088861 0.532940 -0.264738
N25   N     N_R   0.439370 0.606526 0.970341 0.242736
O97   O     O_R   0.440552 0.577031 0.950621 -0.349080
O98   O     O_R   0.411061 0.623954 0.967361 -0.264693
N26   N     N_R   0.606537 0.560586 0.970166 0.242784
O99   O     O_R   0.577026 0.559392 0.950487 -0.348897
O100  O     O_R   0.623974 0.588883 0.967097 -0.264733
N27   N     N_R   0.560631 0.393473 0.970336 0.242761
O101  O     O_R   0.559455 0.422980 0.950648 -0.349154
O102  O     O_R   0.588933 0.376037 0.967325 -0.264661
N28   N     N_R   0.393464 0.439416 0.970167 0.242761
O103  O     O_R   0.422964 0.440614 0.950463 -0.348836
O104  O     O_R   0.376032 0.411114 0.967121 -0.264749
N29   N     N_R   0.439371 0.393473 0.029661 0.242745
O105  O     O_R   0.440549 0.422974 0.049365 -0.349117
O106  O     O_R   0.411066 0.376041 0.032656 -0.264672
N30   N     N_R   0.606535 0.439415 0.029830 0.242753
O107  O     O_R   0.577039 0.440616 0.049544 -0.348815
O108  O     O_R   0.623964 0.411111 0.032864 -0.264765
N31   N     N_R   0.560630 0.606526 0.029660 0.242736
O109  O     O_R   0.559448 0.577032 0.049381 -0.349075
O110  O     O_R   0.588938 0.623954 0.032639 -0.264692
N32   N     N_R   0.393464 0.560587 0.029835 0.242782
O111  O     O_R   0.422974 0.559392 0.049516 -0.348892
O112  O     O_R   0.376027 0.588884 0.032903 -0.264736
H17   H     H_    0.946572 0.172576 0.485511 0.215602
H18   H     H_    0.172590 0.053387 0.485273 0.215577
H19   H     H_    0.053411 0.827402 0.485530 0.215608
H20   H     H_    0.827389 0.946618 0.485291 0.215608
H21   H     H_    0.946554 0.827455 0.514513 0.215569
H22   H     H_    0.172590 0.946623 0.514739 0.215570
H23   H     H_    0.053421 0.172579 0.514493 0.215603
H24   H     H_    0.827416 0.053369 0.514767 0.215570
H25   H     H_    0.446578 0.672578 0.985498 0.215605
H26   H     H_    0.672591 0.553383 0.985278 0.215575
H27   H     H_    0.553424 0.327421 0.985501 0.215607
H28   H     H_    0.327410 0.446619 0.985274 0.215572
H29   H     H_    0.446580 0.327421 0.014502 0.215605
H30   H     H_    0.672589 0.446617 0.014724 0.215573
H31   H     H_    0.553422 0.672578 0.014503 0.215605
H32   H     H_    0.327410 0.553385 0.014723 0.215575
N33   N     N_R   0.029689 0.214456 0.572313 0.237529
O113  O     O_R   0.010395 0.194005 0.595329 -0.288237
O114  O     O_R   0.061723 0.218155 0.583065 -0.248957
N34   N     N_R   0.214454 0.970562 0.572485 0.237553
O115  O     O_R   0.193988 0.989927 0.595380 -0.288228
O116  O     O_R   0.218168 0.938568 0.583427 -0.248985
N35   N     N_R   0.970261 0.785541 0.572302 0.237473
O117  O     O_R   0.989552 0.805986 0.595330 -0.288258
O118  O     O_R   0.938224 0.781842 0.583043 -0.249098
N36   N     N_R   0.785545 0.029434 0.572505 0.237558
O119  O     O_R   0.806008 0.010065 0.595398 -0.288257
O120  O     O_R   0.781833 0.061428 0.583452 -0.248963
N37   N     N_R   0.029661 0.785548 0.427689 0.237540
O121  O     O_R   0.010370 0.806006 0.404680 -0.288204
O122  O     O_R   0.061695 0.781846 0.416936 -0.248944
N38   N     N_R   0.214454 0.029449 0.427527 0.237559
O123  O     O_R   0.193989 0.010085 0.404630 -0.288229
O124  O     O_R   0.218169 0.061443 0.416587 -0.248970
N39   N     N_R   0.970300 0.214456 0.427692 0.237525
O125  O     O_R   0.989594 0.194005 0.404675 -0.288243
O126  O     O_R   0.938266 0.218156 0.416942 -0.248965
N40   N     N_R   0.785545 0.970571 0.427530 0.237609
O127  O     O_R   0.806010 0.989939 0.404640 -0.288218
O128  O     O_R   0.781831 0.938578 0.416580 -0.248829
N41   N     N_R   0.529685 0.714456 0.072318 0.237527
O129  O     O_R   0.510388 0.694006 0.095330 -0.288238
O130  O     O_R   0.561718 0.718155 0.083075 -0.248956
N42   N     N_R   0.714454 0.470548 0.072475 0.237556
O131  O     O_R   0.693989 0.489910 0.095374 -0.288231
O132  O     O_R   0.718168 0.438553 0.083410 -0.248978
N43   N     N_R   0.470316 0.285544 0.072318 0.237529
O133  O     O_R   0.489612 0.305995 0.095331 -0.288239
O134  O     O_R   0.438282 0.281845 0.083075 -0.248952
N44   N     N_R   0.285546 0.529453 0.072473 0.237559
O135  O     O_R   0.306011 0.510090 0.095372 -0.288230
O136  O     O_R   0.281831 0.561448 0.083409 -0.248970
N45   N     N_R   0.529689 0.285543 0.927686 0.237530
O137  O     O_R   0.510392 0.305993 0.904672 -0.288240
O138  O     O_R   0.561722 0.281844 0.916930 -0.248949
N46   N     N_R   0.714453 0.529451 0.927526 0.237560
O139  O     O_R   0.693988 0.510088 0.904628 -0.288229
O140  O     O_R   0.718168 0.561446 0.916591 -0.248971
N47   N     N_R   0.470315 0.714456 0.927683 0.237527
O141  O     O_R   0.489611 0.694006 0.904671 -0.288238
O142  O     O_R   0.438281 0.718155 0.916926 -0.248956
N48   N     N_R   0.285547 0.470553 0.927523 0.237557
O143  O     O_R   0.306012 0.489915 0.904625 -0.288231
O144  O     O_R   0.281832 0.438558 0.916586 -0.248975
N49   N     N_R   0.038322 0.285976 0.565219 0.237294
O145  O     O_R   0.062630 0.306440 0.552358 -0.290641
O146  O     O_R   0.032429 0.282225 0.607210 -0.253791
N50   N     N_R   0.285982 0.961952 0.565486 0.237326
O147  O     O_R   0.306461 0.937600 0.552800 -0.290675
O148  O     O_R   0.282216 0.968014 0.607436 -0.253796
N51   N     N_R   0.961633 0.714020 0.565201 0.237307
O149  O     O_R   0.937332 0.693549 0.552335 -0.290642
O150  O     O_R   0.967518 0.717773 0.607194 -0.253785
N52   N     N_R   0.714017 0.038050 0.565503 0.237326
O151  O     O_R   0.693538 0.062402 0.552822 -0.290674
O152  O     O_R   0.717783 0.031983 0.607452 -0.253802
N53   N     N_R   0.038293 0.714028 0.434778 0.237290
O153  O     O_R   0.062605 0.693569 0.447638 -0.290641
O154  O     O_R   0.032399 0.717779 0.392786 -0.253789
N54   N     N_R   0.285983 0.038056 0.434526 0.237327
O155  O     O_R   0.306463 0.062406 0.447212 -0.290677
O156  O     O_R   0.282215 0.031995 0.392576 -0.253797
N55   N     N_R   0.961670 0.285977 0.434786 0.237295
O157  O     O_R   0.937363 0.306442 0.447647 -0.290642
O158  O     O_R   0.967562 0.282224 0.392794 -0.253792
N56   N     N_R   0.714017 0.961963 0.434525 0.237317
O159  O     O_R   0.693537 0.937611 0.447205 -0.290678
O160  O     O_R   0.717784 0.968031 0.392577 -0.253802
N57   N     N_R   0.538318 0.785976 0.065224 0.237293
O161  O     O_R   0.562628 0.806441 0.052367 -0.290640
O162  O     O_R   0.532421 0.782225 0.107214 -0.253790
N58   N     N_R   0.785983 0.461941 0.065475 0.237327
O163  O     O_R   0.806462 0.437592 0.052785 -0.290677
O164  O     O_R   0.782216 0.467999 0.107425 -0.253797
N59   N     N_R   0.461682 0.214024 0.065224 0.237293
O165  O     O_R   0.437372 0.193560 0.052367 -0.290640
O166  O     O_R   0.467578 0.217776 0.107215 -0.253791
N60   N     N_R   0.214017 0.538059 0.065473 0.237326
O167  O     O_R   0.193537 0.562408 0.052784 -0.290676
O168  O     O_R   0.217784 0.532001 0.107423 -0.253797
N61   N     N_R   0.538322 0.214023 0.934780 0.237294
O169  O     O_R   0.562630 0.193558 0.947638 -0.290641
O170  O     O_R   0.532426 0.217774 0.892790 -0.253791
N62   N     N_R   0.785982 0.538058 0.934526 0.237327
O171  O     O_R   0.806462 0.562407 0.947215 -0.290677
O172  O     O_R   0.782215 0.532000 0.892576 -0.253797
N63   N     N_R   0.461681 0.785976 0.934777 0.237294
O173  O     O_R   0.437372 0.806441 0.947633 -0.290641
O174  O     O_R   0.467579 0.782225 0.892786 -0.253791
N64   N     N_R   0.214018 0.461944 0.934522 0.237327
O175  O     O_R   0.193539 0.437595 0.947211 -0.290676
O176  O     O_R   0.217785 0.468003 0.892572 -0.253798
H33   H     H_    0.012006 0.328205 0.430928 0.212471
H34   H     H_    0.328199 0.987661 0.431028 0.212423
H35   H     H_    0.987970 0.671788 0.430920 0.212479
H36   H     H_    0.671801 0.012358 0.431038 0.212425
H37   H     H_    0.011978 0.671801 0.569069 0.212466
H38   H     H_    0.328203 0.012343 0.568980 0.212424
H39   H     H_    0.987989 0.328207 0.569075 0.212472
H40   H     H_    0.671795 0.987659 0.568985 0.212421
H41   H     H_    0.512015 0.828206 0.930929 0.212472
H42   H     H_    0.828201 0.487665 0.931023 0.212423
H43   H     H_    0.487987 0.171794 0.930930 0.212472
H44   H     H_    0.171798 0.512336 0.931021 0.212424
H45   H     H_    0.512014 0.171793 0.069074 0.212473
H46   H     H_    0.828201 0.512334 0.068978 0.212423
H47   H     H_    0.487985 0.828206 0.069072 0.212472
H48   H     H_    0.171800 0.487665 0.068975 0.212423
N65   N     N_R   0.003595 0.394634 0.417680 0.243087
O177  O     O_R   0.018227 0.380343 0.383760 -0.287946
O178  O     O_R   0.983502 0.420665 0.410961 -0.371605
N66   N     N_R   0.394634 0.995984 0.417721 0.243113
O179  O     O_R   0.380350 0.981172 0.383926 -0.287669
O180  O     O_R   0.420641 0.016074 0.410830 -0.372054
N67   N     N_R   0.996407 0.605362 0.417676 0.243087
O181  O     O_R   0.981778 0.619649 0.383752 -0.287951
O182  O     O_R   0.016504 0.579332 0.410963 -0.371601
N68   N     N_R   0.605368 0.004026 0.417724 0.243119
O183  O     O_R   0.619652 0.018841 0.383932 -0.287661
O184  O     O_R   0.579363 0.983935 0.410830 -0.372055
N69   N     N_R   0.003589 0.605369 0.582318 0.243085
O185  O     O_R   0.018221 0.619662 0.616237 -0.287945
O186  O     O_R   0.983500 0.579335 0.589039 -0.371602
N70   N     N_R   0.394638 0.004015 0.582283 0.243110
O187  O     O_R   0.380355 0.018826 0.616080 -0.287675
O188  O     O_R   0.420644 0.983925 0.589171 -0.372065
N71   N     N_R   0.996405 0.394636 0.582321 0.243087
O189  O     O_R   0.981774 0.380346 0.616242 -0.287949
O190  O     O_R   0.016499 0.420667 0.589039 -0.371606
N72   N     N_R   0.605360 0.995979 0.582285 0.243109
O191  O     O_R   0.619642 0.981166 0.616080 -0.287679
O192  O     O_R   0.579353 0.016069 0.589175 -0.372080
N73   N     N_R   0.503601 0.894634 0.917680 0.243089
O193  O     O_R   0.518236 0.880344 0.883761 -0.287945
O194  O     O_R   0.483508 0.920665 0.910959 -0.371610
N74   N     N_R   0.894636 0.495990 0.917718 0.243110
O195  O     O_R   0.880352 0.481182 0.883920 -0.287674
O196  O     O_R   0.920643 0.516080 0.910832 -0.372053
N75   N     N_R   0.496400 0.105366 0.917681 0.243089
O197  O     O_R   0.481766 0.119656 0.883762 -0.287946
O198  O     O_R   0.516494 0.079335 0.910960 -0.371609
N76   N     N_R   0.105363 0.504010 0.917717 0.243111
O199  O     O_R   0.119647 0.518818 0.883919 -0.287676
O200  O     O_R   0.079356 0.483920 0.910831 -0.372058
N77   N     N_R   0.503600 0.105364 0.082321 0.243087
O201  O     O_R   0.518233 0.119654 0.116240 -0.287946
O202  O     O_R   0.483506 0.079334 0.089041 -0.371611
N78   N     N_R   0.894636 0.504009 0.082282 0.243111
O203  O     O_R   0.880352 0.518818 0.116080 -0.287675
O204  O     O_R   0.920643 0.483920 0.089169 -0.372054
N79   N     N_R   0.496399 0.894635 0.082320 0.243089
O205  O     O_R   0.481764 0.880345 0.116239 -0.287946
O206  O     O_R   0.516492 0.920665 0.089041 -0.371613
N80   N     N_R   0.105365 0.495989 0.082281 0.243112
O207  O     O_R   0.119649 0.481181 0.116078 -0.287674
O208  O     O_R   0.079358 0.516079 0.089169 -0.372052

loop_
_geom_bond_atom_site_label_1
_geom_bond_atom_site_label_2
_geom_bond_distance
_ccdc_geom_bond_type
N35   O117  1.301234 A    
N79   O206  1.300868 A    
N17   O81   1.298961 A    
O8    Zn2   2.025653 S    
C63   C87   1.403759 A    
N45   O137  1.301234 A    
C64   C88   1.403749 A    
O33   Zn9   2.027597 S    
N73   O193  1.301966 A    
C210  C222  1.414833 A    
C114  H26   1.081846 S    
C15   C42   1.456007 S    
C107  H19   1.081829 S    
C115  C127  1.393160 A    
N30   O108  1.302013 A    
C56   C68   1.408247 A    
O18   Zn2   2.036917 S    
C63   C71   1.408229 A    
C85   H13   1.082748 S    
N68   O183  1.301965 A    
C113  H25   1.081831 S    
C102  N30   1.448323 S    
O43   Zn11  2.027595 S    
O25   C13   1.287066 A    
N22   O91   1.298946 A    
C98   C114  1.396989 A    
C168  N64   1.437395 S    
N47   O141  1.301238 A    
C74   C85   1.387384 A    
N54   O155  1.301240 A    
C102  C118  1.396985 A    
C77   H5    1.082748 S    
C39   C47   1.416448 A    
N59   O166  1.301406 A    
C215  N79   1.439467 S    
C104  C120  1.396990 A    
O3    C3    1.286810 A    
N12   O71   1.301094 A    
C34   C60   1.396808 A    
C155  N51   1.437397 S    
N32   O112  1.302015 A    
C148  C184  1.414487 A    
C30   N6    1.438172 S    
O36   Zn9   2.027590 S    
C38   C48   1.416390 A    
C52   C66   1.408249 A    
C186  C202  1.394900 A    
O5    Zn1   2.025644 S    
C195  C231  1.398239 A    
C138  C178  1.414488 A    
C196  C232  1.398222 A    
C127  C183  1.478790 S    
C206  N70   1.439399 S    
C31   C53   1.396797 A    
C198  C230  1.398224 A    
C31   N7    1.438114 S    
C206  C218  1.414831 A    
N60   O168  1.301402 A    
C188  C228  1.398226 A    
O41   C21   1.292136 A    
C110  H22   1.081847 S    
C53   C77   1.403758 A    
N11   O69   1.301092 A    
O43   C23   1.292135 A    
C65   C72   1.400489 A    
O17   C9    1.287069 A    
N15   O78   1.298988 A    
C82   H10   1.082744 S    
C67   C70   1.400492 A    
N28   O104  1.302013 A    
C73   C86   1.387383 A    
C8    C224  1.456802 S    
N8    O63   1.301095 A    
N49   O145  1.301240 A    
O31   C15   1.287062 A    
O36   C20   1.292079 A    
C27   C49   1.396797 A    
N26   O100  1.302014 A    
O46   Zn12  2.027592 S    
C4    C220  1.456794 S    
C209  N73   1.439468 S    
C80   H8    1.082744 S    
C5    C221  1.456734 S    
C50   C74   1.403748 A    
N51   O150  1.301405 A    
N54   O156  1.301404 A    
N23   O93   1.298957 A    
C194  C230  1.398224 A    
C150  C182  1.414488 A    
C148  N44   1.437384 S    
N14   O75   1.301096 A    
C142  N38   1.437383 S    
C81   H9    1.082748 S    
C159  N55   1.437396 S    
C51   C75   1.403755 A    
N74   O195  1.301966 A    
C59   C83   1.403760 A    
O26   Zn6   2.036917 S    
N57   O162  1.301406 A    
N25   O97   1.298956 A    
C57   C81   1.403756 A    
C40   N16   1.438169 S    
N56   O159  1.301243 A    
C105  C121  1.393167 A    
N27   O101  1.298951 A    
O27   C13   1.287064 A    
C195  C211  1.394898 A    
C192  C228  1.398218 A    
C17   C132  1.461835 S    
C158  N54   1.437395 S    
N38   O123  1.301237 A    
C93   N21   1.447947 S    
C118  H30   1.081846 S    
N31   O110  1.302013 A    
C40   C48   1.416390 A    
C199  C229  1.398237 A    
C52   C76   1.403748 A    
C207  N71   1.439467 S    
C33   C45   1.416447 A    
C21   C136  1.461850 S    
N71   O189  1.301970 A    
C147  N43   1.437383 S    
C1    C217  1.456738 S    
C12   C45   1.456246 S    
C188  H36   1.082162 S    
C92   C132  1.427475 A    
C99   N27   1.448307 S    
N29   O105  1.298951 A    
N42   O131  1.301236 A    
N70   O188  1.300871 A    
C60   C70   1.408251 A    
C79   H7    1.082749 S    
C90   N18   1.448347 S    
O9    C5    1.286820 A    
C89   C105  1.396971 A    
C92   N20   1.448649 S    
O11   C7    1.286815 A    
O19   Zn3   2.036918 S    
C150  N46   1.437386 S    
N41   O129  1.301237 A    
N36   O120  1.301399 A    
C104  N32   1.448344 S    
N15   O77   1.301091 A    
C140  C156  1.401631 A    
C137  N33   1.437382 S    
C215  C221  1.414868 A    
N13   O74   1.298991 A    
C124  C180  1.478721 S    
N48   O143  1.301234 A    
O44   Zn11  2.027590 S    
C185  C225  1.398240 A    
O6    Zn4   2.025656 S    
N24   O95   1.298934 A    
C186  C226  1.398225 A    
C191  C207  1.394898 A    
N10   O68   1.298993 A    
C192  C208  1.394894 A    
N80   O208  1.300875 A    
C33   C59   1.396796 A    
C151  C167  1.401619 A    
N33   O113  1.301239 A    
C76   H4    1.082747 S    
C202  C218  1.414827 A    
O45   C21   1.292135 A    
C188  C204  1.394898 A    
C55   C79   1.403758 A    
C10   C47   1.456246 S    
C37   C47   1.416448 A    
O47   C23   1.292136 A    
O21   Zn1   2.036920 S    
C39   C61   1.396796 A    
C139  C155  1.401638 A    
N35   O118  1.301401 A    
C213  C223  1.414869 A    
C208  C220  1.414830 A    
O23   C11   1.287062 A    
C143  C159  1.401621 A    
N78   O204  1.300870 A    
N66   O180  1.300875 A    
C102  C134  1.427191 A    
C58   C70   1.408253 A    
C95   C111  1.396973 A    
C216  N80   1.439402 S    
N31   O109  1.298953 A    
C94   C110  1.396971 A    
C143  N39   1.437381 S    
C160  N56   1.437395 S    
O13   C7    1.286819 A    
O40   Zn10  2.027586 S    
O33   C17   1.292111 A    
C66   C71   1.400486 A    
C140  N36   1.437384 S    
C34   C46   1.416390 A    
O48   C22   1.292109 A    
O2    Zn2   2.025655 S    
C139  N35   1.437375 S    
O34   Zn9   2.027588 S    
C38   C64   1.396806 A    
C162  C174  1.414462 A    
N5    O58   1.298993 A    
C91   N19   1.448286 S    
O28   C14   1.287127 A    
N44   O135  1.301235 A    
O26   C14   1.287123 A    
C26   C52   1.396811 A    
O29   C15   1.287067 A    
C147  C183  1.414510 A    
C119  C125  1.393161 A    
C18   C129  1.461755 S    
O29   Zn5   2.036920 S    
C216  C224  1.414832 A    
C197  H45   1.082144 S    
C114  C126  1.393104 A    
C154  C170  1.414464 A    
C165  C175  1.414484 A    
C22   C133  1.461755 S    
C35   C45   1.416446 A    
C154  N50   1.437393 S    
N58   O164  1.301403 A    
N18   O83   1.298934 A    
N6    O60   1.298990 A    
O16   Zn6   2.025653 S    
C95   N23   1.448283 S    
N4    O56   1.298993 A    
N61   O170  1.301403 A    
C56   C80   1.403752 A    
C92   C108  1.397106 A    
C167  N63   1.437394 S    
C93   C109  1.396857 A    
N50   O147  1.301241 A    
C152  N48   1.437383 S    
C111  H23   1.081834 S    
C122  C178  1.478721 S    
C7    C223  1.456738 S    
C53   C67   1.408231 A    
N37   O122  1.301401 A    
C100  C116  1.396982 A    
C89   C129  1.427075 A    
N11   O70   1.298990 A    
C193  H41   1.082150 S    
O15   Zn7   2.025648 S    
C141  N37   1.437386 S    
N1    O49   1.301089 A    
C29   C43   1.416444 A    
C138  C154  1.401627 A    
C138  N34   1.437382 S    
C50   C66   1.408250 A    
C94   N22   1.448308 S    
N53   O153  1.301240 A    
C109  H21   1.081849 S    
C151  N47   1.437382 S    
N34   O115  1.301233 A    
O42   Zn11  2.027588 S    
C86   H14   1.082746 S    
O32   Zn6   2.036923 S    
N7    O62   1.298991 A    
C107  C123  1.393248 A    
C109  C123  1.393200 A    
C54   C78   1.403749 A    
C19   C130  1.461854 S    
O47   Zn12  2.027593 S    
C97   C113  1.396973 A    
N63   O173  1.301240 A    
N18   O84   1.302014 A    
C35   N11   1.438113 S    
O34   C18   1.292103 A    
N32   O111  1.298938 A    
C125  C181  1.478790 S    
C170  C226  1.478131 S    
O22   Zn4   2.036919 S    
N76   O199  1.301965 A    
C88   H16   1.082747 S    
C78   H6    1.082744 S    
C145  N41   1.437381 S    
O23   Zn3   2.036922 S    
N27   O102  1.302015 A    
C171  C227  1.478212 S    
C94   C130  1.427182 A    
C6    C222  1.456802 S    
C36   C46   1.416392 A    
C152  C168  1.401625 A    
O12   C8    1.286830 A    
O1    C1    1.286820 A    
C9    C48   1.456004 S    
O14   C6    1.286829 A    
N64   O175  1.301240 A    
O48   Zn12  2.027586 S    
C11   C46   1.456007 S    
C91   C107  1.397030 A    
N68   O184  1.300873 A    
C198  H46   1.082161 S    
O39   C19   1.292143 A    
C150  C166  1.401624 A    
N75   O198  1.300867 A    
C203  N67   1.439473 S    
C144  C160  1.401610 A    
N22   O92   1.302011 A    
C58   C82   1.403750 A    
N52   O151  1.301241 A    
C106  C122  1.393108 A    
N79   O205  1.301967 A    
C204  C220  1.414823 A    
O30   Zn8   2.036919 S    
C166  C174  1.414463 A    
C101  C117  1.396973 A    
C195  H43   1.082147 S    
N55   O157  1.301240 A    
C117  H29   1.081832 S    
N12   O72   1.298993 A    
C37   C63   1.396797 A    
N40   O127  1.301238 A    
N57   O161  1.301243 A    
O35   Zn9   2.027595 S    
C153  N49   1.437393 S    
C199  H47   1.082148 S    
N62   O171  1.301240 A    
N21   O90   1.301984 A    
C27   N3    1.438115 S    
C187  C203  1.394902 A    
C14   C43   1.456243 S    
C25   C51   1.396797 A    
C26   C42   1.416392 A    
C96   C132  1.427300 A    
O22   C12   1.287128 A    
C78   C81   1.387383 A    
C141  C179  1.414516 A    
N71   O190  1.300871 A    
O10   C6    1.286827 A    
C16   C41   1.456246 S    
C90   C106  1.396998 A    
O18   C10   1.287124 A    
C189  H37   1.082151 S    
O38   Zn10  2.027592 S    
N72   O192  1.300874 A    
C148  C164  1.401627 A    
N62   O172  1.301401 A    
C202  N66   1.439399 S    
C190  H38   1.082162 S    
N77   O202  1.300871 A    
O2    C2    1.286827 A    
N8    O64   1.298990 A    
O37   Zn10  2.027598 S    
C200  C232  1.398225 A    
C164  N60   1.437392 S    
N9    O66   1.298992 A    
C33   N9    1.438117 S    
N20   O87   1.298889 A    
C84   H12   1.082744 S    
C54   C68   1.408249 A    
C196  C212  1.394903 A    
O31   Zn7   2.036922 S    
C163  N59   1.437393 S    
C118  C126  1.393102 A    
C207  C217  1.414870 A    
C189  C227  1.398239 A    
O39   Zn10  2.027593 S    
C28   C50   1.396807 A    
N19   O85   1.298951 A    
C203  C219  1.414871 A    
C110  C122  1.393102 A    
C169  C225  1.478208 S    
C30   C44   1.416396 A    
C190  C206  1.394900 A    
C32   C54   1.396807 A    
C76   C87   1.387385 A    
N2    O52   1.298991 A    
C98   C134  1.427206 A    
C189  C205  1.394904 A    
C77   C82   1.387381 A    
N17   O82   1.302010 A    
N65   O177  1.301968 A    
O21   C11   1.287067 A    
N45   O138  1.301401 A    
N39   O126  1.301403 A    
C175  C231  1.478208 S    
C153  C169  1.414483 A    
C176  C232  1.478135 S    
C80   C83   1.387385 A    
C146  N42   1.437381 S    
C137  C177  1.414511 A    
N43   O133  1.301237 A    
C96   C112  1.396947 A    
N38   O124  1.301398 A    
O13   Zn5   2.025644 S    
N49   O146  1.301405 A    
C79   C84   1.387382 A    
O42   C22   1.292110 A    
C38   N14   1.438173 S    
C55   C67   1.408231 A    
C211  N75   1.439465 S    
N30   O107  1.298947 A    
C104  C136  1.427204 A    
C163  C175  1.414483 A    
C120  C128  1.393099 A    
C200  H48   1.082160 S    
C97   C133  1.427091 A    
C140  C180  1.414485 A    
C91   C131  1.427027 A    
O46   C24   1.292108 A    
C204  N68   1.439402 S    
N75   O197  1.301968 A    
C205  N69   1.439465 S    
N78   O203  1.301968 A    
C159  C169  1.414485 A    
C166  N62   1.437396 S    
C139  C179  1.414506 A    
N39   O125  1.301237 A    
C146  C182  1.414489 A    
C157  C171  1.414482 A    
C200  C216  1.394901 A    
C162  N58   1.437393 S    
C32   N8    1.438175 S    
C160  C172  1.414459 A    
C61   C71   1.408231 A    
C194  C210  1.394903 A    
C32   C44   1.416390 A    
C20   C131  1.461767 S    
C185  C201  1.394898 A    
C111  C121  1.393168 A    
C93   C131  1.426849 A    
N48   O144  1.301401 A    
C24   C135  1.461759 S    
O9    Zn5   2.025649 S    
N72   O191  1.301965 A    
C51   C65   1.408233 A    
C75   H3    1.082751 S    
O11   Zn7   2.025646 S    
C95   C129  1.427075 A    
N60   O167  1.301242 A    
C112  H24   1.081845 S    
C97   N25   1.448291 S    
C90   C130  1.427207 A    
C165  N61   1.437393 S    
C29   C55   1.396798 A    
C13   C44   1.456007 S    
C64   C72   1.408249 A    
N28   O103  1.298943 A    
O5    C3    1.286828 A    
C212  C224  1.414830 A    
C197  C213  1.394900 A    
O45   Zn12  2.027598 S    
N50   O148  1.301406 A    
C191  H39   1.082148 S    
C214  C222  1.414829 A    
C96   N24   1.448378 S    
O7    Zn3   2.025648 S    
C191  C225  1.398238 A    
C34   N10   1.438173 S    
C210  N74   1.439399 S    
C209  C221  1.414871 A    
C211  C223  1.414868 A    
C25   C41   1.416444 A    
O3    Zn3   2.025646 S    
C190  C226  1.398225 A    
C115  H27   1.081832 S    
C121  C177  1.478790 S    
O17   Zn1   2.036919 S    
C151  C181  1.414513 A    
C156  C172  1.414465 A    
C30   C56   1.396808 A    
N46   O139  1.301238 A    
C117  C127  1.393156 A    
N5    O57   1.301091 A    
C27   C41   1.416444 A    
C83   H11   1.082747 S    
N25   O98   1.302009 A    
O40   C18   1.292112 A    
N44   O136  1.301398 A    
C214  N78   1.439401 S    
C75   C88   1.387383 A    
C167  C173  1.414484 A    
N42   O132  1.301401 A    
N43   O134  1.301401 A    
O44   C24   1.292107 A    
O14   Zn8   2.025656 S    
N7    O61   1.301090 A    
N63   O174  1.301406 A    
C185  H33   1.082147 S    
N67   O182  1.300872 A    
N13   O73   1.301090 A    
C103  C133  1.427090 A    
C61   C85   1.403756 A    
C26   N2    1.438169 S    
N3    O53   1.301092 A    
N26   O99   1.298940 A    
C152  C184  1.414490 A    
C101  C135  1.427098 A    
C186  H34   1.082162 S    
N56   O160  1.301403 A    
C199  C215  1.394899 A    
N29   O106  1.302013 A    
N61   O169  1.301239 A    
O8    C4    1.286827 A    
C187  H35   1.082149 S    
O4    Zn4   2.025651 S    
O28   Zn8   2.036919 S    
N16   O80   1.298993 A    
C40   C62   1.396810 A    
N70   O187  1.301966 A    
N14   O76   1.298990 A    
C74   H2    1.082745 S    
C168  C176  1.414460 A    
C39   N15   1.438118 S    
C57   C69   1.408231 A    
C194  H42   1.082160 S    
C193  C209  1.394895 A    
N59   O165  1.301241 A    
C161  N57   1.437391 S    
C37   N13   1.438117 S    
C149  C183  1.414511 A    
C108  C124  1.393052 A    
C149  C165  1.401623 A    
N41   O130  1.301401 A    
C25   N1    1.438116 S    
N36   O119  1.301236 A    
C108  H20   1.081828 S    
C143  C177  1.414512 A    
N69   O186  1.300869 A    
C3    C219  1.456746 S    
C23   C134  1.461850 S    
C36   C58   1.396806 A    
C146  C162  1.401628 A    
C192  H40   1.082163 S    
C128  C184  1.478721 S    
C116  H28   1.081847 S    
C161  C173  1.414482 A    
C172  C228  1.478127 S    
N34   O116  1.301400 A    
N80   O207  1.301963 A    
C173  C229  1.478208 S    
O16   C8    1.286825 A    
C103  C119  1.396974 A    
N19   O86   1.302012 A    
C144  N40   1.437383 S    
C62   C72   1.408253 A    
C158  C170  1.414463 A    
N73   O194  1.300874 A    
C31   C43   1.416447 A    
N23   O94   1.302008 A    
O25   Zn5   2.036919 S    
O6    C2    1.286829 A    
N76   O200  1.300874 A    
C157  N53   1.437393 S    
C164  C176  1.414464 A    
O27   Zn7   2.036918 S    
N66   O179  1.301966 A    
C123  C179  1.478779 S    
C142  C178  1.414491 A    
N51   O149  1.301240 A    
N55   O158  1.301404 A    
C89   N17   1.448271 S    
C49   C73   1.403759 A    
O7    C1    1.286818 A    
C198  C214  1.394901 A    
C212  N76   1.439402 S    
C35   C57   1.396796 A    
C187  C227  1.398238 A    
C149  N45   1.437384 S    
N64   O176  1.301402 A    
C201  N65   1.439469 S    
C120  H32   1.081850 S    
C112  C124  1.393005 A    
C101  N29   1.448301 S    
O19   C9    1.287061 A    
C137  C153  1.401624 A    
C113  C125  1.393163 A    
C174  C230  1.478135 S    
N69   O185  1.301970 A    
O24   C12   1.287125 A    
C49   C65   1.408232 A    
C156  N52   1.437393 S    
N52   O152  1.301402 A    
N3    O54   1.298990 A    
O24   Zn2   2.036923 S    
O12   Zn8   2.025651 S    
C99   C135  1.427106 A    
C36   N12   1.438171 S    
C100  C136  1.427198 A    
C208  N72   1.439398 S    
N16   O79   1.301096 A    
C73   H1    1.082747 S    
C28   N4    1.438172 S    
C213  N77   1.439465 S    
C103  N31   1.448291 S    
N40   O128  1.301401 A    
O35   C19   1.292132 A    
N67   O181  1.301967 A    
N6    O59   1.301099 A    
C126  C182  1.478721 S    
C29   N5    1.438114 S    
N21   O89   1.299050 A    
N4    O55   1.301094 A    
N2    O51   1.301098 A    
O38   C20   1.292144 A    
O37   C17   1.292163 A    
C116  C128  1.393104 A    
O30   C16   1.287126 A    
C144  C180  1.414496 A    
N46   O140  1.301397 A    
C62   C86   1.403751 A    
C119  H31   1.081835 S    
C105  H17   1.081832 S    
C197  C231  1.398237 A    
C145  C181  1.414508 A    
C205  C219  1.414871 A    
O4    C4    1.286825 A    
N74   O196  1.300877 A    
C201  C217  1.414872 A    
C59   C69   1.408231 A    
C147  C163  1.401621 A    
C28   C42   1.416394 A    
N10   O67   1.301096 A    
N65   O178  1.300868 A    
C106  H18   1.081845 S    
C145  C161  1.401624 A    
N1    O50   1.298993 A    
C98   N26   1.448341 S    
O20   Zn4   2.036919 S    
O41   Zn11  2.027597 S    
N77   O201  1.301969 A    
O1    Zn1   2.025649 S    
C100  N28   1.448332 S    
O20   C10   1.287128 A    
N58   O163  1.301239 A    
N53   O154  1.301404 A    
N9    O65   1.301090 A    
O10   Zn6   2.025655 S    
N20   O88   1.302057 A    
C155  C171  1.414490 A    
C99   C115  1.396979 A    
O15   C5    1.286818 A    
C141  C157  1.401613 A    
N33   O114  1.301398 A    
N37   O121  1.301236 A    
N47   O142  1.301401 A    
C196  H44   1.082162 S    
C193  C229  1.398238 A    
C2    C218  1.456802 S    
N24   O96   1.302013 A    
O32   C16   1.287123 A    
C87   H15   1.082746 S    
C68   C69   1.400489 A    
C60   C84   1.403750 A    
C142  C158  1.401622 A    
