data_mof_unit_57428.cif
_audit_creation_date              2012-12-10T17:35:35-0500
_audit_creation_method            fapswitch 2.2
_symmetry_space_group_name_H-M    P1
_symmetry_Int_Tables_number       1
_space_group_crystal_system       triclinic
_cell_length_a                    10.707905
_cell_length_b                    12.315736
_cell_length_c                    13.178372
_cell_angle_alpha                 116.632246
_cell_angle_beta                  77.404509
_cell_angle_gamma                 101.146039
_cell_volume                      1507.00890604

loop_
_atom_site_label
_atom_site_type_symbol
_atom_type_description
_atom_site_fract_x
_atom_site_fract_y
_atom_site_fract_z
_atom_type_partial_charge
C1    C     C_R   0.512079 0.854908 0.286465 0.764200
C2    C     C_3   0.122483 0.001305 0.500285 0.099704
C3    C     C_3   0.045504 0.020022 0.620071 -0.422349
C4    C     C_3   0.069870 0.877899 0.408586 -0.369788
C5    C     C_R   0.316235 0.279279 0.016681 -0.198172
C6    C     C_R   0.455339 0.227778 0.834700 -0.144076
C7    C     C_R   0.596625 0.815642 0.084529 -0.190710
C8    C     C_R   0.617433 0.737820 0.968630 -0.181055
C9    C     C_R   0.570109 0.614987 0.930671 -0.112945
C10   C     C_R   0.499775 0.567228 0.008723 0.079561
C11   C     C_R   0.461318 0.650901 0.123293 0.067627
C12   C     C_R   0.739930 0.999914 0.500319 0.768948
C13   C     C_R   0.460455 0.440220 0.975731 -0.040955
C14   C     C_R   0.364156 0.402686 0.050296 0.103129
C15   C     C_R   0.314495 0.488834 0.156906 -0.211726
C16   C     C_R   0.362626 0.610915 0.193294 -0.195706
C17   C     C_R   0.514878 0.348345 0.872459 0.424345
C18   C     C_R   0.358919 0.192752 0.908065 -0.287975
C19   C     C_R   0.519972 0.773330 0.163237 -0.109460
C20   C     C_R   0.707783 0.346647 0.329487 -0.267178
C21   C     C_R   0.323688 0.759087 0.643967 -0.044158
C22   C     C_R   0.281068 0.659668 0.673011 0.451606
C23   C     C_R   0.481837 0.144997 0.713389 0.835808
C24   C     C_R   0.350244 0.557902 0.619162 -0.241730
C25   C     C_R   0.457125 0.550779 0.532938 -0.095113
C26   C     C_R   0.493119 0.652695 0.504713 0.216196
C27   C     C_R   0.529534 0.446833 0.473968 -0.076842
C28   C     C_R   0.635494 0.447012 0.387623 0.074536
C29   C     C_R   0.667900 0.546621 0.359274 0.412702
C30   C     C_R   0.598675 0.647656 0.418781 -0.230697
C31   C     C_R   0.501955 0.341815 0.496787 0.075869
C32   C     C_R   0.675594 0.246980 0.356261 0.044570
C33   C     C_R   0.260254 0.000568 0.500098 0.766458
C34   C     C_3   0.959312 0.105578 0.473307 -0.465825
C35   C     C_3   0.102356 0.106155 0.472805 -0.392406
C36   C     C_3   0.900272 0.019517 0.621513 0.399475
C37   C     C_3   0.925850 0.877517 0.408442 -0.348691
C38   C     C_3   0.878139 0.000157 0.501154 0.073610
Cu1   Cu    Cu3+1 0.529690 0.098270 0.475420 0.943547
Cu2   Cu    Cu3+1 0.470310 0.901730 0.524580 0.927364
H1    H     H_    0.927691 0.195438 0.538187 0.185211
H2    H     H_    0.082334 0.800866 0.426625 0.184644
H3    H     H_    0.060043 0.946673 0.642446 0.188916
H4    H     H_    0.313529 0.099496 0.879983 0.169018
H5    H     H_    0.238523 0.461612 0.213023 0.145744
H6    H     H_    0.241579 0.250549 0.072610 0.144083
H7    H     H_    0.641048 0.909202 0.112574 0.149487
H8    H     H_    0.584481 0.560927 0.839127 0.196057
H9    H     H_    0.672716 0.772305 0.907961 0.133284
H10   H     H_    0.945358 0.094580 0.387748 0.189203
H11   H     H_    0.316912 0.673806 0.274927 0.170957
H12   H     H_    0.730950 0.169540 0.311480 0.116847
H13   H     H_    0.788716 0.344490 0.263172 0.179414
H14   H     H_    0.423508 0.333660 0.560646 0.116013
H15   H     H_    0.275761 0.841182 0.687411 0.130738
H16   H     H_    0.316847 0.485083 0.645965 0.152020
H17   H     H_    0.139117 0.196097 0.537573 0.174922
H18   H     H_    0.870593 0.111431 0.684239 0.032918
H19   H     H_    0.082081 0.108459 0.686793 0.110132
H20   H     H_    0.869987 0.799476 0.424903 0.227613
H21   H     H_    0.910969 0.863415 0.322179 0.148094
H22   H     H_    0.124674 0.862646 0.322034 0.156701
N1    N     N_R   0.574690 0.246280 0.438200 -0.176161
N2    N     N_R   0.426100 0.754320 0.561190 -0.211504
O1    O     O_R   0.537340 0.972510 0.318130 -0.580338
O2    O     O_R   0.487200 0.806530 0.359650 -0.607006
O3    O     O_R   0.707380 0.082980 0.479220 -0.590858
O4    O     O_R   0.657240 0.917000 0.520740 -0.553828
O5    O     O_R   0.512800 0.193470 0.640350 -0.536629
O6    O     O_R   0.462660 0.027490 0.681870 -0.591881
O7    O     O_R   0.342760 0.083000 0.479260 -0.595655
O8    O     O_R   0.292620 0.917020 0.520780 -0.600464
O9    O     O_3   0.828574 0.924005 0.649152 -0.558626
C39   C     C_3   0.785317 0.967927 0.768230 -0.329839
H23   H     H_    0.711716 0.031957 0.795011 0.163284
H24   H     H_    0.866631 0.012625 0.818450 0.140345
H25   H     H_    0.739055 0.889389 0.787692 0.188360
O10   O     O_3   0.626263 0.373826 0.806963 -0.586689
C40   C     C_3   0.732410 0.355373 0.842243 -0.343997
H26   H     H_    0.724830 0.260820 0.835010 0.137120
H27   H     H_    0.742906 0.423227 0.931399 0.158906
H28   H     H_    0.821061 0.368757 0.785331 0.193913
O11   O     O_3   0.775766 0.549680 0.279863 -0.592127
C41   C     C_3   0.737327 0.545288 0.182181 -0.354554
H29   H     H_    0.704445 0.633260 0.200325 0.168412
H30   H     H_    0.661351 0.468189 0.148364 0.168779
H31   H     H_    0.822163 0.530473 0.113879 0.190372
O12   O     O_3   0.178503 0.660886 0.758803 -0.576383
C42   C     C_3   0.073076 0.710261 0.752921 -0.335027
H32   H     H_    0.055775 0.678209 0.662999 0.161988
H33   H     H_    0.086422 0.811664 0.796551 0.152719
H34   H     H_    0.985054 0.679340 0.799657 0.198365
H35   H     H_    0.632308 0.721109 0.395079 0.208022
H36   H     H_    0.156687 0.095129 0.387049 0.187272

loop_
_geom_bond_atom_site_label_1
_geom_bond_atom_site_label_2
_ccdc_geom_bond_type
C2    C35   S    
O9    C39   S    
C23   O5    A    
C16   H11   S    
C7    C8    A    
C12   O4    A    
C11   C19   A    
C29   C30   A    
Cu2   O6    S    
C28   C29   A    
C41   H30   S    
C29   O11   S    
C30   H35   S    
C36   H18   S    
C15   C16   A    
C4    H22   S    
C34   C35   S    
C26   N2    A    
C32   H12   S    
C21   N2    A    
C33   O8    A    
C8    C9    A    
C39   H25   S    
C1    O1    A    
C41   H31   S    
C22   O12   S    
C42   H33   S    
C9    C10   A    
Cu2   O2    S    
C13   C14   A    
Cu1   O1    S    
C23   O6    A    
C34   H1    S    
C4    C37   S    
C6    C18   A    
C12   O3    A    
C34   H10   S    
C1    C19   S    
C39   H23   S    
C27   C31   A    
C31   N1    A    
C24   C25   A    
C10   C11   A    
Cu1   Cu2   S    
C21   H15   S    
O10   C40   S    
C5    C18   A    
C20   C28   A    
C25   C26   A    
C7    H7    S    
C2    C4    S    
C37   C38   S    
C18   H4    S    
C11   C16   A    
O11   C41   S    
C3    H3    S    
C1    O2    A    
Cu1   O5    S    
C41   H29   S    
C42   H34   S    
C5    C14   A    
C39   H24   S    
C2    C33   S    
C26   C30   A    
C7    C19   A    
C22   C24   A    
C25   C27   A    
C15   H5    S    
C40   H27   S    
C20   C32   A    
C35   H36   S    
C6    C17   A    
Cu2   O8    S    
C34   C38   S    
Cu1   O3    S    
C32   N1    A    
C20   H13   S    
C10   C13   A    
C40   H28   S    
C37   H21   S    
C24   H16   S    
Cu1   N1    S    
C5    H6    S    
Cu2   N2    S    
C13   C17   A    
C35   H17   S    
C36   C38   S    
C2    C3    S    
C4    H2    S    
C3    C36   S    
C6    C23   S    
C17   O10   S    
C31   H14   S    
C12   C38   S    
C37   H20   S    
C36   O9    S    
C33   O7    A    
C40   H26   S    
O12   C42   S    
C9    H8    S    
Cu2   O4    S    
C27   C28   A    
Cu1   O7    S    
C14   C15   A    
C42   H32   S    
C21   C22   A    
C8    H9    S    
C3    H19   S    
