data_mof_unit_32782.cif
_audit_creation_date              2012-12-11T15:56:38-0500
_audit_creation_method            fapswitch 2.2
_symmetry_space_group_name_H-M    P1
_symmetry_Int_Tables_number       1
_space_group_crystal_system       triclinic
_cell_length_a                    14.645473
_cell_length_b                    7.196412
_cell_length_c                    13.619166
_cell_angle_alpha                 90.032245
_cell_angle_beta                  100.069025
_cell_angle_gamma                 89.96751
_cell_volume                      1413.28157351

loop_
_atom_site_label
_atom_site_type_symbol
_atom_type_description
_atom_site_fract_x
_atom_site_fract_y
_atom_site_fract_z
_atom_type_partial_charge
O1    O     O_R   0.336930 0.638190 0.166330 -0.513776
O2    O     O_R   0.663070 0.361810 0.833670 -0.509578
O3    O     O_R   0.163070 0.138190 0.333670 -0.509146
O4    O     O_R   0.836930 0.861810 0.666330 -0.508334
O5    O     O_R   0.147900 0.305430 0.139630 -0.537631
O6    O     O_R   0.852100 0.694570 0.860370 -0.536189
O7    O     O_R   0.352100 0.805430 0.360370 -0.533122
O8    O     O_R   0.647900 0.194570 0.639630 -0.530523
C1    C     C_R   0.115299 0.477563 0.113049 0.704748
C2    C     C_R   0.884625 0.522423 0.887035 0.701763
C3    C     C_R   0.384592 0.977588 0.387066 0.725096
C4    C     C_R   0.615066 0.022458 0.613348 0.729533
O9    O     O_R   0.335280 0.308290 0.154310 -0.543674
O10   O     O_R   0.664720 0.691710 0.845690 -0.556270
O11   O     O_R   0.164720 0.808290 0.345690 -0.545734
O12   O     O_R   0.835280 0.191710 0.654310 -0.545306
O13   O     O_R   0.351790 0.140890 0.348460 -0.534865
O14   O     O_R   0.648210 0.859110 0.651540 -0.533904
O15   O     O_R   0.148210 0.640890 0.151540 -0.538748
O16   O     O_R   0.851790 0.359110 0.848460 -0.541241
C5    C     C_R   0.364469 0.477506 0.133941 0.714116
C6    C     C_R   0.636341 0.522039 0.867608 0.723497
C7    C     C_R   0.135094 0.977830 0.365878 0.712544
C8    C     C_R   0.864645 0.022119 0.633816 0.713632
O17   O     O_3   0.255200 0.472570 0.313680 -0.368088
O18   O     O_3   0.744800 0.527430 0.686320 -0.364515
O19   O     O_3   0.244800 0.972570 0.186320 -0.375825
O20   O     O_3   0.755200 0.027430 0.813680 -0.384626
V1    V     V_3+5 0.249040 0.196590 0.238190 1.459087
V2    V     V_3+5 0.750960 0.803410 0.761810 1.434353
V3    V     V_3+5 0.250960 0.696590 0.261810 1.460107
V4    V     V_3+5 0.749040 0.303410 0.738190 1.450608
C9    C     C_R   0.047369 0.835223 0.489029 -0.305028
C10   C     C_R   0.951686 0.164380 0.509900 -0.307507
C11   C     C_R   0.436506 0.353902 0.993664 -0.313068
C12   C     C_R   0.568847 0.634791 0.014393 -0.366693
H1    H     H_    0.083645 0.705776 0.482488 0.196651
H2    H     H_    0.915324 0.293748 0.516379 0.195903
H3    H     H_    0.387663 0.239621 0.986406 0.152437
H4    H     H_    0.624883 0.732027 0.028609 0.149997
C13   C     C_R   0.984564 0.843053 0.555915 0.437773
C14   C     C_R   0.014404 0.156455 0.442887 0.440295
C15   C     C_R   0.504842 0.357307 0.932536 0.482793
C16   C     C_R   0.503965 0.628325 0.079217 0.434409
C17   C     C_R   0.934412 0.008935 0.565965 -0.206225
C18   C     C_R   0.064866 0.990817 0.433204 -0.204928
C19   C     C_R   0.566964 0.508193 0.936536 -0.170792
C20   C     C_R   0.434629 0.489325 0.067109 -0.180712
C21   C     C_1   0.533590 0.008282 0.533602 -0.173423
C22   C     C_1   0.465586 0.991814 0.467423 -0.187003
C23   C     C_1   0.965930 0.508226 0.966988 -0.187895
C24   C     C_1   0.033943 0.491743 0.033147 -0.186288
O21   O     O_3   0.970600 0.683658 0.607913 -0.539816
C25   C     C_3   0.041563 0.668173 0.692504 0.109841
H5    H     H_    0.021503 0.748099 0.755340 0.118730
H6    H     H_    0.110373 0.719527 0.679406 0.099575
C26   C     C_3   0.053476 0.464832 0.722429 -0.706638
H7    H     H_    0.079593 0.385121 0.663195 0.222715
H8    H     H_    0.104010 0.452042 0.793086 0.167048
H9    H     H_    0.986190 0.405239 0.733285 0.231684
O22   O     O_3   0.027959 0.315458 0.390359 -0.539017
C27   C     C_3   0.956499 0.330453 0.306171 0.109802
H10   H     H_    0.888015 0.277703 0.319545 0.094143
H11   H     H_    0.976525 0.251423 0.243022 0.117152
C28   C     C_3   0.943588 0.533858 0.276612 -0.714820
H12   H     H_    0.010439 0.594647 0.265048 0.231175
H13   H     H_    0.892384 0.546344 0.206430 0.163495
H14   H     H_    0.917790 0.612719 0.336351 0.222088
O23   O     O_3   0.520230 0.200954 0.879493 -0.565636
C29   C     C_3   0.559124 0.060363 0.947146 0.120607
H15   H     H_    0.575671 0.943466 0.901052 0.168751
H16   H     H_    0.507045 0.008639 0.990928 0.146955
C30   C     C_3   0.649185 0.117327 0.018691 -0.744202
H17   H     H_    0.636293 0.231722 0.069155 0.196018
H18   H     H_    0.677225 0.001644 0.068093 0.173315
H19   H     H_    0.704165 0.158859 0.976966 0.237596
O24   O     O_3   0.508802 0.761160 0.153225 -0.549960
C31   C     C_3   0.572267 0.702580 0.238032 0.103371
H20   H     H_    0.629235 0.612092 0.220187 0.096678
H21   H     H_    0.534057 0.624811 0.288595 0.124039
C32   C     C_3   0.617199 0.872720 0.292693 -0.718878
H22   H     H_    0.563254 0.972624 0.306774 0.222449
H23   H     H_    0.659612 0.830575 0.364991 0.176980
H24   H     H_    0.662768 0.942451 0.246907 0.206073

loop_
_geom_bond_atom_site_label_1
_geom_bond_atom_site_label_2
_ccdc_geom_bond_type
O17   V3    S    
O1    C5    A    
O19   V1    S    
O13   V1    S    
C30   H17   S    
O3    C7    A    
C10   C14   A    
O15   V3    S    
C4    C21   S    
O21   C25   S    
O7    C3    A    
C8    C17   S    
O9    V1    S    
C16   O24   S    
O4    C8    A    
C31   H21   S    
C26   H8    S    
C11   C20   A    
O1    V3    S    
C12   C19   A    
O2    V4    S    
C14   C18   A    
O3    V1    S    
C27   H11   S    
C1    O15   A    
C2    O16   A    
C28   H13   S    
O2    C6    A    
C29   H15   S    
O14   V2    S    
C11   C15   A    
C5    C20   S    
O11   C7    A    
C6    C19   S    
O12   C8    A    
C7    C18   S    
C9    C18   A    
C30   H18   S    
O23   C29   S    
C1    C24   S    
O10   V2    S    
C2    C23   S    
C32   H23   S    
C32   H22   S    
O5    V1    S    
C25   H6    S    
O7    V3    S    
C23   C24   T    
O8    V4    S    
C12   H4    S    
O18   V4    S    
C26   H9    S    
O24   C31   S    
C9    H1    S    
C11   H3    S    
O5    C1    A    
C27   H10   S    
O8    C4    A    
C28   H14   S    
C29   C30   S    
O9    C5    A    
C10   C17   A    
C14   O22   S    
C13   O21   S    
O6    V2    S    
C28   H12   S    
C30   H19   S    
C12   C16   A    
C32   H24   S    
O16   V4    S    
C25   H5    S    
C3    O13   A    
C27   C28   S    
C10   H2    S    
O6    C2    A    
O11   V3    S    
O12   V4    S    
C9    C13   A    
O10   C6    A    
O20   V2    S    
C3    C22   S    
C31   H20   S    
C31   C32   S    
C26   H7    S    
O22   C27   S    
C15   O23   S    
C21   C22   T    
C4    O14   A    
C13   C17   A    
C29   H16   S    
C15   C19   A    
O4    V2    S    
C16   C20   A    
C25   C26   S    
