data_mof_unit_22578.cif
_audit_creation_date              2012-12-10T17:14:42-0500
_audit_creation_method            fapswitch 2.2
_symmetry_space_group_name_H-M    P1
_symmetry_Int_Tables_number       1
_space_group_crystal_system       triclinic
_cell_length_a                    10.626085
_cell_length_b                    12.956184
_cell_length_c                    11.834947
_cell_angle_alpha                 100.089036
_cell_angle_beta                  92.123387
_cell_angle_gamma                 94.66642
_cell_volume                      1596.65941082

loop_
_atom_site_label
_atom_site_type_symbol
_atom_type_description
_atom_site_fract_x
_atom_site_fract_y
_atom_site_fract_z
_atom_type_partial_charge
C1    C     C_R   0.511345 0.300373 0.477717 0.799854
C2    C     C_R   0.490940 0.700144 0.522416 0.805416
C3    C     C_R   0.557226 0.141135 0.560116 0.105031
C4    C     C_R   0.448885 0.861025 0.441513 0.101829
C5    C     C_R   0.524139 0.032768 0.554046 0.058302
C6    C     C_R   0.483717 0.969096 0.447419 0.057227
C7    C     C_R   0.375837 0.396494 0.029894 0.162655
C8    C     C_R   0.620682 0.606275 0.970622 0.158039
C9    C     C_R   0.389134 0.409596 0.149483 -0.003024
C10   C     C_R   0.606768 0.593777 0.851063 -0.004479
C11   C     C_R   0.554665 0.545880 0.155186 0.297214
C12   C     C_R   0.445155 0.454207 0.844779 0.298537
C13   C     C_R   0.544744 0.538902 0.032170 -0.073173
C14   C     C_R   0.454335 0.461704 0.967870 -0.070311
C15   C     C_R   0.259860 0.499501 0.501318 0.787541
C16   C     C_R   0.740071 0.499255 0.498441 0.783754
C17   C     C_3   0.041839 0.507208 0.606858 0.352729
C18   C     C_3   0.958151 0.489390 0.392070 0.353699
C19   C     C_3   0.950033 0.415497 0.544103 -0.216473
C20   C     C_3   0.049736 0.581210 0.454786 -0.216146
C21   C     C_3   0.876476 0.497725 0.496082 -0.073872
C22   C     C_3   0.123354 0.499238 0.502979 -0.068857
C23   C     C_3   0.967360 0.589511 0.561463 -0.268374
C24   C     C_3   0.032705 0.407238 0.437692 -0.260185
C25   C     C_R   0.476739 0.814504 0.538028 -0.158739
C26   C     C_R   0.530513 0.186921 0.462844 -0.163747
C27   C     C_R   0.485842 0.013258 0.347420 -0.227492
C28   C     C_R   0.524638 0.988135 0.653680 -0.230709
C29   C     C_R   0.514030 0.121585 0.352829 0.228569
C30   C     C_R   0.499653 0.879541 0.647899 0.226344
Cu1   Cu    Cu3+1 0.509400 0.507730 0.615930 0.921673
Cu2   Cu    Cu3+1 0.490600 0.492270 0.384070 0.919013
H1    H     H_    0.906984 0.348405 0.580525 0.136537
H2    H     H_    0.092336 0.648032 0.417623 0.136393
H3    H     H_    0.938614 0.662865 0.613575 0.141837
H4    H     H_    0.061707 0.333766 0.386038 0.140989
H5    H     H_    0.468610 0.962289 0.264947 0.166217
H6    H     H_    0.542353 0.038708 0.736343 0.165783
H7    H     H_    0.662381 0.645480 0.805706 0.161097
H8    H     H_    0.328669 0.361678 0.195346 0.150623
N1    N     N_R   0.523540 0.519360 0.790140 -0.205243
N2    N     N_R   0.476460 0.480640 0.209860 -0.203875
O1    O     O_R   0.506670 0.354460 0.582000 -0.581463
O2    O     O_R   0.493330 0.645540 0.418000 -0.581624
O3    O     O_R   0.490800 0.341410 0.386200 -0.574431
O4    O     O_R   0.509200 0.658590 0.613800 -0.572051
O5    O     O_R   0.324790 0.506500 0.597880 -0.592420
O6    O     O_R   0.675210 0.493500 0.402120 -0.599253
O7    O     O_R   0.308910 0.493440 0.402080 -0.584055
O8    O     O_R   0.691090 0.506560 0.597920 -0.581633
N3    N     N_2   0.092048 0.518613 0.724084 -0.425499
H9    H     H_    0.146610 0.588714 0.751366 0.253808
C31   C     C_3   0.001268 0.494074 0.805532 -0.732830
H10   H     H_    0.046149 0.512673 0.893824 0.221456
H11   H     H_    0.969054 0.408860 0.786768 0.238391
H12   H     H_    0.918476 0.540514 0.801171 0.237965
N4    N     N_2   0.909599 0.477713 0.274249 -0.425590
H13   H     H_    0.841489 0.415332 0.251849 0.257615
C32   C     C_3   0.005374 0.479036 0.190735 -0.726063
H14   H     H_    0.959411 0.469394 0.103332 0.217527
H15   H     H_    0.066082 0.413435 0.192986 0.221242
H16   H     H_    0.064777 0.555234 0.208197 0.241386
C33   C     C_3   0.371206 0.799104 0.337589 -0.839099
H17   H     H_    0.313871 0.730397 0.359167 0.239462
H18   H     H_    0.301074 0.848366 0.306855 0.213814
H19   H     H_    0.433416 0.772758 0.267000 0.235957
C34   C     C_3   0.632180 0.204319 0.665006 -0.837002
H20   H     H_    0.687182 0.274674 0.644637 0.241850
H21   H     H_    0.568351 0.228276 0.735085 0.235162
H22   H     H_    0.704324 0.156876 0.695871 0.212451
N5    N     N_2   0.489674 0.835122 0.750486 -0.395120
H23   H     H_    0.408509 0.785744 0.750898 0.261947
C35   C     C_3   0.526149 0.898555 0.862005 -0.745911
H24   H     H_    0.519561 0.848140 0.928632 0.219862
H25   H     H_    0.461045 0.961238 0.883396 0.223813
H26   H     H_    0.625408 0.933309 0.863585 0.237397
N6    N     N_2   0.532893 0.165308 0.250546 -0.393486
H27   H     H_    0.606540 0.223659 0.259693 0.265671
C36   C     C_3   0.529293 0.096684 0.139518 -0.752549
H28   H     H_    0.548532 0.144550 0.071916 0.229108
H29   H     H_    0.434243 0.053602 0.119135 0.233815
H30   H     H_    0.603201 0.040580 0.138090 0.227904
C37   C     C_3   0.346420 0.374704 0.775970 -0.675714
H31   H     H_    0.337845 0.371082 0.684483 0.260859
H32   H     H_    0.367116 0.294083 0.784726 0.212077
H33   H     H_    0.251008 0.392241 0.804209 0.236661
C38   C     C_3   0.653299 0.625552 0.223952 -0.678749
H34   H     H_    0.631467 0.706382 0.216558 0.200646
H35   H     H_    0.662784 0.628403 0.315282 0.261063
H36   H     H_    0.748473 0.608911 0.194455 0.244174
N7    N     N_2   0.278432 0.320006 0.975980 -0.444386
H37   H     H_    0.190220 0.334925 0.005093 0.247587
C39   C     C_3   0.303793 0.211684 0.974416 -0.734251
H38   H     H_    0.229529 0.158688 0.919657 0.231752
H39   H     H_    0.302742 0.193287 0.062567 0.237873
H40   H     H_    0.396758 0.196658 0.937871 0.232500
N8    N     N_2   0.705954 0.691938 0.026473 -0.445033
H41   H     H_    0.677675 0.764384 0.017331 0.249506
C40   C     C_3   0.838123 0.683320 0.004560 -0.731629
H42   H     H_    0.896846 0.742777 0.068075 0.237115
H43   H     H_    0.857629 0.698517 0.917145 0.216585
H44   H     H_    0.865153 0.604068 0.013579 0.241635

loop_
_geom_bond_atom_site_label_1
_geom_bond_atom_site_label_2
_ccdc_geom_bond_type
C38   H34   S    
C33   H18   S    
C16   C21   S    
C27   C29   A    
C18   C21   S    
C35   H25   S    
C35   H24   S    
C15   O5    A    
C17   N3    S    
C30   N5    S    
Cu1   Cu2   S    
N6    H27   S    
C2    O4    A    
C4    C33   S    
C9    N2    A    
C17   C23   S    
Cu1   O1    S    
C18   C24   S    
C19   C21   S    
C16   O8    A    
C5    C6    A    
N4    C32   S    
C11   N2    A    
Cu2   O3    S    
C1    O1    A    
C15   C22   S    
C40   H42   S    
C11   C38   S    
Cu1   O4    S    
C7    C14   A    
C6    C27   A    
C20   H2    S    
N6    C36   S    
C33   H19   S    
C32   H14   S    
C39   H39   S    
Cu1   O5    S    
C13   C14   A    
C10   N1    A    
Cu2   O6    S    
C16   O6    A    
N8    C40   S    
N8    H41   S    
C31   H11   S    
C32   H15   S    
C34   H20   S    
C36   H28   S    
C4    C6    A    
C19   H1    S    
C2    O2    A    
N7    H37   S    
C36   H29   S    
C31   H10   S    
C9    H8    S    
N3    H9    S    
C12   C37   S    
C10   H7    S    
N3    C31   S    
C8    N8    S    
C12   N1    A    
N7    C39   S    
C5    C28   A    
C18   N4    S    
C37   H31   S    
C20   C23   S    
C28   H6    S    
C7    N7    S    
C37   H33   S    
Cu2   O2    S    
C39   H38   S    
C24   H4    S    
C37   H32   S    
C20   C22   S    
C39   H40   S    
C23   H3    S    
C21   C23   S    
C1    C26   S    
C35   H26   S    
C22   C24   S    
Cu1   O8    S    
C4    C25   A    
N5    C35   S    
C31   H12   S    
C25   C30   A    
C7    C9    A    
C32   H16   S    
Cu1   N1    S    
C40   H43   S    
C3    C26   A    
C3    C34   S    
C12   C14   A    
C3    C5    A    
C36   H30   S    
C17   C22   S    
C34   H22   S    
C28   C30   A    
C19   C24   S    
N5    H23   S    
C11   C13   A    
C1    O3    A    
N4    H13   S    
C27   H5    S    
C17   C19   S    
C2    C25   S    
C18   C20   S    
C15   O7    A    
Cu2   O7    S    
C33   H17   S    
C8    C13   A    
C40   H44   S    
C29   N6    S    
C26   C29   A    
C8    C10   A    
C38   H36   S    
C38   H35   S    
Cu2   N2    S    
C34   H21   S    
