data_mof_unit_39287.cif
_audit_creation_date              2012-12-11T17:07:23-0500
_audit_creation_method            fapswitch 2.2
_symmetry_space_group_name_H-M    P1
_symmetry_Int_Tables_number       1
_space_group_crystal_system       triclinic
_cell_length_a                    6.993391
_cell_length_b                    14.470234
_cell_length_c                    16.156299
_cell_angle_alpha                 90.082558
_cell_angle_beta                  89.533557
_cell_angle_gamma                 90.203263
_cell_volume                      1634.88680563

loop_
_atom_site_label
_atom_site_type_symbol
_atom_type_description
_atom_site_fract_x
_atom_site_fract_y
_atom_site_fract_z
_atom_type_partial_charge
O1    O     O_R   0.505720 0.583900 0.413310 -0.534370
O2    O     O_R   0.175940 0.594920 0.586080 -0.535495
O3    O     O_R   0.005640 0.416100 0.586690 -0.541875
C1    C     C_R   0.344230 0.616062 0.615253 0.717143
O4    O     O_R   0.176000 0.594930 0.413930 -0.523118
O5    O     O_R   0.005700 0.416110 0.413310 -0.550047
C2    C     C_R   0.345250 0.616929 0.385315 0.738498
O6    O     O_R   0.505660 0.583890 0.586690 -0.538853
O7    O     O_3   0.339200 0.441330 0.500000 -0.381985
V1    V     V_3+5 0.064350 0.510880 0.500000 1.469884
O8    O     O_R   0.675980 0.405080 0.413920 -0.541605
C3    C     C_R   0.845150 0.382619 0.385742 0.680865
O9    O     O_R   0.675920 0.405070 0.586070 -0.545982
C4    C     C_R   0.843335 0.383089 0.614307 0.681939
V2    V     V_3+5 0.564340 0.489120 0.500000 1.442575
O10   O     O_3   0.839360 0.558670 0.500000 -0.346138
C5    C     C_R   0.639400 0.411303 0.769961 -0.158146
C6    C     C_R   0.564256 0.434203 0.847106 -0.134550
C7    C     C_R   0.621395 0.385818 0.916466 -0.075953
C8    C     C_R   0.744951 0.310808 0.908415 0.216420
C9    C     C_R   0.794391 0.275452 0.829086 0.028092
C10   C     C_R   0.758159 0.332787 0.759303 0.043428
C11   C     C_R   0.891097 0.189608 0.818339 -0.168156
C12   C     C_R   0.983226 0.171128 0.741036 0.058501
C13   C     C_R   0.960678 0.232817 0.673129 0.067412
C14   C     C_R   0.849588 0.313982 0.682386 -0.162562
C15   C     C_R   0.100537 0.092438 0.729537 -0.106759
C16   C     C_R   0.187085 0.073419 0.653496 -0.069043
C17   C     C_R   0.158611 0.131657 0.586671 -0.092795
C18   C     C_R   0.046353 0.210237 0.595907 -0.131092
H1    H     H_    0.473817 0.494378 0.853912 0.155258
H2    H     H_    0.582388 0.411667 0.977212 0.154280
H3    H     H_    0.129167 0.044474 0.778708 0.152842
C19   C     C_R   0.715913 0.236015 0.198816 0.111073
C20   C     C_R   0.878758 0.181917 0.185881 -0.035554
C21   C     C_R   0.032700 0.196576 0.239298 -0.115609
H4    H     H_    0.155240 0.153021 0.233735 0.178284
C22   C     C_R   0.022818 0.261989 0.303862 -0.162239
C23   C     C_R   0.857315 0.315368 0.316634 -0.083606
C24   C     C_R   0.706907 0.303127 0.260954 0.062028
C25   C     C_3   0.503379 0.281289 0.280062 -0.444955
C26   C     C_3   0.515731 0.205384 0.215299 0.081825
C27   C     C_R   0.509762 0.744393 0.691211 0.061636
C28   C     C_R   0.352738 0.684827 0.683120 -0.100914
C29   C     C_R   0.207430 0.690206 0.743842 -0.139427
H5    H     H_    0.086588 0.643414 0.741676 0.147059
C30   C     C_R   0.223428 0.752111 0.811070 -0.072069
H6    H     H_    0.118364 0.751561 0.859769 0.194836
C31   C     C_R   0.378851 0.812791 0.818012 -0.094126
C32   C     C_R   0.523021 0.805279 0.758358 0.081595
C33   C     C_3   0.724886 0.779492 0.772866 0.422151
C34   C     C_3   0.715084 0.718013 0.697058 -0.415894
H7    H     H_    0.734950 0.643308 0.710433 0.168171
H8    H     H_    0.799900 0.743873 0.643351 0.216488
C35   C     C_R   0.506390 0.749668 0.310905 0.070704
C36   C     C_R   0.353748 0.687164 0.318430 -0.132770
C37   C     C_R   0.204344 0.695237 0.260842 -0.115354
H9    H     H_    0.082619 0.649114 0.264343 0.122127
C38   C     C_R   0.216358 0.758648 0.194725 -0.122761
H10   H     H_    0.102876 0.759931 0.149654 0.137504
C39   C     C_R   0.377718 0.816223 0.184265 -0.127051
C40   C     C_R   0.518638 0.812370 0.245526 0.126582
C41   C     C_3   0.729863 0.799462 0.237528 0.084415
C42   C     C_3   0.715947 0.732228 0.310548 0.089525
H11   H     H_    0.749797 0.659693 0.293296 0.055300
O11   O     O_R   0.229140 0.916090 0.913340 -0.538846
O12   O     O_R   0.558860 0.905090 0.086080 -0.531214
O13   O     O_R   0.729100 0.083920 0.086690 -0.524725
C43   C     C_R   0.389633 0.882790 0.114492 0.759790
O14   O     O_R   0.558860 0.905090 0.913930 -0.512586
O15   O     O_R   0.729100 0.083920 0.913310 -0.532146
C44   C     C_R   0.390047 0.881657 0.886330 0.720734
O16   O     O_R   0.229140 0.916080 0.086720 -0.533678
O17   O     O_3   0.395570 0.058660 0.000020 -0.376836
V3    V     V_3+5 0.670450 0.989140 0.000000 1.584083
O18   O     O_R   0.058810 0.094980 0.913910 -0.538794
C45   C     C_R   0.891896 0.118164 0.885867 0.783624
O19   O     O_R   0.058810 0.094980 0.086060 -0.536061
C46   C     C_R   0.889838 0.113185 0.117546 0.819960
V4    V     V_3+5 0.170450 0.010950 0.999970 1.540902
O20   O     O_3   0.895460 0.941370 0.999990 -0.353978
H12   H     H_    0.223706 0.115900 0.527298 0.149861
H13   H     H_    0.140428 0.267500 0.346544 0.135840
H14   H     H_    0.407714 0.338888 0.261950 0.151781
H15   H     H_    0.482602 0.256052 0.344502 0.206403
H16   H     H_    0.421956 0.216542 0.161034 0.122658
Br1   Br    Br    0.502994 0.082598 0.265270 -0.498035
Br2   Br    Br    0.752689 0.709431 0.875730 -0.619444
Br3   Br    Br    0.884144 0.887800 0.760433 -0.590479
H17   H     H_    0.604312 0.457239 0.719958 0.131113
Br4   Br    Br    0.870145 0.914065 0.255879 -0.411342
H18   H     H_    0.768496 0.764735 0.178345 0.059653
Br5   Br    Br    0.827907 0.771514 0.414980 -0.411992
Br6   Br    Br    0.901176 0.290118 0.002573 -0.634034
H19   H     H_    0.275606 0.012631 0.646330 0.148809
H20   H     H_    0.025892 0.252139 0.541355 0.111393

loop_
_geom_bond_atom_site_label_1
_geom_bond_atom_site_label_2
_ccdc_geom_bond_type
C35   C36   A    
C22   H13   S    
C25   C26   S    
C7    C8    A    
C19   C26   S    
C12   C15   A    
C1    O6    A    
C30   C31   A    
C29   H5    S    
C15   H3    S    
O13   V3    S    
C17   C18   A    
C16   H19   S    
C19   C24   A    
C21   H4    S    
C42   Br5   S    
C6    C7    A    
O5    C3    A    
C22   C23   A    
O19   V4    S    
C27   C34   S    
C37   C38   A    
V2    O10   S    
C35   C40   A    
C36   C37   A    
C19   C20   A    
C20   C46   S    
C18   H20   S    
O8    V2    S    
O11   C44   A    
C20   C21   A    
C31   C44   S    
C41   H18   S    
C11   C12   A    
C43   O16   A    
C26   H16   S    
O7    V1    S    
O13   C46   A    
C38   H10   S    
O17   V4    S    
O9    C4    A    
C2    C36   S    
C7    H2    S    
C34   H8    S    
C5    C6    A    
O18   C45   A    
C29   C30   A    
C38   C39   A    
O17   V3    S    
C33   C34   S    
C12   C13   A    
C23   C24   A    
O4    C2    A    
O19   C46   A    
V3    O20   S    
C1    C28   S    
C13   C14   A    
C25   H14   S    
C11   C45   S    
O12   C43   A    
O2    C1    A    
C27   C28   A    
C40   C41   S    
C30   H6    S    
C35   C42   S    
C32   C33   S    
C34   H7    S    
C4    C14   S    
O3    C4    A    
O1    V2    S    
C24   C25   S    
O6    V2    S    
C9    C11   A    
O12   V3    S    
O2    V1    S    
O15   C45   A    
C25   H15   S    
C28   C29   A    
C39   C43   S    
C13   C18   A    
C8    Br6   S    
C16   C17   A    
O1    C2    A    
C5    H17   S    
O18   V4    S    
V4    O20   S    
C33   Br2   S    
O5    V1    S    
O8    C3    A    
C27   C32   A    
C26   Br1   S    
O11   V4    S    
C5    C10   A    
C42   H11   S    
C3    C23   S    
O9    V2    S    
O7    V2    S    
O4    V1    S    
O3    V1    S    
V1    O10   S    
C33   Br3   S    
O15   V3    S    
C37   H9    S    
C21   C22   A    
O16   V4    S    
C39   C40   A    
C41   C42   S    
C17   H12   S    
C8    C9    A    
C31   C32   A    
C10   C14   A    
C41   Br4   S    
O14   V3    S    
O14   C44   A    
C6    H1    S    
C9    C10   A    
C15   C16   A    
