data_mof_unit_60846.cif
_audit_creation_date              2012-12-10T17:12:09-0500
_audit_creation_method            fapswitch 2.2
_symmetry_space_group_name_H-M    P1
_symmetry_Int_Tables_number       1
_space_group_crystal_system       triclinic
_cell_length_a                    30.222332
_cell_length_b                    30.222167
_cell_length_c                    55.774448
_cell_angle_alpha                 89.999934
_cell_angle_beta                  89.999898
_cell_angle_gamma                 90.0007
_cell_volume                      50943.5087565

loop_
_atom_site_label
_atom_site_type_symbol
_atom_type_description
_atom_site_fract_x
_atom_site_fract_y
_atom_site_fract_z
_atom_type_partial_charge
C1    C     C_R   0.085432 0.499966 0.500042 0.895308
C2    C     C_R   0.500000 0.085473 0.500000 0.900868
C3    C     C_R   0.914568 0.500034 0.500042 0.895306
C4    C     C_R   0.500000 0.914527 0.500000 0.900867
C5    C     C_R   0.585453 0.000000 0.000000 0.900979
C6    C     C_R   0.000034 0.585434 0.000043 0.895491
C7    C     C_R   0.414547 1.000000 0.000000 0.900980
C8    C     C_R   0.999966 0.414566 0.000044 0.895487
C9    C     C_R   0.988798 0.461754 0.388565 -0.108544
C10   C     C_R   0.527608 0.028936 0.389338 -0.098408
C11   C     C_R   0.011202 0.538247 0.388565 -0.108543
C12   C     C_R   0.472392 0.971066 0.389338 -0.098408
C13   C     C_R   0.024889 0.531283 0.610719 -0.101638
C14   C     C_R   0.527621 0.971079 0.610662 -0.098473
C15   C     C_R   0.975110 0.468717 0.610719 -0.101637
C16   C     C_R   0.472378 0.028923 0.610662 -0.098473
C17   C     C_R   0.473542 0.970031 0.889225 -0.100347
C18   C     C_R   0.038316 0.489044 0.888561 -0.108868
C19   C     C_R   0.526458 0.029967 0.889225 -0.100347
C20   C     C_R   0.961684 0.510956 0.888561 -0.108867
C21   C     C_R   0.473524 0.029951 0.110774 -0.100149
C22   C     C_R   0.031082 0.474857 0.110708 -0.101559
C23   C     C_R   0.526475 0.970048 0.110774 -0.100147
C24   C     C_R   0.968917 0.525141 0.110708 -0.101562
C25   C     C_R   0.988607 0.461182 0.413601 0.245358
C26   C     C_R   0.527981 0.029049 0.414404 0.226809
C27   C     C_R   0.011394 0.538818 0.413601 0.245356
C28   C     C_R   0.472020 0.970951 0.414404 0.226805
C29   C     C_R   0.025154 0.531600 0.585683 0.235047
C30   C     C_R   0.527990 0.970962 0.585596 0.226910
C31   C     C_R   0.974845 0.468400 0.585683 0.235042
C32   C     C_R   0.472009 0.029039 0.585596 0.226916
C33   C     C_R   0.473164 0.969877 0.914290 0.228362
C34   C     C_R   0.038890 0.488853 0.913597 0.245274
C35   C     C_R   0.526836 0.030123 0.914290 0.228361
C36   C     C_R   0.961110 0.511148 0.913597 0.245272
C37   C     C_R   0.473148 0.030109 0.085710 0.228419
C38   C     C_R   0.031395 0.474594 0.085671 0.234417
C39   C     C_R   0.526851 0.969891 0.085710 0.228418
C40   C     C_R   0.968604 0.525404 0.085671 0.234425
C41   C     C_R   0.000000 0.500000 0.426795 -0.170964
C42   C     C_R   0.500000 0.000000 0.427279 -0.149688
C43   C     C_R   0.999999 0.500000 0.572759 -0.151892
C44   C     C_R   0.500000 0.000000 0.572721 -0.149593
C45   C     C_R   0.500000 1.000000 0.927207 -0.150622
C46   C     C_R   1.000000 0.500000 0.926793 -0.170971
C47   C     C_R   0.500000 1.000000 0.072792 -0.150801
C48   C     C_R   1.000000 0.499999 0.072752 -0.151663
C49   C     C_R   0.000000 0.500000 0.376016 0.214740
C50   C     C_R   0.500000 0.000001 0.376673 0.211422
C51   C     C_R   0.999999 0.500000 0.623286 0.216179
C52   C     C_R   0.500000 0.000002 0.623327 0.211506
C53   C     C_R   0.500000 0.999999 0.876565 0.212643
C54   C     C_R   1.000000 0.500000 0.876013 0.215008
C55   C     C_R   0.500000 1.000000 0.123434 0.212586
C56   C     C_R   1.000000 0.499999 0.123277 0.216282
C57   C     C_R   0.500000 0.585845 0.500000 0.816806
C58   C     C_R   0.414110 0.500004 0.500003 0.816998
C59   C     C_R   0.500000 0.414154 0.500000 0.816808
C60   C     C_R   0.585890 0.499996 0.500003 0.816998
C61   C     C_R   0.000002 0.085887 0.000003 0.816568
C62   C     C_R   0.914135 0.000000 0.000000 0.816284
C63   C     C_R   0.999997 0.914112 0.000003 0.816569
C64   C     C_R   0.085864 1.000000 1.000000 0.816284
C65   C     C_R   0.342411 0.489667 0.521055 -0.223329
C66   C     C_R   0.516082 0.342589 0.519940 -0.222928
C67   C     C_R   0.657589 0.510336 0.521054 -0.223329
C68   C     C_R   0.483914 0.657410 0.519939 -0.222927
C69   C     C_R   0.342380 0.510301 0.478994 -0.222276
C70   C     C_R   0.516086 0.657411 0.480061 -0.222490
C71   C     C_R   0.657620 0.489696 0.478994 -0.222277
C72   C     C_R   0.483918 0.342589 0.480060 -0.222491
C73   C     C_R   0.842508 0.014445 0.020305 -0.221318
C74   C     C_R   0.010779 0.842425 0.020990 -0.222238
C75   C     C_R   0.157492 0.985556 0.020305 -0.221316
C76   C     C_R   0.989214 0.157575 0.020989 -0.222237
C77   C     C_R   0.842508 0.985556 0.979695 -0.220584
C78   C     C_R   0.010751 0.157608 0.979061 -0.221327
C79   C     C_R   0.157492 0.014443 0.979695 -0.220587
C80   C     C_R   0.989255 0.842392 0.979060 -0.221326
C81   C     C_R   0.365623 0.499998 0.500018 -0.076571
C82   C     C_R   0.500000 0.365754 0.500000 -0.073161
C83   C     C_R   0.634377 0.500002 0.500018 -0.076569
C84   C     C_R   0.500000 0.634246 0.500000 -0.073159
C85   C     C_R   0.865698 0.000000 0.000000 -0.073008
C86   C     C_R   0.000003 0.865631 0.000018 -0.074818
C87   C     C_R   0.134302 1.000000 1.000000 -0.073008
C88   C     C_R   0.999996 0.134368 0.000018 -0.074815
C89   C     C_R   0.296180 0.510541 0.478909 0.104225
C90   C     C_R   0.483433 0.296383 0.480034 0.106628
C91   C     C_R   0.703820 0.489455 0.478910 0.104225
C92   C     C_R   0.516571 0.703617 0.480034 0.106628
C93   C     C_R   0.296207 0.489315 0.521151 0.105838
C94   C     C_R   0.483428 0.703617 0.519966 0.106915
C95   C     C_R   0.703793 0.510689 0.521150 0.105838
C96   C     C_R   0.516567 0.296383 0.519967 0.106914
C97   C     C_R   0.796299 0.985129 0.979646 0.105287
C98   C     C_R   0.989005 0.796192 0.978978 0.104581
C99   C     C_R   0.203701 0.014871 0.979646 0.105287
C100  C     C_R   0.011002 0.203808 0.978979 0.104582
C101  C     C_R   0.796299 0.014873 0.020354 0.105719
C102  C     C_R   0.988858 0.203780 0.021083 0.106108
C103  C     C_R   0.203701 0.985127 0.020354 0.105719
C104  C     C_R   0.011135 0.796220 0.021084 0.106108
C105  C     C_R   0.272818 0.499914 0.500034 0.103659
C106  C     C_R   0.500000 0.272997 0.500000 0.103969
C107  C     C_R   0.727182 0.500087 0.500034 0.103659
C108  C     C_R   0.500000 0.727003 0.500000 0.103968
C109  C     C_R   0.772915 0.000001 1.000000 0.103993
C110  C     C_R   0.000084 0.772829 0.000035 0.103717
C111  C     C_R   0.227085 0.999999 1.000000 0.103993
C112  C     C_R   0.999916 0.227171 0.000035 0.103718
C113  C     C_R   0.273064 0.521261 0.458018 -0.202542
C114  C     C_R   0.466555 0.273282 0.460371 -0.203241
C115  C     C_R   0.726936 0.478732 0.458019 -0.202543
C116  C     C_R   0.533454 0.726718 0.460373 -0.203241
C117  C     C_R   0.273110 0.478420 0.542026 -0.204699
C118  C     C_R   0.466546 0.726717 0.539627 -0.203718
C119  C     C_R   0.726889 0.521587 0.542025 -0.204698
C120  C     C_R   0.533445 0.273282 0.539629 -0.203718
C121  C     C_R   0.773192 0.969983 0.959572 -0.200806
C122  C     C_R   0.977829 0.773075 0.958158 -0.202122
C123  C     C_R   0.226808 0.030016 0.959572 -0.200806
C124  C     C_R   0.022184 0.226925 0.958160 -0.202122
C125  C     C_R   0.773193 0.030019 0.040427 -0.201726
C126  C     C_R   0.977508 0.226875 0.041887 -0.204129
C127  C     C_R   0.226807 0.969982 0.040427 -0.201725
C128  C     C_R   0.022479 0.773124 0.041889 -0.204128
C129  C     C_R   0.000000 0.500000 0.453598 0.880619
C130  C     C_R   0.500000 1.000000 0.453772 0.889994
C131  C     C_R   1.000000 0.500000 0.546244 0.893672
C132  C     C_R   0.500000 0.000000 0.546228 0.889962
C133  C     C_R   0.500000 0.000000 0.953746 0.891979
C134  C     C_R   1.000000 0.500000 0.953598 0.880509
C135  C     C_R   0.500000 1.000000 0.046254 0.891937
C136  C     C_R   1.000000 0.500000 0.046242 0.894038
C137  C     C_R   0.227017 0.521516 0.457931 -0.104718
C138  C     C_R   0.465890 0.227234 0.460394 -0.106389
C139  C     C_R   0.772983 0.478477 0.457932 -0.104719
C140  C     C_R   0.534118 0.772766 0.460396 -0.106389
C141  C     C_R   0.227056 0.477865 0.542088 -0.106790
C142  C     C_R   0.465882 0.772765 0.539604 -0.106407
C143  C     C_R   0.772943 0.522143 0.542087 -0.106791
C144  C     C_R   0.534109 0.227235 0.539606 -0.106408
C145  C     C_R   0.727141 0.969400 0.959559 -0.102804
C146  C     C_R   0.977567 0.727027 0.958073 -0.104753
C147  C     C_R   0.272860 0.030599 0.959559 -0.102803
C148  C     C_R   0.022447 0.272973 0.958075 -0.104755
C149  C     C_R   0.727141 0.030603 0.040440 -0.103121
C150  C     C_R   0.976957 0.272930 0.041947 -0.106699
C151  C     C_R   0.272858 0.969398 0.040441 -0.103121
C152  C     C_R   0.023030 0.727070 0.041949 -0.106698
C153  C     C_R   0.202953 0.510839 0.478778 0.050368
C154  C     C_R   0.482502 0.203131 0.480059 0.049988
C155  C     C_R   0.797047 0.489158 0.478778 0.050367
C156  C     C_R   0.517502 0.796869 0.480060 0.049987
C157  C     C_R   0.202964 0.488473 0.521243 0.051043
C158  C     C_R   0.482498 0.796868 0.519940 0.050091
C159  C     C_R   0.797036 0.511531 0.521242 0.051042
C160  C     C_R   0.517498 0.203131 0.519941 0.050092
C161  C     C_R   0.703046 0.984310 0.979621 0.048917
C162  C     C_R   0.988694 0.702963 0.978851 0.050292
C163  C     C_R   0.296954 0.015690 0.979620 0.048917
C164  C     C_R   0.011312 0.297036 0.978852 0.050290
C165  C     C_R   0.703046 0.015693 0.020379 0.049128
C166  C     C_R   0.988023 0.297025 0.021171 0.050886
C167  C     C_R   0.296954 0.984307 0.020379 0.049128
C168  C     C_R   0.011970 0.702974 0.021172 0.050888
C169  C     C_R   0.226145 0.499812 0.500030 -0.023756
C170  C     C_R   0.500000 0.226313 0.500000 -0.023516
C171  C     C_R   0.773855 0.500188 0.500030 -0.023756
C172  C     C_R   0.500000 0.773687 0.500000 -0.023516
C173  C     C_R   0.726231 0.000001 1.000000 -0.023341
C174  C     C_R   0.000181 0.726155 0.000031 -0.023551
C175  C     C_R   0.273769 0.999999 1.000000 -0.023341
C176  C     C_R   0.999819 0.273845 0.000031 -0.023550
C177  C     C_R   0.156426 0.510830 0.478891 0.163949
C178  C     C_R   0.482118 0.156587 0.480254 0.178329
C179  C     C_R   0.843573 0.489167 0.478892 0.163950
C180  C     C_R   0.517886 0.843412 0.480255 0.178330
C181  C     C_R   0.156423 0.488068 0.521079 0.174320
C182  C     C_R   0.482114 0.843412 0.519745 0.178334
C183  C     C_R   0.843577 0.511935 0.521078 0.174321
C184  C     C_R   0.517882 0.156588 0.519746 0.178333
C185  C     C_R   0.656503 0.983987 0.979793 0.175977
C186  C     C_R   0.988707 0.656436 0.978964 0.163783
C187  C     C_R   0.343497 0.016012 0.979793 0.175978
C188  C     C_R   0.011300 0.343564 0.978965 0.163785
C189  C     C_R   0.656504 0.016017 0.020206 0.175865
C190  C     C_R   0.987634 0.343567 0.021008 0.174573
C191  C     C_R   0.343496 0.983983 0.020206 0.175865
C192  C     C_R   0.012360 0.656432 0.021008 0.174573
C193  C     C_R   0.133600 0.499786 0.500033 -0.155532
C194  C     C_R   0.500000 0.133709 0.500000 -0.154699
C195  C     C_R   0.866400 0.500214 0.500033 -0.155533
C196  C     C_R   0.500000 0.866291 0.500000 -0.154701
C197  C     C_R   0.633654 0.000001 1.000000 -0.155601
C198  C     C_R   0.000209 0.633607 0.000034 -0.155836
C199  C     C_R   0.366346 0.999999 1.000000 -0.155601
C200  C     C_R   0.999791 0.366393 0.000034 -0.155839
C201  C     C_R   0.039464 0.507974 0.262213 0.031420
C202  C     C_R   0.460028 0.004852 0.262630 0.031857
C203  C     C_R   0.960536 0.492025 0.262213 0.031421
C204  C     C_R   0.539972 0.995153 0.262630 0.031860
C205  C     C_R   0.016308 0.463190 0.737079 0.031248
C206  C     C_R   0.460042 0.995034 0.737368 0.031650
C207  C     C_R   0.983690 0.536810 0.737079 0.031248
C208  C     C_R   0.539957 0.004967 0.737368 0.031650
C209  C     C_R   0.540117 0.996559 0.762525 0.031521
C210  C     C_R   0.991626 0.539381 0.762214 0.031118
C211  C     C_R   0.459881 0.003441 0.762526 0.031522
C212  C     C_R   0.008372 0.460618 0.762214 0.031118
C213  C     C_R   0.540107 0.003561 0.237472 0.031724
C214  C     C_R   0.963025 0.484067 0.237077 0.031384
C215  C     C_R   0.459892 0.996443 0.237473 0.031724
C216  C     C_R   0.036975 0.515931 0.237077 0.031383
C217  C     C_R   0.000000 0.500000 0.274992 -0.099413
C218  C     C_R   0.500000 0.000003 0.275418 -0.100080
C219  C     C_R   0.999999 0.500000 0.724301 -0.099682
C220  C     C_R   0.499999 0.000001 0.724580 -0.100253
C221  C     C_R   0.499999 0.999999 0.775313 -0.100190
C222  C     C_R   0.999999 0.500000 0.774992 -0.099635
C223  C     C_R   0.500000 0.000002 0.224685 -0.100001
C224  C     C_R   0.000000 0.499999 0.224299 -0.099524
C225  C     C_R   0.080154 0.505231 0.274515 0.425274
C226  C     C_R   0.422271 0.020249 0.274959 0.424549
C227  C     C_R   0.919846 0.494768 0.274515 0.425274
C228  C     C_R   0.577729 0.979756 0.274959 0.424551
C229  C     C_R   0.042079 0.431581 0.724780 0.424382
C230  C     C_R   0.422331 0.979523 0.725039 0.424302
C231  C     C_R   0.957919 0.568418 0.724780 0.424383
C232  C     C_R   0.577667 0.020480 0.725040 0.424300
C233  C     C_R   0.578392 0.982498 0.774854 0.424874
C234  C     C_R   0.993955 0.580098 0.774515 0.424916
C235  C     C_R   0.421606 0.017500 0.774855 0.424877
C236  C     C_R   0.006043 0.419902 0.774515 0.424917
C237  C     C_R   0.578340 0.017738 0.225144 0.425129
C238  C     C_R   0.931151 0.458625 0.224776 0.424573
C239  C     C_R   0.421660 0.982266 0.225144 0.425124
C240  C     C_R   0.068849 0.541373 0.224776 0.424573
C241  C     C_R   0.081054 0.505778 0.299822 0.183325
C242  C     C_R   0.421374 0.020280 0.300284 0.181777
C243  C     C_R   0.918946 0.494222 0.299822 0.183324
C244  C     C_R   0.578626 0.979726 0.300283 0.181775
C245  C     C_R   0.042157 0.430530 0.699472 0.182223
C246  C     C_R   0.421432 0.979494 0.699715 0.181525
C247  C     C_R   0.957840 0.569469 0.699472 0.182222
C248  C     C_R   0.578566 0.020512 0.699715 0.181527
C249  C     C_R   0.579291 0.982499 0.800179 0.182189
C250  C     C_R   0.993407 0.580993 0.799821 0.182845
C251  C     C_R   0.420707 0.017497 0.800179 0.182185
C252  C     C_R   0.006592 0.419007 0.799822 0.182844
C253  C     C_R   0.579241 0.017735 0.199819 0.182556
C254  C     C_R   0.930099 0.458561 0.199469 0.182398
C255  C     C_R   0.420759 0.982267 0.199820 0.182558
C256  C     C_R   0.069901 0.541437 0.199468 0.182398
C257  C     C_R   0.040729 0.503286 0.313009 -0.111715
C258  C     C_R   0.460485 0.010195 0.313474 -0.111003
C259  C     C_R   0.959271 0.496714 0.313009 -0.111715
C260  C     C_R   0.539515 0.989811 0.313474 -0.111002
C261  C     C_R   0.020861 0.464864 0.686286 -0.112685
C262  C     C_R   0.460511 0.989701 0.686524 -0.111341
C263  C     C_R   0.979136 0.535135 0.686286 -0.112683
C264  C     C_R   0.539487 0.010304 0.686524 -0.111343
C265  C     C_R   0.539850 0.991204 0.813369 -0.110566
C266  C     C_R   0.996314 0.540695 0.813007 -0.112064
C267  C     C_R   0.460149 0.008792 0.813369 -0.110563
C268  C     C_R   0.003685 0.459305 0.813007 -0.112064
C269  C     C_R   0.539826 0.008905 0.186629 -0.110299
C270  C     C_R   0.964653 0.479498 0.186282 -0.112360
C271  C     C_R   0.460173 0.991096 0.186629 -0.110301
C272  C     C_R   0.035347 0.520499 0.186282 -0.112360
C273  C     C_R   0.000000 0.500000 0.300376 -0.132060
C274  C     C_R   0.500000 0.000003 0.300825 -0.131568
C275  C     C_R   0.999999 0.499999 0.698917 -0.131895
C276  C     C_R   0.499999 0.000002 0.699173 -0.131591
C277  C     C_R   0.499999 0.999999 0.800720 -0.131690
C278  C     C_R   0.999999 0.500000 0.800375 -0.132141
C279  C     C_R   0.500000 0.000001 0.199277 -0.131641
C280  C     C_R   0.000000 0.499999 0.198914 -0.131903
C281  C     C_R   0.039410 0.502406 0.338365 0.624209
C282  C     C_R   0.462226 0.011417 0.338845 0.622097
C283  C     C_R   0.960590 0.497595 0.338365 0.624208
C284  C     C_R   0.537773 0.988587 0.338845 0.622094
C285  C     C_R   0.020797 0.466438 0.660930 0.623116
C286  C     C_R   0.462252 0.988500 0.661152 0.621837
C287  C     C_R   0.979201 0.533561 0.660930 0.623116
C288  C     C_R   0.537747 0.011504 0.661152 0.621838
C289  C     C_R   0.538154 0.989926 0.838740 0.622253
C290  C     C_R   0.997231 0.539387 0.838362 0.623638
C291  C     C_R   0.461846 0.010071 0.838740 0.622250
C292  C     C_R   0.002769 0.460614 0.838362 0.623639
C293  C     C_R   0.538131 0.010160 0.161257 0.622637
C294  C     C_R   0.966231 0.479540 0.160925 0.623261
C295  C     C_R   0.461868 0.989840 0.161257 0.622638
C296  C     C_R   0.033769 0.520458 0.160925 0.623261
Cu1   Cu    Cu3+1 1.000000 0.455570 0.500000 1.152249
Cu2   Cu    Cu3+1 0.544430 0.000000 0.500000 1.155051
Cu3   Cu    Cu3+1 0.000000 0.544430 0.500000 1.152248
Cu4   Cu    Cu3+1 0.455570 0.000000 0.500000 1.155051
Cu5   Cu    Cu3+1 0.500000 0.955570 0.000000 1.148442
Cu6   Cu    Cu3+1 0.044430 0.500000 0.000000 1.150923
Cu7   Cu    Cu3+1 0.500000 0.044430 0.000000 1.148442
Cu8   Cu    Cu3+1 0.955570 0.500000 0.000000 1.150922
Cu9   Cu    Cu3+1 0.500000 0.500000 0.476130 0.985275
Cu10  Cu    Cu3+1 0.500000 0.500000 0.523870 0.981615
Cu11  Cu    Cu3+1 1.000000 0.000000 0.976130 0.989754
Cu12  Cu    Cu3+1 1.000000 0.000000 0.023870 0.986531
H1    H     H_    0.980090 0.432155 0.378677 0.188576
H2    H     H_    0.548710 0.051651 0.379600 0.190646
H3    H     H_    0.019910 0.567845 0.378677 0.188577
H4    H     H_    0.451290 0.948351 0.379600 0.190645
H5    H     H_    0.044421 0.555261 0.620530 0.186787
H6    H     H_    0.548733 0.948376 0.620401 0.190513
H7    H     H_    0.955577 0.444738 0.620530 0.186788
H8    H     H_    0.451266 0.051626 0.620401 0.190514
H9    H     H_    0.452954 0.946863 0.879478 0.190731
H10   H     H_    0.067970 0.480531 0.878673 0.188247
H11   H     H_    0.547045 0.053135 0.879477 0.190731
H12   H     H_    0.932030 0.519470 0.878673 0.188247
H13   H     H_    0.452922 0.053105 0.120523 0.190829
H14   H     H_    0.054903 0.455130 0.120517 0.186787
H15   H     H_    0.547077 0.946894 0.120523 0.190829
H16   H     H_    0.945096 0.544868 0.120517 0.186787
H17   H     H_    0.360279 0.481441 0.537315 0.165156
H18   H     H_    0.528824 0.360539 0.535297 0.162046
H19   H     H_    0.639721 0.518566 0.537314 0.165155
H20   H     H_    0.471169 0.639460 0.535296 0.162043
H21   H     H_    0.360220 0.518533 0.462726 0.166025
H22   H     H_    0.528831 0.639461 0.464704 0.162491
H23   H     H_    0.639780 0.481461 0.462727 0.166024
H24   H     H_    0.471176 0.360538 0.464703 0.162494
H25   H     H_    0.860428 0.025914 0.035963 0.162439
H26   H     H_    0.019359 0.860300 0.037194 0.164154
H27   H     H_    0.139572 0.974087 0.035963 0.162439
H28   H     H_    0.980629 0.139700 0.037192 0.164150
H29   H     H_    0.860427 0.974087 0.964037 0.163008
H30   H     H_    0.019342 0.139762 0.962849 0.164942
H31   H     H_    0.139573 0.025913 0.964037 0.163008
H32   H     H_    0.980670 0.860238 0.962847 0.164945
H33   H     H_    0.290634 0.529549 0.441683 0.164838
H34   H     H_    0.453665 0.290867 0.444942 0.162291
H35   H     H_    0.709366 0.470442 0.441685 0.164838
H36   H     H_    0.546347 0.709133 0.444945 0.162291
H37   H     H_    0.290703 0.470183 0.558361 0.162148
H38   H     H_    0.453653 0.709132 0.555056 0.161710
H39   H     H_    0.709296 0.529827 0.558360 0.162148
H40   H     H_    0.546335 0.290868 0.555058 0.161710
H41   H     H_    0.790775 0.958410 0.943839 0.164496
H42   H     H_    0.969188 0.790645 0.941876 0.164845
H43   H     H_    0.209225 0.041589 0.943838 0.164495
H44   H     H_    0.030831 0.209355 0.941879 0.164845
H45   H     H_    0.790776 0.041592 0.056161 0.163737
H46   H     H_    0.968911 0.209282 0.058167 0.162289
H47   H     H_    0.209223 0.958409 0.056161 0.163737
H48   H     H_    0.031070 0.790718 0.058170 0.162289
H49   H     H_    0.210752 0.530173 0.441330 0.208229
H50   H     H_    0.452326 0.211009 0.444777 0.203917
H51   H     H_    0.789248 0.469817 0.441332 0.208229
H52   H     H_    0.547686 0.788991 0.444780 0.203917
H53   H     H_    0.210805 0.469151 0.558685 0.204886
H54   H     H_    0.452314 0.788990 0.555220 0.203785
H55   H     H_    0.789194 0.530860 0.558683 0.204886
H56   H     H_    0.547674 0.211010 0.555223 0.203786
H57   H     H_    0.710899 0.957231 0.943612 0.207084
H58   H     H_    0.968546 0.710763 0.941529 0.208203
H59   H     H_    0.289101 0.042768 0.943612 0.207084
H60   H     H_    0.031473 0.289237 0.941532 0.208202
H61   H     H_    0.710900 0.042772 0.056387 0.206892
H62   H     H_    0.967877 0.289179 0.058486 0.204951
H63   H     H_    0.289100 0.957228 0.056388 0.206892
H64   H     H_    0.032104 0.710820 0.058489 0.204951
N1    N     N_R   0.000000 0.500000 0.350216 -0.469745
N2    N     N_R   0.500000 0.000002 0.350783 -0.467859
N3    N     N_R   0.999999 0.499999 0.649081 -0.470347
N4    N     N_R   0.500000 0.000002 0.649216 -0.467885
N5    N     N_R   0.500000 0.999999 0.850676 -0.467952
N6    N     N_R   1.000000 0.500000 0.850214 -0.469684
N7    N     N_R   0.500000 1.000000 0.149322 -0.468016
N8    N     N_R   0.000000 0.499999 0.149074 -0.470317
O1    O     O_R   0.064840 0.462480 0.500010 -0.564824
O2    O     O_R   0.537520 0.064840 0.500010 -0.550517
O3    O     O_R   0.935160 0.537520 0.500010 -0.564824
O4    O     O_R   0.462480 0.935160 0.500010 -0.550516
O5    O     O_R   0.064840 0.537520 0.499990 -0.543377
O6    O     O_R   0.537520 0.935160 0.499990 -0.550679
O7    O     O_R   0.935160 0.462480 0.499990 -0.543376
O8    O     O_R   0.462480 0.064840 0.499990 -0.550680
O9    O     O_R   0.564840 0.962480 0.000010 -0.552133
O10   O     O_R   0.037520 0.564840 0.000010 -0.564990
O11   O     O_R   0.435160 0.037520 0.000010 -0.552133
O12   O     O_R   0.962480 0.435160 0.000010 -0.564989
O13   O     O_R   0.564840 0.037520 0.999990 -0.552221
O14   O     O_R   0.037520 0.435160 0.999990 -0.543299
O15   O     O_R   0.435160 0.962480 0.999990 -0.552220
O16   O     O_R   0.962480 0.564840 0.999990 -0.543302
O17   O     O_R   0.999990 0.462490 0.465160 -0.542408
O18   O     O_R   0.537510 0.999990 0.465160 -0.545115
O19   O     O_R   0.000010 0.537510 0.465160 -0.542411
O20   O     O_R   0.462490 0.000010 0.465160 -0.545117
O21   O     O_R   0.999990 0.537510 0.534840 -0.544049
O22   O     O_R   0.537510 0.000010 0.534840 -0.545040
O23   O     O_R   0.000010 0.462490 0.534840 -0.544052
O24   O     O_R   0.462490 0.999990 0.534840 -0.545038
O25   O     O_R   0.499990 0.962490 0.965160 -0.546013
O26   O     O_R   0.037510 0.499990 0.965160 -0.542330
O27   O     O_R   0.500010 0.037510 0.965160 -0.546013
O28   O     O_R   0.962490 0.500010 0.965160 -0.542334
O29   O     O_R   0.499990 0.037510 0.034840 -0.545966
O30   O     O_R   0.037510 0.500010 0.034840 -0.544237
O31   O     O_R   0.500010 0.962490 0.034840 -0.545966
O32   O     O_R   0.962490 0.499990 0.034840 -0.544234
O33   O     O_2   0.076897 0.503142 0.351397 -0.445583
O34   O     O_2   0.427061 0.024816 0.351761 -0.447396
O35   O     O_2   0.923103 0.496859 0.351397 -0.445583
O36   O     O_2   0.572938 0.975187 0.351761 -0.447397
O37   O     O_2   0.041823 0.435398 0.647895 -0.444621
O38   O     O_2   0.427113 0.975040 0.648234 -0.447269
O39   O     O_2   0.958175 0.564601 0.647895 -0.444621
O40   O     O_2   0.572887 0.024963 0.648234 -0.447267
O41   O     O_2   0.573772 0.977787 0.851658 -0.447425
O42   O     O_2   0.996178 0.576868 0.851393 -0.445750
O43   O     O_2   0.426228 0.022211 0.851658 -0.447425
O44   O     O_2   0.003821 0.423132 0.851393 -0.445752
O45   O     O_2   0.573726 0.022358 0.148337 -0.447284
O46   O     O_2   0.934985 0.458818 0.147892 -0.444910
O47   O     O_2   0.426273 0.977641 0.148338 -0.447284
O48   O     O_2   0.065015 0.541179 0.147891 -0.444911
O49   O     O_R   0.500000 0.564930 0.479830 -0.585379
O50   O     O_R   0.435070 0.500000 0.479830 -0.587119
O51   O     O_R   0.500000 0.435070 0.479830 -0.585381
O52   O     O_R   0.564930 0.500000 0.479830 -0.587119
O53   O     O_R   0.500000 0.435070 0.520170 -0.586199
O54   O     O_R   0.435070 0.500000 0.520170 -0.587885
O55   O     O_R   0.500000 0.564930 0.520170 -0.586199
O56   O     O_R   0.564930 0.500000 0.520170 -0.587884
O57   O     O_R   0.000000 0.064930 0.979830 -0.586389
O58   O     O_R   0.935070 0.000000 0.979830 -0.585266
O59   O     O_R   0.000000 0.935070 0.979830 -0.586391
O60   O     O_R   0.064930 0.000000 0.979830 -0.585268
O61   O     O_R   1.000000 0.935070 0.020170 -0.587084
O62   O     O_R   0.935070 0.000000 0.020170 -0.585891
O63   O     O_R   0.000000 0.064930 0.020170 -0.587082
O64   O     O_R   0.064930 0.000000 0.020170 -0.585889
O65   O     O_3   0.118319 0.498684 0.261282 -0.639994
H65   H     H_    0.140116 0.482138 0.271004 0.362663
O66   O     O_3   0.387988 0.038277 0.261738 -0.639961
H66   H     H_    0.372273 0.060633 0.271494 0.363026
O67   O     O_3   0.881681 0.501315 0.261282 -0.639995
H67   H     H_    0.859885 0.517861 0.271004 0.362663
O68   O     O_3   0.612012 0.961728 0.261738 -0.639966
H68   H     H_    0.627730 0.939376 0.271494 0.363030
O69   O     O_3   0.069491 0.404234 0.738014 -0.639748
H69   H     H_    0.095606 0.396037 0.728296 0.362545
O70   O     O_3   0.388105 0.961386 0.738260 -0.639643
H70   H     H_    0.372465 0.938977 0.728506 0.363069
O71   O     O_3   0.930507 0.595766 0.738014 -0.639748
H71   H     H_    0.904392 0.603963 0.728296 0.362546
O72   O     O_3   0.611893 0.038616 0.738261 -0.639641
H72   H     H_    0.627532 0.061028 0.728507 0.363068
O73   O     O_3   0.613287 0.965685 0.761633 -0.639080
H73   H     H_    0.629780 0.943897 0.771389 0.363682
O74   O     O_3   0.000106 0.618329 0.761281 -0.639183
H74   H     H_    0.016420 0.640299 0.771004 0.363174
O75   O     O_3   0.386711 0.034314 0.761634 -0.639082
H75   H     H_    0.370216 0.056098 0.771391 0.363685
O76   O     O_3   0.999893 0.381671 0.761281 -0.639182
H76   H     H_    0.983578 0.359700 0.771004 0.363174
O77   O     O_3   0.613181 0.034662 0.238365 -0.639485
H77   H     H_    0.629596 0.056511 0.228610 0.363537
O78   O     O_3   0.903523 0.431494 0.238010 -0.639687
H78   H     H_    0.895051 0.405470 0.228290 0.362882
O79   O     O_3   0.386818 0.965343 0.238366 -0.639481
H79   H     H_    0.370404 0.943492 0.228612 0.363536
O80   O     O_3   0.096478 0.568504 0.238009 -0.639686
H80   H     H_    0.104949 0.594529 0.228289 0.362882
Br1   Br    Br    0.138415 0.514347 0.314769 -0.318056
Br2   Br    Br    0.364163 0.029375 0.315293 -0.308535
Br3   Br    Br    0.861586 0.485653 0.314769 -0.318057
Br4   Br    Br    0.635837 0.970634 0.315293 -0.308539
Br5   Br    Br    0.068379 0.378798 0.684527 -0.307300
Br6   Br    Br    0.364250 0.970208 0.684707 -0.306163
Br7   Br    Br    0.931620 0.621201 0.684527 -0.307301
Br8   Br    Br    0.635748 0.029804 0.684708 -0.306163
Br9   Br    Br    0.636786 0.975415 0.815189 -0.315867
Br10  Br    Br    0.984231 0.638258 0.814769 -0.315817
Br11  Br    Br    0.363213 0.024575 0.815190 -0.315871
Br12  Br    Br    0.015769 0.361741 0.814770 -0.315818
Br13  Br    Br    0.636713 0.025014 0.184811 -0.317687
Br14  Br    Br    0.878091 0.432891 0.184524 -0.309802
Br15  Br    Br    0.363287 0.974984 0.184812 -0.317685
Br16  Br    Br    0.121909 0.567106 0.184523 -0.309802
Br17  Br    Br    0.971035 0.405698 0.427648 -0.342886
Br18  Br    Br    0.565954 0.071216 0.429943 -0.378915
Br19  Br    Br    0.028966 0.594301 0.427648 -0.342890
Br20  Br    Br    0.434048 0.928783 0.429943 -0.378920
Br21  Br    Br    0.062469 0.574850 0.570508 -0.368263
Br22  Br    Br    0.565973 0.928803 0.570059 -0.379253
Br23  Br    Br    0.937530 0.425150 0.570507 -0.368267
Br24  Br    Br    0.434025 0.071197 0.570058 -0.379249
Br25  Br    Br    0.433408 0.929133 0.929653 -0.377304
Br26  Br    Br    0.094501 0.471648 0.927629 -0.345678
Br27  Br    Br    0.566592 0.070867 0.929652 -0.377304
Br28  Br    Br    0.905500 0.528355 0.927629 -0.345685
Br29  Br    Br    0.433378 0.070836 0.070346 -0.376345
Br30  Br    Br    0.074324 0.436949 0.070471 -0.370012
Br31  Br    Br    0.566622 0.929163 0.070346 -0.376345
Br32  Br    Br    0.925674 0.563048 0.070472 -0.370005
Br33  Br    Br    0.123187 0.523964 0.450098 -0.444702
Br34  Br    Br    0.458502 0.123496 0.453373 -0.442937
Br35  Br    Br    0.876813 0.476029 0.450099 -0.444698
Br36  Br    Br    0.541504 0.876504 0.453375 -0.442932
Br37  Br    Br    0.123170 0.471755 0.549419 -0.452098
Br38  Br    Br    0.458500 0.876503 0.546626 -0.442738
Br39  Br    Br    0.876830 0.528251 0.549418 -0.452095
Br40  Br    Br    0.541493 0.123496 0.546628 -0.442744
Br41  Br    Br    0.623313 0.962972 0.952328 -0.438868
Br42  Br    Br    0.974969 0.623202 0.950250 -0.444345
Br43  Br    Br    0.376687 0.037027 0.952328 -0.438869
Br44  Br    Br    0.025045 0.376797 0.950252 -0.444336
Br45  Br    Br    0.623314 0.037038 0.047670 -0.439058
Br46  Br    Br    0.970817 0.376815 0.049265 -0.451970
Br47  Br    Br    0.376685 0.962962 0.047670 -0.439058
Br48  Br    Br    0.029172 0.623185 0.049266 -0.451976

loop_
_geom_bond_atom_site_label_1
_geom_bond_atom_site_label_2
_ccdc_geom_bond_type
C67   C95   A    
O72   H72   S    
C147  H59   S    
C33   C45   A    
O71   H71   S    
C248  Br8   S    
Cu3   O19   S    
C120  C144  A    
C77   H29   S    
C234  C250  A    
C203  C227  A    
C107  C171  A    
O77   H77   S    
C190  Br46  S    
C119  H39   S    
C64   O64   A    
C177  C193  A    
C238  C254  A    
C39   C47   A    
C183  Br39  S    
C16   H8    S    
C250  Br10  S    
C109  C173  A    
C9    H1    S    
C144  H56   S    
C151  H63   S    
C22   C38   A    
C11   H3    S    
C154  C170  A    
C137  H49   S    
C122  H42   S    
C26   Br18  S    
C80   C86   A    
C157  C169  A    
C13   C51   A    
C191  Br47  S    
C14   C52   A    
C207  C210  A    
C294  O46   S    
C178  Br34  S    
C15   C51   A    
C268  C292  A    
C70   C84   A    
C60   O56   A    
C114  H34   S    
C61   O57   A    
C230  C246  A    
Cu6   O14   S    
C132  O22   A    
C138  C154  A    
C271  C279  A    
C53   N5    S    
C28   Br20  S    
C265  C289  A    
C177  Br33  S    
C242  C258  A    
C38   Br30  S    
C142  C158  A    
C130  O18   A    
C79   C87   A    
C260  C284  A    
C261  C285  A    
C262  C286  A    
C287  O39   S    
C263  C287  A    
C203  C217  A    
C9    C25   A    
O74   H74   S    
C64   O60   A    
C91   C107  A    
C291  N5    A    
Cu10  O53   S    
C20   C54   A    
Cu11  O60   S    
C30   Br22  S    
C228  O68   S    
C25   C41   A    
C21   C55   A    
C22   C56   A    
C61   O63   A    
C95   C119  A    
C179  C195  A    
C3    C195  S    
C226  O66   S    
C100  C124  A    
C264  C288  A    
C118  H38   S    
C201  C225  A    
C216  C224  A    
C35   C45   A    
Cu1   O17   S    
C11   C49   A    
C66   C82   A    
C146  C162  A    
C228  C244  A    
C11   C27   A    
C80   H32   S    
Cu7   O13   S    
C219  C275  A    
C238  O78   S    
C180  Br36  S    
C9    C49   A    
C257  C281  A    
C131  O23   A    
C92   C116  A    
C105  C169  A    
C140  C156  A    
C125  H45   S    
C56   N8    S    
C141  C157  A    
Cu6   O26   S    
C240  O80   S    
C1    O1    A    
C59   O51   A    
C239  C255  A    
C40   Br32  S    
C113  C137  A    
C215  C239  A    
C245  Br5   S    
C251  C267  A    
C149  H61   S    
C13   C29   A    
C4    C196  S    
Cu5   O31   S    
C231  C247  A    
C63   O61   A    
C23   H15   S    
C190  C200  A    
C23   C55   A    
C44   C132  S    
C167  C191  A    
C45   C133  S    
C168  C192  A    
C157  C181  A    
C43   C131  S    
C247  Br7   S    
C19   C35   A    
C104  C110  A    
C156  C180  A    
C189  Br45  S    
C145  C161  A    
C151  C167  A    
C243  Br3   S    
C211  C235  A    
C237  O77   S    
C122  C146  A    
O65   H65   S    
C182  Br38  S    
C4    O4    A    
C132  O24   A    
C59   O53   A    
C133  O25   A    
C57   O55   A    
C185  C197  A    
C290  O42   S    
C101  C109  A    
C247  C263  A    
C248  C264  A    
C145  H57   S    
C67   C83   A    
C210  C222  A    
C62   O58   A    
C136  O30   A    
C205  C229  A    
C244  C260  A    
C59   C82   S    
C292  O44   S    
Cu11  O58   S    
C163  C175  A    
Cu9   O49   S    
C212  C222  A    
O73   H73   S    
C217  C273  A    
C285  N3    A    
C264  C276  A    
C31   C43   A    
C2    O2    A    
C214  C238  A    
C36   Br28  S    
C226  C242  A    
C223  C279  A    
C144  C160  A    
C188  C200  A    
C150  C166  A    
C97   C109  A    
C249  C265  A    
C227  O67   S    
C97   C121  A    
C127  C151  A    
C15   H7    S    
C128  C152  A    
C220  C276  A    
Cu2   O18   S    
C291  O43   S    
C77   C97   A    
C34   C46   A    
C37   C47   A    
C103  C127  A    
C188  Br44  S    
C64   C87   S    
C38   C48   A    
Cu4   O20   S    
C260  C274  A    
C90   C114  A    
C77   C85   A    
C272  C280  A    
C293  N7    A    
C289  N5    A    
Cu1   Cu3   S    
C241  Br1   S    
C93   C117  A    
C236  C252  A    
C69   C89   A    
C252  Br12  S    
C207  C219  A    
C212  C236  A    
C204  C228  A    
C71   C83   A    
C110  C174  A    
C6    O16   A    
C10   H2    S    
C153  C177  A    
C240  C256  A    
C216  C240  A    
Cu1   O1    S    
C149  C165  A    
C266  C290  A    
C246  C262  A    
C74   H26   S    
Cu1   O7    S    
C284  O36   S    
C5    C197  S    
Cu7   O29   S    
C148  H60   S    
C156  C172  A    
C68   C94   A    
C204  C218  A    
C232  C248  A    
C292  N6    A    
C201  C216  A    
C235  O75   S    
C270  C294  A    
C72   C90   A    
C165  C189  A    
C133  O27   A    
C139  C155  A    
C72   H24   S    
C99   C111  A    
C71   C91   A    
Cu2   O6    S    
C186  Br42  S    
C73   C85   A    
C3    O7    A    
C75   C87   A    
C112  C176  A    
C141  H53   S    
C263  C275  A    
C108  C172  A    
C281  O33   S    
C136  O32   A    
C8    C200  S    
C253  Br13  S    
Cu12  O61   S    
C286  O38   S    
C153  C169  A    
C134  O26   A    
Cu9   O51   S    
C251  Br11  S    
C26   C42   A    
C8    O14   A    
C98   C122  A    
Cu4   O4    S    
C47   C135  S    
C269  C293  A    
C48   C136  S    
C18   H10   S    
C19   H11   S    
C102  C126  A    
C135  O29   A    
C70   H22   S    
C12   C50   A    
C229  C245  A    
C15   C31   A    
C16   C32   A    
C1    O5    A    
C116  H36   S    
C202  C218  A    
C54   N6    S    
Cu2   Cu4   S    
Cu6   Cu8   S    
C147  C163  A    
C94   C118  A    
C58   O50   A    
C286  N4    A    
C18   C34   A    
C184  C194  A    
C73   C101  A    
Cu4   O24   S    
C152  H64   S    
C167  C175  A    
Cu5   O25   S    
C164  C188  A    
C114  C138  A    
C115  H35   S    
O68   H68   S    
C124  H44   S    
C13   H5    S    
O67   H67   S    
C89   C105  A    
Cu6   O10   S    
C20   H12   S    
C75   C103  A    
C7    O11   A    
C98   C110  A    
C209  C221  A    
C78   H30   S    
C102  C112  A    
C296  O48   S    
C68   H20   S    
C131  O21   A    
C185  Br41  S    
C225  O65   S    
C168  C174  A    
C233  C249  A    
C202  C226  A    
C178  C194  A    
C12   H4    S    
C159  C171  A    
C12   C28   A    
C239  O79   S    
C237  C253  A    
Cu10  O54   S    
C288  N4    A    
Cu11  O59   S    
C293  O45   S    
C60   O52   A    
C60   C83   S    
C65   H17   S    
C249  Br9   S    
C225  C241  A    
C268  C278  A    
C150  H62   S    
C269  C279  A    
C103  C111  A    
C270  C280  A    
C121  H41   S    
C161  C185  A    
C79   C99   A    
C123  H43   S    
C252  C268  A    
C205  C219  A    
C253  C269  A    
C208  C209  A    
C183  C195  A    
C231  O71   S    
Cu12  O63   S    
C202  C215  A    
C181  C193  A    
C67   H19   S    
C266  C278  A    
C113  H33   S    
C128  H48   S    
C17   H9    S    
C283  N1    A    
C17   C53   A    
C245  C261  A    
O70   H70   S    
C6    O10   A    
C29   C43   A    
C7    O15   A    
C189  C197  A    
C30   C44   A    
C17   C33   A    
C37   Br29  S    
C187  Br43  S    
C152  C168  A    
C155  C179  A    
C89   C113  A    
Cu5   Cu7   S    
C119  C143  A    
C296  N8    A    
C49   N1    S    
Cu8   O16   S    
Cu11  Cu12  S    
C68   C84   A    
C236  O76   S    
C90   C106  A    
C58   C81   S    
Cu3   O3    S    
C24   H16   S    
C205  C212  A    
C206  C220  A    
C75   H27   S    
O66   H66   S    
C281  N1    A    
C2    C194  S    
C117  C141  A    
O78   H78   S    
C117  H37   S    
Cu3   O21   S    
C285  O37   S    
C161  C173  A    
C282  O34   S    
C65   C81   A    
C258  C274  A    
C57   C84   S    
C258  C282  A    
C243  C259  A    
C230  O70   S    
C69   H21   S    
C250  C266  A    
C184  Br40  S    
C95   C107  A    
C272  C296  A    
C162  C174  A    
C134  O28   A    
C100  C112  A    
C154  C178  A    
C63   C86   S    
C78   C100  A    
C57   O49   A    
C143  H55   S    
C10   C50   A    
C52   N4    S    
C66   C96   A    
C192  Br48  S    
C14   H6    S    
C78   C88   A    
C29   Br21  S    
C80   C98   A    
C257  C273  A    
Cu8   O12   S    
C70   C92   A    
Cu10  O56   S    
C16   C52   A    
Cu11  O57   S    
C34   Br26  S    
C51   N3    S    
C79   H31   S    
C143  C159  A    
Cu4   O8    S    
C130  O20   A    
C164  C176  A    
Cu5   O9    S    
C25   Br17  S    
C267  C291  A    
Cu7   O27   S    
C284  N2    A    
C246  Br6   S    
C213  C223  A    
C265  C277  A    
C71   H23   S    
C288  O40   S    
C65   C93   A    
C229  O69   S    
C91   C115  A    
C180  C196  A    
C259  C273  A    
C104  C128  A    
C210  C234  A    
C55   N7    S    
C22   H14   S    
C63   O59   A    
Cu2   O2    S    
C192  C198  A    
C20   C36   A    
C21   C37   A    
Cu9   Cu10  S    
C106  C170  A    
C187  C199  A    
C186  C198  A    
C4    O6    A    
C165  C173  A    
C294  N8    A    
C146  H58   S    
C224  C280  A    
C208  C220  A    
C5    O9    A    
C206  C230  A    
C126  C150  A    
C203  C214  A    
C1    C193  S    
C235  C251  A    
C24   C56   A    
C207  C231  A    
C58   O54   A    
C255  C271  A    
C127  H47   S    
C256  C272  A    
C94   C108  A    
C241  C257  A    
C111  C175  A    
C191  C199  A    
C213  C237  A    
C39   Br31  S    
C227  C243  A    
C46   C134  S    
C283  O35   S    
C232  O72   S    
C142  H54   S    
C295  N7    A    
C163  C187  A    
C271  C295  A    
C234  O74   S    
C40   C48   A    
C139  H51   S    
C93   C105  A    
C50   N2    S    
C255  Br15  S    
C206  C211  A    
C76   H28   S    
Cu1   O23   S    
C74   C104  A    
C295  O47   S    
C208  C232  A    
C5    O13   A    
C222  C278  A    
C76   C88   A    
C120  H40   S    
C158  C172  A    
C21   H13   S    
C10   C26   A    
Cu8   O32   S    
C218  C274  A    
C242  Br2   S    
C66   H18   S    
Cu12  O62   S    
C14   C30   A    
Cu9   O50   S    
C92   C108  A    
C140  H52   S    
Cu6   O30   S    
C62   C85   S    
C148  C164  A    
C137  C153  A    
Cu3   O5    S    
C254  C270  A    
O80   H80   S    
C6    C198  S    
C73   H25   S    
O79   H79   S    
C204  C213  A    
C267  C277  A    
C166  C190  A    
C233  O73   S    
C61   C88   S    
C8    O12   A    
C211  C221  A    
C27   C41   A    
C101  C125  A    
O76   H76   S    
O75   H75   S    
C162  C186  A    
C27   Br19  S    
C42   C130  S    
C126  H46   S    
C74   C86   A    
C36   C46   A    
C158  C182  A    
C287  N3    A    
C214  C224  A    
C69   C81   A    
C129  O19   A    
C123  C147  A    
Cu8   O28   S    
C254  Br14  S    
C121  C145  A    
C182  C196  A    
C138  H50   S    
C99   C123  A    
C181  Br37  S    
C31   Br23  S    
C96   C106  A    
C124  C148  A    
C35   Br27  S    
C96   C120  A    
C289  O41   S    
C282  N2    A    
C115  C139  A    
C118  C142  A    
C215  C223  A    
C2    O8    A    
C33   Br25  S    
C261  C275  A    
C262  C276  A    
C166  C176  A    
C62   O62   A    
C179  Br35  S    
C259  C283  A    
Cu10  O55   S    
C201  C217  A    
C32   Br24  S    
C41   C129  S    
Cu5   O15   S    
C19   C53   A    
C23   C39   A    
C244  Br4   S    
C28   C42   A    
C24   C40   A    
C256  Br16  S    
C3    O3    A    
C7    C199  S    
O69   H69   S    
C125  C149  A    
C135  O31   A    
C209  C233  A    
Cu7   O11   S    
C18   C54   A    
C155  C171  A    
C129  O17   A    
C32   C44   A    
C290  N6    A    
C160  C170  A    
Cu12  O64   S    
C76   C102  A    
C159  C183  A    
C221  C277  A    
C160  C184  A    
Cu9   O52   S    
C72   C82   A    
C116  C140  A    
Cu2   O22   S    
