data_mof_unit_62204.cif
_audit_creation_date              2012-12-10T18:14:34-0500
_audit_creation_method            fapswitch 2.2
_symmetry_space_group_name_H-M    P1
_symmetry_Int_Tables_number       1
_space_group_crystal_system       triclinic
_cell_length_a                    42.334844
_cell_length_b                    29.204936
_cell_length_c                    30.607787
_cell_angle_alpha                 89.98764
_cell_angle_beta                  136.378278
_cell_angle_gamma                 90.008568
_cell_volume                      26107.6954298

loop_
_atom_site_label
_atom_site_type_symbol
_atom_type_description
_atom_site_fract_x
_atom_site_fract_y
_atom_site_fract_z
_atom_type_partial_charge
C1    C     C_R   0.586687 0.500000 0.587089 0.914874
C2    C     C_1   0.003258 0.000220 0.338433 -0.018446
C3    C     C_3   0.509446 0.549546 0.230424 -0.238763
C4    C     C_3   0.041823 0.966356 0.263488 -0.275881
C5    C     C_3   0.009680 0.049504 0.230655 -0.238780
C6    C     C_1   0.500353 0.499348 0.120810 -0.129299
C7    C     C_1   0.000353 0.999345 0.120810 -0.129296
C8    C     C_3   0.504267 0.500391 0.293330 0.108259
C9    C     C_3   0.004276 0.000379 0.293339 0.108251
C10   C     C_3   0.502367 0.498787 0.207135 0.031768
C11   C     C_3   0.002367 0.998778 0.207135 0.031765
C12   C     C_2   0.553030 0.571718 0.257230 0.427273
C13   C     C_1   0.501515 0.500070 0.374718 -0.142240
C14   C     C_2   0.587209 0.470152 0.284558 0.373141
C15   C     C_2   0.053365 0.071475 0.257561 0.427307
C16   C     C_2   0.087076 0.969753 0.284425 0.373107
C17   C     C_2   0.536700 0.583217 0.331646 0.460732
C18   C     C_2   0.591558 0.487727 0.380557 0.503734
C19   C     C_2   0.037090 0.083054 0.332032 0.460711
C20   C     C_2   0.091506 0.987313 0.380505 0.503733
C21   C     C_2   0.415433 0.511920 0.126016 0.456557
C22   C     C_2   0.442856 0.432723 0.147585 0.467215
C23   C     C_2   0.915495 0.012311 0.126079 0.456539
C24   C     C_1   0.001519 0.000069 0.374722 -0.142237
C25   C     C_2   0.942554 0.932989 0.147287 0.467236
C26   C     C_1   0.637270 0.499999 0.637549 -0.199138
C27   C     C_1   0.137270 0.999999 0.637549 -0.199149
C28   C     C_1   0.679408 0.499999 0.679592 0.022546
C29   C     C_1   0.179408 0.999999 0.679592 0.022530
C30   C     C_1   0.729144 0.499999 0.729231 0.022043
C31   C     C_1   0.229144 0.999999 0.729231 0.022032
C32   C     C_1   0.771281 0.499999 0.771303 0.019375
C33   C     C_R   0.086687 1.000000 0.587089 0.914872
C34   C     C_1   0.271281 0.999999 0.771303 0.019371
C35   C     C_1   0.821018 0.499999 0.820984 0.015287
C36   C     C_1   0.321018 1.000000 0.820984 0.015287
C37   C     C_R   0.499397 0.500011 0.417120 0.949768
C38   C     C_R   0.999397 0.000010 0.417119 0.949739
C39   C     C_1   0.863157 0.500000 0.863106 -0.203409
C40   C     C_1   0.363157 1.000000 0.863106 -0.203407
C41   C     C_1   0.499965 0.499989 0.636030 -0.212570
C42   C     C_1   0.999965 0.999989 0.636030 -0.212569
C43   C     C_1   0.499958 0.499988 0.677192 0.022907
C44   C     C_3   0.454868 0.479983 0.177648 -0.029797
C45   C     C_1   0.999958 0.999988 0.677192 0.022907
C46   C     C_1   0.499952 0.499989 0.726190 0.010867
C47   C     C_1   0.999952 0.999989 0.726190 0.010867
C48   C     C_1   0.499948 0.499992 0.767355 0.010861
C49   C     C_1   0.999948 0.999992 0.767355 0.010861
C50   C     C_1   0.499948 0.499995 0.816359 0.022640
C51   C     C_1   0.999948 0.999995 0.816359 0.022640
C52   C     C_1   0.499959 0.499997 0.857538 -0.211254
C53   C     C_1   0.999959 0.999997 0.857538 -0.211253
C54   C     C_1   0.362674 0.500001 0.362997 -0.210032
C55   C     C_3   0.954783 0.980194 0.177565 -0.029784
C56   C     C_1   0.862674 0.000001 0.362997 -0.210043
C57   C     C_1   0.320537 0.500001 0.320814 0.013293
C58   C     C_1   0.820537 0.000001 0.320814 0.013285
C59   C     C_1   0.270805 0.500001 0.271037 0.016355
C60   C     C_1   0.770805 0.000001 0.271037 0.016350
C61   C     C_R   0.413254 0.500000 0.413648 0.901404
C62   C     C_R   0.913254 0.000000 0.413648 0.901387
C63   C     C_1   0.228669 0.500001 0.228867 0.015941
C64   C     C_1   0.728669 0.000001 0.228867 0.015937
C65   C     C_1   0.178937 0.500000 0.179094 0.013212
C66   C     C_3   0.459352 0.476827 0.232828 -0.503848
C67   C     C_1   0.678937 0.000000 0.179094 0.013208
C68   C     C_1   0.136800 0.500000 0.136917 -0.204653
C69   C     C_1   0.636800 0.000000 0.136917 -0.204657
C70   C     C_R   0.500031 0.586641 0.994585 0.912198
C71   C     C_R   0.500032 0.413359 0.994585 0.901408
C72   C     C_R   0.000031 0.086641 0.994584 0.912204
C73   C     C_R   0.000032 0.913359 0.994585 0.901394
C74   C     C_R   0.500068 0.500039 0.075977 0.954060
C75   C     C_R   0.000068 0.000041 0.075977 0.954065
C76   C     C_R   0.500000 0.500000 0.907467 0.885694
C77   C     C_3   0.959253 0.977022 0.232731 -0.503871
C78   C     C_R   1.000000 1.000000 0.907467 0.885694
C79   C     C_R   0.000015 0.413730 0.999138 0.895777
C80   C     C_R   0.000015 0.586269 0.999129 0.895346
C81   C     C_R   0.500015 0.913730 0.999138 0.895778
C82   C     C_R   0.500015 0.086269 0.999129 0.895344
C83   C     C_R   0.913741 0.500000 0.913726 0.895892
C84   C     C_R   0.413741 1.000000 0.913726 0.895895
C85   C     C_R   0.086220 0.500000 0.086276 0.895585
C86   C     C_R   0.586220 1.000000 0.086276 0.895582
C87   C     C_1   0.500043 0.637229 0.995436 -0.198484
C88   C     C_1   0.501171 0.498854 0.159684 -0.058258
C89   C     C_1   0.500042 0.362771 0.995427 -0.208091
C90   C     C_1   0.000043 0.137229 0.995436 -0.198493
C91   C     C_1   0.000042 0.862771 0.995427 -0.208098
C92   C     C_R   0.499972 0.499995 0.586150 0.886235
C93   C     C_R   0.999972 0.999996 0.586150 0.886235
C94   C     C_1   0.500046 0.679368 0.996187 0.022493
C95   C     C_1   0.500044 0.320631 0.996170 0.015388
C96   C     C_1   0.000046 0.179368 0.996187 0.022474
C97   C     C_1   0.000044 0.820631 0.996170 0.015383
C98   C     C_1   0.500044 0.729108 0.997072 0.022118
C99   C     C_1   0.001171 0.998848 0.159683 -0.058275
C100  C     C_1   0.500042 0.270891 0.997046 0.017782
C101  C     C_1   0.000044 0.229108 0.997072 0.022104
C102  C     C_1   0.000042 0.770891 0.997046 0.017779
C103  C     C_1   0.000040 0.271247 0.997779 0.019533
C104  C     C_1   0.000038 0.728752 0.997750 0.016774
C105  C     C_1   0.500040 0.771247 0.997779 0.019542
C106  C     C_1   0.500038 0.228752 0.997750 0.016776
C107  C     C_1   0.000033 0.320990 0.998512 0.015527
C108  C     C_1   0.000031 0.679009 0.998482 0.013659
C109  C     C_1   0.500033 0.820990 0.998512 0.015534
C110  C     C_1   0.503250 0.500226 0.338425 -0.018457
C111  C     C_1   0.500031 0.179009 0.998482 0.013659
C112  C     C_1   0.000026 0.363134 0.998962 -0.203216
C113  C     C_1   0.000025 0.636865 0.998937 -0.204564
C114  C     C_1   0.500026 0.863134 0.998962 -0.203211
C115  C     C_1   0.500025 0.136865 0.998937 -0.204565
C116  C     C_3   0.504286 0.550678 0.275760 -0.278842
C117  C     C_3   0.545539 0.471127 0.317836 -0.194237
C118  C     C_3   0.004527 0.050664 0.275998 -0.278826
C119  C     C_3   0.045412 0.970925 0.317710 -0.194228
C120  C     C_3   0.541972 0.466546 0.263636 -0.275885
H1    H     H_    0.541348 0.435904 0.327276 0.181637
H2    H     H_    0.459800 0.440440 0.244358 0.210235
H3    H     H_    0.929053 0.992561 0.219120 0.174350
H4    H     H_    0.959534 0.940634 0.244095 0.210233
H5    H     H_    0.586208 0.561426 0.302677 0.032761
H6    H     H_    0.592494 0.495590 0.264569 0.089961
H7    H     H_    0.086496 0.061031 0.302960 0.032758
H8    H     H_    0.092477 0.995164 0.264551 0.089972
H9    H     H_    0.573398 0.578861 0.366830 0.044229
H10   H     H_    0.609666 0.515212 0.382511 0.038792
H11   H     H_    0.073767 0.078529 0.367194 0.044225
H12   H     H_    0.469393 0.564614 0.247558 0.181649
H13   H     H_    0.109741 0.014713 0.382583 0.038790
H14   H     H_    0.401440 0.535694 0.135768 0.053786
H15   H     H_    0.462694 0.417480 0.141242 0.054626
H16   H     H_    0.901613 0.036152 0.135940 0.053790
H17   H     H_    0.962317 0.917655 0.140868 0.054650
H18   H     H_    0.041059 0.935722 0.326991 0.181640
H19   H     H_    0.969698 0.064761 0.247861 0.181657
H20   H     H_    0.531255 0.430675 0.246316 0.155748
H21   H     H_    0.481141 0.570867 0.188515 0.189862
H22   H     H_    0.030942 0.930535 0.246005 0.155745
H23   H     H_    0.981473 0.070954 0.188845 0.189852
H24   H     H_    0.429080 0.492226 0.219147 0.174348
O1    O     O_R   0.563110 0.535630 0.563620 -0.593844
O2    O     O_R   0.500010 0.063160 0.964010 -0.591680
O3    O     O_R   1.000000 0.436830 0.034310 -0.591428
O4    O     O_R   0.000000 0.563170 0.034310 -0.592166
O5    O     O_R   0.500000 0.936830 0.034310 -0.591424
O6    O     O_R   0.500000 0.063170 0.034310 -0.592165
O7    O     O_R   0.936840 0.500000 0.901700 -0.590390
O8    O     O_R   0.436840 0.000000 0.901700 -0.590397
O9    O     O_R   0.936840 0.500000 0.972000 -0.592814
O10   O     O_R   0.436840 1.000000 0.972000 -0.592807
O11   O     O_R   0.063130 0.500000 0.028000 -0.591465
O12   O     O_R   0.563110 0.464370 0.563620 -0.592577
O13   O     O_R   0.563130 1.000000 0.028000 -0.591463
O14   O     O_R   0.063120 0.500000 0.098300 -0.592251
O15   O     O_R   0.563120 1.000000 0.098300 -0.592254
O16   O     O_R   0.499970 0.535640 0.438200 -0.599573
O17   O     O_R   0.499970 0.464360 0.438200 -0.610754
O18   O     O_R   0.999970 0.035640 0.438200 -0.599615
O19   O     O_R   0.999970 0.964360 0.438200 -0.610689
O20   O     O_R   0.436830 0.535630 0.437320 -0.595206
O21   O     O_R   0.436830 0.464370 0.437320 -0.597567
O22   O     O_R   0.936830 0.035630 0.437320 -0.595230
O23   O     O_R   0.063110 0.035630 0.563620 -0.593838
O24   O     O_R   0.936830 0.964370 0.437320 -0.597563
O25   O     O_R   0.499970 0.535630 0.562740 -0.591829
O26   O     O_R   0.499970 0.464370 0.562740 -0.592339
O27   O     O_R   0.999970 0.035630 0.562740 -0.591828
O28   O     O_R   0.999970 0.964370 0.562740 -0.592340
O29   O     O_R   0.535670 0.563060 0.029670 -0.593477
O30   O     O_R   0.535670 0.436940 0.029670 -0.596292
O31   O     O_R   0.035670 0.063060 0.029670 -0.593455
O32   O     O_R   0.035670 0.936940 0.029670 -0.596281
O33   O     O_R   0.464380 0.563080 0.958370 -0.593561
O34   O     O_R   0.063110 0.964370 0.563620 -0.592550
O35   O     O_R   0.464380 0.436920 0.958370 -0.594262
O36   O     O_R   0.964380 0.063080 0.958370 -0.593554
O37   O     O_R   0.964380 0.936920 0.958370 -0.594293
O38   O     O_R   0.535670 0.500000 0.091080 -0.616017
O39   O     O_R   0.035670 1.000000 0.091080 -0.615954
O40   O     O_R   0.464370 0.500000 0.019780 -0.590247
O41   O     O_R   0.964370 1.000000 0.019780 -0.590308
O42   O     O_R   0.535670 0.500000 0.966540 -0.593388
O43   O     O_R   0.035670 0.000000 0.966540 -0.593387
O44   O     O_2   0.551148 0.602184 0.228077 -0.541488
O45   O     O_R   0.464380 0.500000 0.895240 -0.593456
O46   O     O_2   0.618042 0.443079 0.323111 -0.529354
O47   O     O_2   0.051622 0.101947 0.228546 -0.541462
O48   O     O_2   0.117783 0.942538 0.322854 -0.529355
O49   O     O_2   0.521512 0.615295 0.337522 -0.539275
O50   O     O_2   0.609343 0.469446 0.429977 -0.548874
O51   O     O_2   0.022051 0.115203 0.338055 -0.539273
O52   O     O_2   0.109207 0.968954 0.429842 -0.548844
O53   O     O_2   0.400144 0.512729 0.073548 -0.546129
O54   O     O_2   0.409621 0.411838 0.128140 -0.546952
O55   O     O_2   0.900209 0.013187 0.073614 -0.546145
O56   O     O_R   0.964380 1.000000 0.895240 -0.593457
O57   O     O_2   0.909225 0.912258 0.127753 -0.546963
O58   O     O_R   0.000010 0.436840 0.964010 -0.591537
O59   O     O_R   0.000010 0.563160 0.964010 -0.591678
O60   O     O_R   0.500010 0.936840 0.964010 -0.591538
Zn1   Zn    Zn3+2 0.499970 0.547590 0.500630 1.005715
Zn2   Zn    Zn3+2 0.499990 1.000000 0.953050 0.989248
Zn3   Zn    Zn3+2 0.999980 0.500000 0.046950 0.986142
Zn4   Zn    Zn3+2 0.499980 0.000000 0.046950 0.986149
Zn5   Zn    Zn3+2 0.499970 0.452410 0.500630 0.994437
Zn6   Zn    Zn3+2 0.999970 0.047590 0.500630 1.005675
Zn7   Zn    Zn3+2 0.999970 0.952410 0.500630 0.994498
Zn8   Zn    Zn3+2 0.547630 0.500000 0.040770 0.994825
Zn9   Zn    Zn3+2 0.047630 1.000000 0.040770 0.994883
Zn10  Zn    Zn3+2 0.452420 0.500000 0.945550 1.011725
Zn11  Zn    Zn3+2 0.952420 1.000000 0.945550 1.011679
Zn12  Zn    Zn3+2 0.999990 0.500000 0.953050 0.989255

loop_
_geom_bond_atom_site_label_1
_geom_bond_atom_site_label_2
_ccdc_geom_bond_type
O39   Zn9   S    
C30   C32   T    
C63   C65   S    
C93   O28   A    
C8    C66   S    
C68   C85   S    
O42   Zn8   S    
C27   C29   T    
C61   O20   A    
C107  C112  T    
C40   C84   S    
C78   O56   A    
C44   C66   S    
C3    H21   S    
O2    Zn2   S    
O28   Zn7   S    
C75   O39   A    
O43   Zn9   S    
C76   O42   A    
O15   Zn4   S    
C47   C49   T    
C75   O41   A    
C27   C33   S    
C19   O51   D    
O58   Zn12  S    
C10   C88   S    
C98   C105  T    
C7    C99   T    
C23   H16   S    
O30   Zn8   S    
O14   Zn3   S    
O31   Zn9   S    
C37   O16   A    
O8    Zn2   S    
C82   C115  S    
C5    C11   S    
C25   O57   D    
O20   Zn1   S    
O25   Zn1   S    
C35   C39   T    
C55   C77   S    
C5    H23   S    
C80   O59   A    
C74   O40   A    
C94   C98   S    
C58   C60   S    
C42   C93   S    
C87   C94   T    
C23   O55   D    
O56   Zn11  S    
C6    C88   T    
C11   C99   S    
C85   O11   A    
C72   O31   A    
C71   O35   A    
C117  H1    S    
C15   O47   D    
C3    C12   S    
C16   O48   D    
O4    Zn3   S    
O16   Zn1   S    
O9    Zn3   S    
C1    O1    A    
C22   C44   S    
C19   C118  S    
C92   O26   A    
C49   C51   S    
C116  H12   S    
C81   C114  S    
C50   C52   T    
C66   H2    S    
C4    C119  S    
C76   O45   A    
C20   H13   S    
C86   O15   A    
C13   C37   S    
C97   C102  S    
C62   O24   A    
C65   C68   T    
C48   C50   S    
O12   Zn5   S    
C23   C55   S    
C101  C103  T    
C15   H7    S    
C96   C101  S    
C9    C118  S    
C41   C43   T    
O24   Zn7   S    
C17   O49   D    
C33   O23   A    
C84   O10   A    
C70   C87   S    
O5    Zn4   S    
O1    Zn1   S    
C4    C16   S    
C82   O2    A    
C8    C117  S    
C6    C74   S    
C81   O60   A    
C83   O7    A    
C106  C111  S    
C45   C47   S    
C19   H11   S    
C46   C48   T    
C10   C44   S    
C64   C67   S    
C73   O37   A    
O59   Zn12  S    
C36   C40   T    
C10   C120  S    
C18   O50   D    
C73   C91   S    
C117  C120  S    
O27   Zn6   S    
O19   Zn7   S    
C95   C100  S    
C79   O3    A    
C12   H5    S    
O18   Zn6   S    
C17   H9    S    
C60   C64   T    
O41   Zn11  S    
C51   C53   T    
C42   C45   T    
C108  C113  T    
C89   C95   T    
C1    O12   A    
C25   H17   S    
C32   C35   S    
C13   C110  T    
C77   H3    S    
C8    C110  S    
C21   C44   S    
C72   C90   S    
C24   C38   S    
C71   C89   S    
C80   O4    A    
C92   O25   A    
C79   O58   A    
O38   Zn8   S    
C31   C34   T    
O37   Zn11  S    
C9    C77   S    
C91   C97   T    
C4    C11   S    
O3    Zn3   S    
C16   H8    S    
C18   C117  S    
C82   O6    A    
C109  C114  T    
C120  H20   S    
C84   O8    A    
C38   O19   A    
C62   O22   A    
O60   Zn2   S    
C14   C120  S    
O7    Zn12  S    
C2    C24   T    
C1    C26   S    
C9    C119  S    
C56   C62   S    
C18   H10   S    
O29   Zn8   S    
C85   O14   A    
C72   O36   A    
C118  H19   S    
C70   O29   A    
C104  C108  S    
C11   C55   S    
C37   O17   A    
C105  C109  S    
C93   O27   A    
C33   O34   A    
C119  H18   S    
C59   C63   T    
O33   Zn10  S    
C22   O54   D    
O36   Zn11  S    
O13   Zn2   S    
C25   C55   S    
O23   Zn6   S    
C21   O53   D    
C52   C76   S    
C79   C112  S    
C7    C75   S    
C70   O33   A    
C90   C96   T    
C74   O38   A    
C54   C61   S    
C100  C106  T    
C22   H15   S    
C26   C28   T    
C14   H6    S    
C71   O30   A    
C102  C104  T    
C5    C118  S    
C3    C116  S    
C86   O13   A    
C73   O32   A    
C28   C30   S    
C53   C78   S    
C39   C83   S    
C29   C31   S    
C77   H4    S    
O22   Zn6   S    
C4    H22   S    
O21   Zn5   S    
C83   O9    A    
O26   Zn5   S    
O17   Zn5   S    
C81   O5    A    
O35   Zn10  S    
C34   C36   S    
C56   C58   T    
O34   Zn7   S    
C61   O21   A    
C20   C119  S    
O11   Zn12  S    
C43   C46   S    
C5    C15   S    
C57   C59   S    
O45   Zn10  S    
C8    C116  S    
O6    Zn4   S    
C14   O46   D    
O40   Zn10  S    
C38   O18   A    
C41   C92   S    
C66   H24   S    
C80   C113  S    
C111  C115  T    
C3    C10   S    
O32   Zn9   S    
C103  C107  S    
C78   O43   A    
C67   C69   T    
C2    C9    S    
C20   O52   D    
C21   H14   S    
O10   Zn4   S    
C69   C86   S    
C17   C116  S    
C54   C57   T    
C12   O44   D    
