data_mof_unit_49011.cif
_audit_creation_date              2013-03-05T16:05:20-0500
_audit_creation_method            fapswitch 2.2
_symmetry_space_group_name_H-M    P1
_symmetry_Int_Tables_number       1
_space_group_crystal_system       triclinic
_cell_length_a                    10.828995
_cell_length_b                    9.586089
_cell_length_c                    15.929299
_cell_angle_alpha                 89.672742
_cell_angle_beta                  91.273546
_cell_angle_gamma                 90.046919
_cell_volume                      1653.14821424

loop_
_atom_site_label
_atom_site_type_symbol
_atom_site_description
_atom_site_fract_x
_atom_site_fract_y
_atom_site_fract_z
_atom_type_partial_charge
O1    O     O_R   0.319660 0.618740 0.500000 -0.569324
O2    O     O_R   0.319660 0.381260 0.500000 -0.568184
C1    C     C_R   0.262286 0.499949 0.501434 0.815969
O3    O     O_R   0.500020 0.618840 0.379440 -0.562842
O4    O     O_R   0.500020 0.381160 0.379440 -0.568172
C2    C     C_R   0.498607 0.500364 0.340490 0.835551
Cu1   Cu    Cu3+1 0.500020 0.640660 0.500000 0.990034
Cu2   Cu    Cu3+1 0.500020 0.359340 0.500000 0.989521
O5    O     O_R   0.680370 0.618830 0.500010 -0.589484
O6    O     O_R   0.680370 0.381170 0.500010 -0.589448
O7    O     O_R   0.500010 0.618730 0.620560 -0.579824
O8    O     O_R   0.500010 0.381270 0.620560 -0.580746
C3    C     C_R   0.737715 0.500027 0.500918 0.785098
C4    C     C_R   0.500153 0.499634 0.659480 0.817248
C5    C     C_3   0.443110 0.655232 0.048212 -0.180134
C6    C     C_3   0.391411 0.381705 0.048299 -0.136424
C7    C     C_3   0.382087 0.396187 0.947527 -0.174982
C8    C     C_3   0.459319 0.657302 0.947450 -0.174197
C9    C     C_1   0.497585 0.498874 0.748601 -0.131787
C10   C     C_3   0.480111 0.503574 0.083217 0.034199
C11   C     C_3   0.488193 0.501123 0.916360 0.039871
C12   C     C_3   0.618160 0.452084 0.956412 -0.056065
C13   C     C_3   0.614870 0.472578 0.053331 -0.467610
C14   C     C_1   0.494050 0.499143 0.823707 -0.070512
C15   C     C_1   0.486297 0.502246 0.175976 0.015369
C16   C     C_1   0.492521 0.501314 0.251225 -0.053503
H1    H     H_    0.678134 0.558279 0.073361 0.188123
H2    H     H_    0.654377 0.380225 0.087209 0.191786
C17   C     C_R   0.063667 0.373226 0.503892 -0.126727
C18   C     C_R   0.064002 0.626455 0.507237 -0.145516
H3    H     H_    0.111254 0.274059 0.504282 0.198021
H4    H     H_    0.111916 0.725433 0.510372 0.201367
C19   C     C_R   0.935933 0.373252 0.502950 -0.170964
C20   C     C_R   0.936241 0.626591 0.506241 -0.168474
H5    H     H_    0.887850 0.274117 0.501821 0.162902
H6    H     H_    0.888377 0.725700 0.507794 0.162729
C21   C     C_R   0.871654 0.499997 0.503112 -0.024373
C22   C     C_R   0.128340 0.499871 0.504206 -0.028311
C23   C     C_R   0.432902 0.074741 0.440615 0.035244
C24   C     C_R   0.433505 0.926350 0.440362 0.025472
N1    N     N_R   0.500030 0.852070 0.500020 -0.206517
N2    N     N_R   0.500030 0.147930 0.500020 -0.206059
C25   C     C_R   0.566540 0.925402 0.559011 -0.022140
C26   C     C_R   0.566706 0.073622 0.558924 -0.023813
H7    H     H_    0.620396 0.869696 0.606337 0.141112
H8    H     H_    0.620672 0.128565 0.606179 0.140246
C27   C     C_1   0.351692 0.719461 0.901576 0.297671
N3    N     N_1   0.268858 0.769466 0.865370 -0.203676
C28   C     C_1   0.258167 0.443254 0.917758 0.342503
N4    N     N_1   0.160792 0.477164 0.894024 -0.187535
C29   C     C_2   0.313166 0.698508 0.076395 0.893576
O9    O     O_2   0.220222 0.655446 0.040221 -0.566891
O10   O     O_R   0.299369 0.788413 0.144607 -0.693283
H9    H     H_    0.209699 0.808388 0.157041 0.350709
C30   C     C_2   0.264190 0.372085 0.088841 0.862622
O11   O     O_2   0.239393 0.439590 0.151157 -0.582836
O12   O     O_R   0.177856 0.275625 0.057502 -0.736455
H10   H     H_    0.098245 0.275552 0.089815 0.352551
C31   C     C_1   0.447108 0.245327 0.074196 0.251682
N5    N     N_1   0.489956 0.139486 0.094485 -0.179733
C32   C     C_1   0.528006 0.759427 0.089050 0.325123
N6    N     N_1   0.593864 0.839335 0.120901 -0.181656
C33   C     C_1   0.389699 0.258080 0.905556 0.284677
N7    N     N_1   0.394549 0.150750 0.872788 -0.228029
C34   C     C_1   0.557893 0.755426 0.920874 0.251677
N8    N     N_1   0.633108 0.833490 0.900065 -0.209160
C35   C     C_1   0.725462 0.527953 0.922515 0.260171
N9    N     N_1   0.810222 0.585773 0.896072 -0.209721
C36   C     C_1   0.647822 0.304908 0.937928 0.254744
N10   N     N_1   0.672710 0.190139 0.923649 -0.214398
C37   C     C_2   0.359186 0.147536 0.374719 0.898978
O13   O     O_2   0.254297 0.185885 0.388913 -0.602940
O14   O     O_R   0.405432 0.159076 0.293735 -0.718974
H11   H     H_    0.345029 0.206164 0.253169 0.343537
C38   C     C_2   0.362965 0.854713 0.373088 0.906482
O15   O     O_2   0.407794 0.844120 0.303650 -0.521665
O16   O     O_R   0.241426 0.812723 0.386135 -0.773304
H12   H     H_    0.201970 0.768180 0.334541 0.339829

loop_
_geom_bond_atom_site_label_1
_geom_bond_atom_site_label_2
_geom_bond_distance
_ccdc_geom_bond_type
C5    C8    1.618529 S    
C30   O11   1.222981 D    
C20   C21   1.400740 A    
O14   H11   1.013672 S    
C38   O15   1.222562 D    
C8    C27   1.485152 S    
Cu1   Cu2   2.696759 S    
O16   H12   1.014114 S    
C8    C34   1.489076 S    
Cu1   O7    1.930715 S    
Cu2   N2    2.026594 S    
O4    C2    1.297100 A    
O7    C4    1.296009 A    
C10   C15   1.477596 S    
C8    C11   1.612643 S    
C17   C19   1.382977 A    
C18   C22   1.401333 A    
O5    C3    1.297464 A    
C1    C22   1.452155 S    
C6    C7    1.611361 S    
C17   C22   1.401036 A    
C5    C29   1.544316 S    
C12   C36   1.479876 S    
C3    C21   1.450070 S    
C6    C10   1.605809 S    
C31   N5    1.157387 T    
C11   C12   1.602055 S    
N1    C25   1.368408 A    
C36   N10   1.157952 T    
N2    C26   1.368297 A    
O3    Cu1   1.932981 S    
C26   H8    1.081669 S    
C23   N2    1.375595 A    
C5    C10   1.602122 S    
C18   C20   1.383260 A    
C35   N9    1.157930 T    
O3    C2    1.297168 A    
C7    C28   1.483060 S    
C23   C24   1.422543 A    
C37   O14   1.397925 S    
C15   C16   1.199051 T    
O10   H9    1.013956 S    
C19   C21   1.400794 A    
C29   O9    1.221359 D    
C29   O10   1.401369 S    
C6    C31   1.492361 S    
C25   C26   1.420844 A    
C38   O16   1.395627 S    
C27   N3    1.158270 T    
C10   C13   1.574066 S    
Cu2   O8    1.933102 S    
C5    C32   1.498451 S    
C13   H2    1.114868 S    
C25   H7    1.081660 S    
C24   N1    1.375417 A    
O8    C4    1.296063 A    
C28   N4    1.158424 T    
C13   H1    1.112851 S    
C30   O12   1.400498 S    
Cu1   O5    1.964356 S    
O1    Cu1   1.964217 S    
C4    C9    1.420497 S    
O2    Cu2   1.964559 S    
O6    C3    1.297165 A    
O4    Cu2   1.930606 S    
C24   C38   1.474657 S    
C9    C14   1.197871 T    
C6    C30   1.536960 S    
C37   O13   1.220422 D    
C17   H3    1.081602 S    
C7    C33   1.489708 S    
C18   H4    1.081922 S    
O12   H10   1.013858 S    
C2    C16   1.421961 S    
C19   H5    1.083299 S    
O2    C1    1.297351 A    
C20   H6    1.083303 S    
Cu1   N1    2.026597 S    
C32   N6    1.157694 T    
C7    C11   1.611323 S    
C12   C35   1.480780 S    
C33   N7    1.158120 T    
Cu2   O6    1.964016 S    
C34   N8    1.158213 T    
C11   C14   1.478893 S    
C23   C37   1.476933 S    
C12   C13   1.558609 S    
O1    C1    1.297092 A    
