data_mof_unit_55631.cif
_audit_creation_date              2012-12-11T14:03:57-0500
_audit_creation_method            fapswitch 2.2
_symmetry_space_group_name_H-M    P1
_symmetry_Int_Tables_number       1
_space_group_crystal_system       triclinic
_cell_length_a                    19.201021
_cell_length_b                    10.873002
_cell_length_c                    18.931364
_cell_angle_alpha                 90.047893
_cell_angle_beta                  89.615629
_cell_angle_gamma                 90.702265
_cell_volume                      3951.96579944

loop_
_atom_site_label
_atom_site_type_symbol
_atom_type_description
_atom_site_fract_x
_atom_site_fract_y
_atom_site_fract_z
_atom_type_partial_charge
C1    C     C_R   0.239395 0.464583 0.648599 0.514266
C2    C     C_R   0.760578 0.469236 0.353710 0.531423
C3    C     C_R   0.739395 0.964581 0.648599 0.514251
C4    C     C_R   0.260578 0.969235 0.353710 0.531427
C5    C     C_2   0.269084 0.818669 0.532263 -0.144150
C6    C     C_2   0.722772 0.897792 0.456336 -0.116661
C7    C     C_2   0.769077 0.318665 0.532262 -0.144115
C8    C     C_2   0.222770 0.397800 0.456335 -0.116659
C9    C     C_R   0.000525 0.657265 0.424712 -0.003313
C10   C     C_R   0.054317 0.656493 0.561381 -0.048105
C11   C     C_R   0.500529 0.157256 0.424710 -0.003323
C12   C     C_R   0.554318 0.156489 0.561380 -0.048106
C13   C     C_R   0.052097 0.863615 0.404095 -0.103692
C14   C     C_R   0.069992 0.886840 0.548488 -0.107918
C15   C     C_R   0.552099 0.363608 0.404094 -0.103684
C16   C     C_R   0.569993 0.386835 0.548486 -0.107923
C17   C     C_R   0.072589 0.976092 0.432180 -0.148979
C18   C     C_R   0.080423 0.988021 0.504498 -0.145530
C19   C     C_R   0.572593 0.476084 0.432178 -0.148974
C20   C     C_R   0.580426 0.488014 0.504496 -0.145544
C21   C     C_R   0.053959 0.768722 0.521157 -0.004080
C22   C     C_R   0.036760 0.762301 0.448795 0.013741
C23   C     C_R   0.553960 0.268717 0.521156 -0.004077
C24   C     C_R   0.536762 0.262294 0.448794 0.013742
C25   C     C_R   0.037728 0.544037 0.526704 -0.006275
C26   C     C_R   0.995643 0.550260 0.467913 0.006444
C27   C     C_R   0.537735 0.044030 0.526703 -0.006267
C28   C     C_R   0.495655 0.050245 0.467907 0.006444
C29   C     C_R   0.054052 0.425353 0.552827 -0.081888
C30   C     C_R   0.950590 0.447950 0.455124 -0.090465
C31   C     C_R   0.554061 0.925349 0.552829 -0.081883
C32   C     C_R   0.450614 0.947920 0.455111 -0.090495
C33   C     C_R   0.016602 0.321750 0.532510 -0.121538
C34   C     C_R   0.962256 0.334071 0.485873 -0.133762
C35   C     C_R   0.516621 0.821737 0.532507 -0.121529
C36   C     C_R   0.462283 0.834045 0.485861 -0.133772
C37   C     C_2   0.238979 0.898912 0.927883 -0.092773
C38   C     C_2   0.760727 0.899970 0.072402 -0.093784
C39   C     C_2   0.738979 0.398912 0.927883 -0.092774
C40   C     C_2   0.260727 0.399970 0.072402 -0.093785
C41   C     C_2   0.249041 0.900192 0.083774 -0.105771
C42   C     C_2   0.749888 0.900520 0.916441 -0.109359
C43   C     C_2   0.749041 0.400192 0.083774 -0.105771
C44   C     C_2   0.249888 0.400521 0.916441 -0.109356
C45   C     C_R   0.227262 0.873245 0.647856 0.558565
C46   C     C_R   0.792132 0.826725 0.358534 0.589102
C47   C     C_R   0.727263 0.373247 0.647856 0.558528
C48   C     C_R   0.292131 0.326727 0.358535 0.589101
C49   C     C_2   0.190608 0.920859 0.048057 -0.159928
C50   C     C_2   0.808646 0.921834 0.951997 -0.156194
C51   C     C_2   0.690608 0.420859 0.048056 -0.159928
C52   C     C_2   0.308645 0.421834 0.951997 -0.156193
C53   C     C_2   0.184476 0.896162 0.972909 -0.153787
C54   C     C_2   0.814880 0.896701 0.027026 -0.150515
C55   C     C_2   0.684476 0.396162 0.972909 -0.153785
C56   C     C_2   0.314880 0.396702 0.027026 -0.150515
C57   C     C_2   0.042916 0.656373 0.932687 -0.107442
C58   C     C_2   0.015125 0.665175 0.086160 -0.112336
C59   C     C_2   0.542916 0.156373 0.932687 -0.107441
C60   C     C_2   0.515125 0.165175 0.086160 -0.112336
C61   C     C_2   0.037498 0.565078 0.051568 -0.151866
C62   C     C_2   0.061888 0.568263 0.977826 -0.164044
C63   C     C_2   0.537498 0.065078 0.051568 -0.151866
C64   C     C_2   0.561888 0.068263 0.977826 -0.164044
C65   C     C_R   0.064973 0.650911 0.638555 0.550110
C66   C     C_R   0.968117 0.654004 0.355654 0.538154
C67   C     C_R   0.564973 0.150910 0.638555 0.550108
C68   C     C_R   0.468117 0.154003 0.355654 0.538154
C69   C     C_R   0.238568 0.464099 0.850173 0.548168
C70   C     C_R   0.761124 0.464362 0.149942 0.555787
C71   C     C_R   0.738568 0.964099 0.850173 0.548164
C72   C     C_R   0.261124 0.964362 0.149942 0.555788
C73   C     C_R   0.225347 0.869774 0.854533 0.545450
C74   C     C_R   0.774447 0.870538 0.145594 0.562179
C75   C     C_R   0.725347 0.369774 0.854533 0.545438
C76   C     C_R   0.274447 0.370538 0.145594 0.562179
C77   C     C_R   0.061933 0.648185 0.858432 0.571418
C78   C     C_R   0.972527 0.653101 0.150065 0.556066
C79   C     C_R   0.561933 0.148185 0.858432 0.571421
C80   C     C_R   0.472527 0.153101 0.150065 0.556067
C81   C     C_2   0.252115 0.909712 0.578426 0.280283
C82   C     C_2   0.783663 0.855144 0.432444 0.268592
C83   C     C_2   0.752117 0.409711 0.578425 0.280281
C84   C     C_2   0.283662 0.355154 0.432443 0.268567
C85   C     C_2   0.245553 0.922341 0.423490 -0.080491
C86   C     C_2   0.749069 0.904903 0.582174 -0.073055
C87   C     C_2   0.745554 0.422351 0.423492 -0.080471
C88   C     C_2   0.249067 0.404907 0.582173 -0.073035
C89   C     C_2   0.283219 0.840106 0.457096 -0.178424
C90   C     C_2   0.716822 0.951681 0.526294 -0.150319
C91   C     C_2   0.783212 0.340101 0.457095 -0.178396
C92   C     C_2   0.216820 0.451687 0.526294 -0.150315
Cr1   Cr    Cr6+3 0.113970 0.508630 0.747920 1.002391
Cr2   Cr    Cr6+3 0.886030 0.508630 0.252080 1.013548
Cr3   Cr    Cr6+3 0.613970 0.008630 0.747920 1.002385
Cr4   Cr    Cr6+3 0.386030 0.008630 0.252080 1.013541
Cr5   Cr    Cr6+3 0.269200 0.666740 0.749850 1.004278
Cr6   Cr    Cr6+3 0.730800 0.666740 0.250150 1.013818
Cr7   Cr    Cr6+3 0.769200 0.166740 0.749850 1.004274
Cr8   Cr    Cr6+3 0.230800 0.166740 0.250150 1.013818
Cr9   Cr    Cr6+3 0.112300 0.820070 0.749800 0.999275
Cr10  Cr    Cr6+3 0.887700 0.820070 0.250200 1.004357
Cr11  Cr    Cr6+3 0.612300 0.320070 0.749800 0.999271
Cr12  Cr    Cr6+3 0.387700 0.320070 0.250200 1.004357
H1    H     H_    0.320533 0.784345 0.428737 0.116058
H2    H     H_    0.685003 0.033041 0.531789 0.104822
H3    H     H_    0.820516 0.284324 0.428732 0.116051
H4    H     H_    0.185000 0.533046 0.531790 0.104820
H5    H     H_    0.131752 0.882899 0.953538 0.146311
H6    H     H_    0.867496 0.882394 0.046018 0.151143
H7    H     H_    0.631752 0.382900 0.953538 0.146311
H8    H     H_    0.367495 0.382394 0.046018 0.151143
H9    H     H_    0.291728 0.849529 0.060221 0.109806
H10   H     H_    0.706667 0.849654 0.940131 0.101227
H11   H     H_    0.791728 0.349529 0.060221 0.109806
H12   H     H_    0.206667 0.349654 0.940131 0.101227
H13   H     H_    0.292271 0.911136 0.945532 0.101374
H14   H     H_    0.707532 0.912991 0.055127 0.089902
H15   H     H_    0.792271 0.411136 0.945532 0.101372
H16   H     H_    0.207532 0.412991 0.055127 0.089902
H17   H     H_    0.033275 0.474846 0.075928 0.154003
H18   H     H_    0.090555 0.489368 0.958458 0.134520
H19   H     H_    0.533275 0.974846 0.075928 0.154003
H20   H     H_    0.590555 0.989369 0.958458 0.134520
H21   H     H_    0.022620 0.756709 0.064395 0.091618
H22   H     H_    0.012996 0.735131 0.949759 0.100019
H23   H     H_    0.522620 0.256709 0.064395 0.091618
H24   H     H_    0.512996 0.235131 0.949759 0.100019
H25   H     H_    0.268975 0.723274 0.549329 0.108101
H26   H     H_    0.679133 0.909258 0.420767 0.117668
H27   H     H_    0.768956 0.223268 0.549326 0.108085
H28   H     H_    0.179131 0.409264 0.420766 0.117667
H29   H     H_    0.204736 0.968678 0.451754 0.179701
H30   H     H_    0.779261 0.821979 0.579805 0.159563
H31   H     H_    0.704744 0.468704 0.451759 0.179694
H32   H     H_    0.279259 0.321983 0.579804 0.159541
H33   H     H_    0.082406 0.054102 0.397895 0.137868
H34   H     H_    0.095937 0.075617 0.526685 0.135632
H35   H     H_    0.582412 0.554094 0.397892 0.137871
H36   H     H_    0.595944 0.575608 0.526682 0.135618
H37   H     H_    0.048540 0.857762 0.347323 0.137052
H38   H     H_    0.071045 0.907662 0.603155 0.187091
H39   H     H_    0.548544 0.357754 0.347322 0.137050
H40   H     H_    0.571046 0.407658 0.603153 0.187091
H41   H     H_    0.904983 0.455312 0.423209 0.172493
H42   H     H_    0.093434 0.411052 0.591425 0.169214
H43   H     H_    0.405006 0.955267 0.423195 0.172480
H44   H     H_    0.593438 0.911053 0.591432 0.169222
H45   H     H_    0.026970 0.234330 0.556832 0.101171
H46   H     H_    0.929631 0.255723 0.473205 0.099001
H47   H     H_    0.526990 0.734321 0.556833 0.101170
H48   H     H_    0.429664 0.755691 0.473188 0.098992
H49   H     H_    0.146427 0.965101 0.073145 0.153190
H50   H     H_    0.853230 0.966455 0.926777 0.157843
H51   H     H_    0.646427 0.465101 0.073145 0.153190
H52   H     H_    0.353230 0.466455 0.926777 0.157844
O1    O     O_R   0.043230 0.549300 0.667990 -0.514438
O2    O     O_R   0.956770 0.549300 0.332010 -0.530401
O3    O     O_R   0.543230 0.049300 0.667990 -0.514440
O4    O     O_R   0.456770 0.049300 0.332010 -0.530410
O5    O     O_R   0.262920 0.788600 0.824420 -0.491676
O6    O     O_R   0.737080 0.788600 0.175580 -0.488969
O7    O     O_R   0.762920 0.288600 0.824420 -0.491679
O8    O     O_R   0.237080 0.288600 0.175580 -0.488969
O9    O     O_R   0.167530 0.905110 0.830340 -0.519853
O10   O     O_R   0.832470 0.905110 0.169660 -0.513744
O11   O     O_R   0.667530 0.405110 0.830340 -0.519856
O12   O     O_R   0.332470 0.405110 0.169660 -0.513744
O13   O     O_R   0.054010 0.748440 0.822860 -0.494963
O14   O     O_R   0.945990 0.748440 0.177140 -0.506852
O15   O     O_R   0.554010 0.248440 0.822860 -0.494958
O16   O     O_R   0.445990 0.248440 0.177140 -0.506852
O17   O     O_3   0.165160 0.665150 0.749190 -0.288753
O18   O     O_3   0.834840 0.665150 0.250810 -0.268508
O19   O     O_3   0.665160 0.165150 0.749190 -0.288746
O20   O     O_3   0.334840 0.165150 0.250810 -0.268506
O21   O     O_R   0.178620 0.457600 0.674100 -0.533997
O22   O     O_R   0.821380 0.457600 0.325900 -0.514434
O23   O     O_R   0.678620 0.957600 0.674100 -0.534006
O24   O     O_R   0.321380 0.957600 0.325900 -0.514436
O25   O     O_R   0.284680 0.542100 0.669460 -0.521424
O26   O     O_R   0.715320 0.542100 0.330540 -0.532264
O27   O     O_R   0.784680 0.042100 0.669460 -0.521421
O28   O     O_R   0.215320 0.042100 0.330540 -0.532259
O29   O     O_R   0.262860 0.790390 0.676650 -0.528540
O30   O     O_R   0.737140 0.790390 0.323350 -0.523632
O31   O     O_R   0.762860 0.290390 0.676650 -0.528533
O32   O     O_R   0.237140 0.290390 0.323350 -0.523630
O33   O     O_R   0.167460 0.907030 0.670940 -0.535543
O34   O     O_R   0.832540 0.907030 0.329060 -0.533416
O35   O     O_R   0.667460 0.407030 0.670940 -0.535561
O36   O     O_R   0.332540 0.407030 0.329060 -0.533409
O37   O     O_R   0.053950 0.750220 0.675100 -0.516343
O38   O     O_R   0.946050 0.750220 0.324900 -0.523896
O39   O     O_R   0.553950 0.250220 0.675100 -0.516340
O40   O     O_R   0.446050 0.250220 0.324900 -0.523892
O41   O     O_R   0.043300 0.547370 0.827390 -0.494285
O42   O     O_R   0.956700 0.547370 0.172610 -0.507686
O43   O     O_R   0.543300 0.047370 0.827390 -0.494283
O44   O     O_R   0.456700 0.047370 0.172610 -0.507686
O45   O     O_R   0.178690 0.455820 0.821860 -0.518431
O46   O     O_R   0.821310 0.455820 0.178140 -0.494594
O47   O     O_R   0.678690 0.955820 0.821860 -0.518433
O48   O     O_R   0.321310 0.955820 0.178140 -0.494594
O49   O     O_R   0.284750 0.540170 0.828860 -0.506332
O50   O     O_R   0.715250 0.540170 0.171140 -0.513654
O51   O     O_R   0.784750 0.040170 0.828860 -0.506331
O52   O     O_R   0.215250 0.040170 0.171140 -0.513654
O53   O     O_3   0.260332 0.033355 0.562503 -0.588135
C93   C     C_3   0.329446 0.070374 0.578785 -0.028431
H53   H     H_    0.344162 0.147703 0.543430 0.191476
H54   H     H_    0.368641 0.997569 0.568857 0.146519
C94   C     C_3   0.335208 0.113817 0.655318 -0.374058
H55   H     H_    0.334442 0.033779 0.691656 0.154854
H56   H     H_    0.385115 0.164852 0.662568 0.140682
H57   H     H_    0.291351 0.174892 0.669316 0.155973
O54   O     O_3   0.842876 0.856108 0.474185 -0.606664
C95   C     C_3   0.878570 0.970449 0.468320 0.006526
H58   H     H_    0.845385 0.047839 0.450187 0.122548
H59   H     H_    0.921958 0.960478 0.429933 0.181335
C96   C     C_3   0.908437 0.005610 0.539778 -0.380113
H60   H     H_    0.952858 0.069676 0.532593 0.096265
H61   H     H_    0.868830 0.053911 0.571529 0.167698
H62   H     H_    0.926029 0.922943 0.568717 0.182865
O55   O     O_3   0.760358 0.533350 0.562502 -0.588126
C97   C     C_3   0.829466 0.570355 0.578852 -0.028361
H63   H     H_    0.844221 0.647671 0.543497 0.191439
H64   H     H_    0.868673 0.497534 0.568970 0.146496
C98   C     C_3   0.835153 0.613832 0.655396 -0.374045
H65   H     H_    0.834365 0.533807 0.691742 0.154831
H66   H     H_    0.885055 0.664887 0.662693 0.140661
H67   H     H_    0.791270 0.674902 0.669347 0.155973
O56   O     O_3   0.342875 0.356119 0.474184 -0.606699
C99   C     C_3   0.378570 0.470458 0.468320 0.006527
H68   H     H_    0.345387 0.547849 0.450185 0.122555
H69   H     H_    0.421960 0.460484 0.429935 0.181336
C100  C     C_3   0.408435 0.505618 0.539779 -0.380110
H70   H     H_    0.452861 0.569673 0.532597 0.096268
H71   H     H_    0.368830 0.553929 0.571527 0.167692
H72   H     H_    0.426019 0.422950 0.568722 0.182866

loop_
_geom_bond_atom_site_label_1
_geom_bond_atom_site_label_2
_ccdc_geom_bond_type
C70   O46   A    
C81   O53   S    
C14   H38   S    
Cr10  O14   S    
C6    C82   D    
C87   C91   D    
C14   C18   A    
C7    C83   D    
C35   C36   A    
C74   O10   A    
C6    H26   S    
C43   C51   D    
Cr7   O31   S    
Cr8   O52   S    
C57   C62   D    
Cr12  O20   S    
C32   H43   S    
C94   H55   S    
C15   C19   A    
C75   O11   A    
C12   C23   A    
C51   H51   S    
C59   C64   D    
C50   C54   S    
C99   H69   S    
C30   H41   S    
C60   C63   D    
Cr3   O3    S    
C32   C36   A    
C14   C21   A    
C61   H17   S    
C16   H40   S    
C4    O24   A    
C48   O32   A    
C98   H67   S    
Cr9   O33   S    
C68   O40   A    
C93   H53   S    
C2    O26   A    
Cr6   O18   S    
C49   C53   S    
C9    C22   A    
C10   C65   S    
Cr5   O29   S    
Cr3   O47   S    
C80   O44   A    
C29   C33   A    
C11   C24   A    
C78   O14   A    
C54   H6    S    
C75   O7    A    
Cr2   O22   S    
C79   O15   A    
C18   H34   S    
C3    O23   A    
C9    C66   S    
Cr3   O19   S    
C71   O51   A    
C43   H11   S    
C46   C82   S    
Cr9   O17   S    
C92   H4    S    
C39   C55   D    
C88   C92   D    
Cr9   O37   S    
C43   C70   S    
C40   C56   D    
C17   C18   A    
Cr8   O20   S    
C73   O5    A    
C23   C24   A    
C29   H42   S    
Cr9   O13   S    
C8    C92   S    
C39   C75   S    
Cr1   O45   S    
O56   C99   S    
Cr7   O27   S    
C72   O48   A    
C37   C53   D    
C44   C52   D    
C1    C88   S    
C5    H25   S    
Cr10  O10   S    
C21   C22   A    
C3    C86   S    
Cr11  O15   S    
Cr8   O32   S    
C61   C62   S    
C35   H47   S    
C46   O34   A    
C67   O39   A    
Cr10  O38   S    
C41   C49   D    
Cr6   O6    S    
C86   H30   S    
C9    C26   A    
Cr4   O48   S    
C65   O37   A    
C94   H56   S    
C10   C21   A    
C25   C29   A    
C69   O45   A    
C12   C67   S    
C45   C81   S    
C79   O43   A    
C30   C34   A    
C12   C27   A    
C27   C31   A    
C83   O55   S    
C57   C77   S    
C28   C32   A    
Cr5   O17   S    
C90   H2    S    
C72   O52   A    
C15   H39   S    
C86   C90   D    
C59   C79   S    
C57   H22   S    
Cr11  O39   S    
C85   C89   D    
Cr3   O23   S    
C4    C85   S    
C51   C55   S    
C59   H24   S    
C64   H20   S    
C46   O30   A    
C48   C84   S    
C48   O36   A    
Cr7   O51   S    
Cr2   O42   S    
C99   C100  S    
Cr6   O26   S    
C71   O47   A    
C42   H10   S    
C8    H28   S    
C98   H65   S    
Cr6   O30   S    
C87   H31   S    
Cr12  O12   S    
C96   H60   S    
C5    C81   D    
C95   H59   S    
O53   C93   S    
C38   C54   D    
C16   C20   A    
C7    C91   S    
Cr11  O19   S    
O55   C97   S    
Cr12  O40   S    
Cr7   O19   S    
C2    C87   S    
Cr8   O8    S    
Cr11  O11   S    
Cr4   O24   S    
C67   O3    A    
Cr1   O1    S    
C66   O2    A    
C88   H32   S    
C42   C50   D    
C41   C72   S    
Cr2   O46   S    
C31   H44   S    
C50   H50   S    
C10   C25   A    
C65   O1    A    
C15   C24   A    
Cr4   O4    S    
C73   O9    A    
Cr2   O18   S    
C26   C30   A    
C16   C23   A    
C97   H64   S    
C100  H71   S    
Cr7   O7    S    
C76   O8    A    
C55   H7    S    
Cr11  O35   S    
C99   H68   S    
C80   O16   A    
C47   O31   A    
C68   O4    A    
C97   C98   S    
Cr12  O16   S    
C62   H18   S    
C11   C68   S    
C95   C96   S    
C74   O6    A    
C38   C74   S    
C94   H57   S    
C49   H49   S    
Cr4   O44   S    
C77   O13   A    
C37   C73   S    
C60   C80   S    
C1    O25   A    
Cr4   O20   S    
C40   H16   S    
C8    C84   D    
C69   O49   A    
C13   H37   S    
C60   H23   S    
C36   H48   S    
C41   H9    S    
C47   C83   S    
Cr2   O2    S    
C63   H19   S    
Cr5   O25   S    
Cr10  O18   S    
C70   O50   A    
C96   H62   S    
C93   C94   S    
C78   O42   A    
C93   H54   S    
C13   C17   A    
C3    O27   A    
C96   H61   S    
Cr5   O49   S    
C20   H36   S    
C19   C20   A    
C17   H33   S    
C84   O56   S    
C25   C26   A    
C7    H27   S    
C98   H66   S    
C6    C90   S    
Cr9   O9    S    
C45   O29   A    
C95   H58   S    
C82   O54   S    
C77   O41   A    
C11   C28   A    
C58   C61   D    
C39   H15   S    
Cr1   O41   S    
O54   C95   S    
Cr1   O17   S    
C42   C71   S    
Cr10  O34   S    
C33   H45   S    
C33   C34   A    
C13   C22   A    
C76   O12   A    
C31   C35   A    
C34   H46   S    
C47   O35   A    
C52   H52   S    
Cr8   O28   S    
C100  H70   S    
C4    O28   A    
C58   C78   S    
C63   C64   S    
C38   H14   S    
C40   C76   S    
C37   H13   S    
C44   H12   S    
C58   H21   S    
Cr3   O43   S    
C97   H63   S    
C100  H72   S    
C89   H1    S    
C27   C28   A    
C45   O33   A    
C44   C69   S    
Cr6   O50   S    
C53   H5    S    
C2    O22   A    
Cr1   O21   S    
C66   O38   A    
C1    O21   A    
C56   H8    S    
C19   H35   S    
C5    C89   S    
C52   C56   S    
Cr5   O5    S    
C85   H29   S    
C91   H3    S    
Cr12  O36   S    
