data_mof_unit_15088.cif
_audit_creation_date              2012-12-11T15:33:35-0500
_audit_creation_method            fapswitch 2.2
_symmetry_space_group_name_H-M    P1
_symmetry_Int_Tables_number       1
_space_group_crystal_system       triclinic
_cell_length_a                    27.130615
_cell_length_b                    7.200552
_cell_length_c                    22.747737
_cell_angle_alpha                 90.002605
_cell_angle_beta                  101.145307
_cell_angle_gamma                 90.00227
_cell_volume                      4360.08204543

loop_
_atom_site_label
_atom_site_type_symbol
_atom_type_description
_atom_site_fract_x
_atom_site_fract_y
_atom_site_fract_z
_atom_type_partial_charge
O1    O     O_R   0.207310 0.594030 0.676830 -0.533431
O2    O     O_R   0.792690 0.405970 0.323170 -0.531556
O3    O     O_R   0.292690 0.094030 0.823170 -0.533426
O4    O     O_R   0.707310 0.905970 0.176830 -0.531553
O5    O     O_R   0.197320 0.262370 0.795700 -0.540399
O6    O     O_R   0.802680 0.737630 0.204300 -0.540710
O7    O     O_R   0.302680 0.762370 0.704300 -0.540399
O8    O     O_R   0.697320 0.237630 0.295700 -0.540709
C1    C     C_R   0.184834 0.432283 0.812078 0.697019
C2    C     C_R   0.815466 0.567610 0.188282 0.697127
C3    C     C_R   0.315166 0.932283 0.687922 0.697002
C4    C     C_R   0.684534 0.067610 0.311717 0.697113
O9    O     O_R   0.201410 0.264250 0.675590 -0.533990
O10   O     O_R   0.798590 0.735750 0.324410 -0.535225
O11   O     O_R   0.298590 0.764250 0.824410 -0.533987
O12   O     O_R   0.701410 0.235750 0.175590 -0.535217
O13   O     O_R   0.296810 0.094940 0.702210 -0.538029
O14   O     O_R   0.703190 0.905060 0.297790 -0.538008
O15   O     O_R   0.203190 0.594940 0.797790 -0.538031
O16   O     O_R   0.796810 0.405060 0.202210 -0.538009
C5    C     C_R   0.189969 0.432533 0.653324 0.685577
C6    C     C_R   0.810310 0.567415 0.346447 0.685606
C7    C     C_R   0.310029 0.932547 0.846675 0.685582
C8    C     C_R   0.689691 0.067401 0.153553 0.685611
O17   O     O_3   0.281300 0.427390 0.758870 -0.372702
O18   O     O_3   0.718700 0.572610 0.241130 -0.373149
O19   O     O_3   0.218700 0.927390 0.741130 -0.372710
O20   O     O_3   0.781300 0.072610 0.258870 -0.373157
V1    V     V_3+5 0.244190 0.152150 0.748350 1.408228
V2    V     V_3+5 0.755810 0.847850 0.251650 1.408225
V3    V     V_3+5 0.255810 0.652150 0.751650 1.408222
V4    V     V_3+5 0.744190 0.347850 0.248350 1.408226
C9    C     C_R   0.654646 0.061840 0.095320 -0.038259
C10   C     C_R   0.344804 0.938275 0.905123 -0.036323
C11   C     C_R   0.845357 0.561923 0.404681 -0.038304
C12   C     C_R   0.155193 0.438193 0.594876 -0.036374
C13   C     C_R   0.639411 0.116409 0.988544 -0.155405
C14   C     C_R   0.359688 0.885870 0.012050 -0.160650
C15   C     C_R   0.860631 0.617212 0.511423 -0.155426
C16   C     C_R   0.140271 0.385083 0.487981 -0.160675
C17   C     C_R   0.672212 0.110112 0.043660 -0.160710
C18   C     C_R   0.326986 0.891859 0.956803 -0.169366
C19   C     C_R   0.827819 0.610691 0.456317 -0.160674
C20   C     C_R   0.172984 0.391287 0.543217 -0.169327
C21   C     C_R   0.603422 0.020474 0.091571 -0.213577
C22   C     C_R   0.396055 0.978806 0.909040 -0.210799
C23   C     C_R   0.896566 0.520283 0.408443 -0.213600
C24   C     C_R   0.103957 0.479002 0.590946 -0.210818
C25   C     C_R   0.568777 0.028972 0.035790 0.086178
C26   C     C_R   0.430551 0.971131 0.964929 0.085187
C27   C     C_R   0.931225 0.529031 0.464211 0.086168
C28   C     C_R   0.069448 0.471086 0.535069 0.085178
C29   C     C_R   0.588134 0.077494 0.984161 0.133980
C30   C     C_R   0.411067 0.923642 0.016548 0.140869
C31   C     C_R   0.911895 0.578056 0.515816 0.133984
C32   C     C_R   0.088905 0.423099 0.483474 0.140871
C33   C     C_R   0.515815 0.993415 0.029358 0.059596
C34   C     C_R   0.483497 0.006657 0.971416 0.056247
C35   C     C_R   0.984178 0.493272 0.470650 0.059595
C36   C     C_R   0.016511 0.506820 0.528575 0.056245
C37   C     C_R   0.505214 0.054727 0.921918 -0.183526
C38   C     C_R   0.494047 0.945815 0.078870 -0.186961
C39   C     C_R   0.994820 0.555388 0.578049 -0.183531
C40   C     C_R   0.005920 0.445181 0.421161 -0.186967
C41   C     C_R   0.556301 0.088989 0.928324 -0.193753
C42   C     C_R   0.442886 0.912217 0.072442 -0.202179
C43   C     C_R   0.943743 0.589839 0.571636 -0.193751
C44   C     C_R   0.057072 0.411394 0.427595 -0.202174
H1    H     H_    0.571070 0.126063 0.888880 0.130826
H2    H     H_    0.428055 0.875758 0.111899 0.122056
H3    H     H_    0.928995 0.627304 0.611062 0.130826
H4    H     H_    0.071883 0.374549 0.388157 0.122064
H5    H     H_    0.407672 0.011695 0.867581 0.096579
H6    H     H_    0.591925 0.986218 0.133007 0.093672
H7    H     H_    0.092358 0.512244 0.632390 0.096617
H8    H     H_    0.908045 0.485669 0.367024 0.093718
H9    H     H_    0.287634 0.859202 0.954283 0.107493
H10   H     H_    0.711478 0.143933 0.046106 0.112677
H11   H     H_    0.212322 0.358393 0.545748 0.107513
H12   H     H_    0.788567 0.644748 0.453860 0.112695
H13   H     H_    0.654135 0.154156 0.949148 0.121662
H14   H     H_    0.344805 0.849351 0.051442 0.112130
H15   H     H_    0.845928 0.655351 0.550799 0.121661
H16   H     H_    0.155134 0.348177 0.448607 0.112135
H17   H     H_    0.483686 0.067982 0.877139 0.127741
H18   H     H_    0.515591 0.932953 0.123669 0.122466
H19   H     H_    0.016362 0.568907 0.622813 0.127738
H20   H     H_    0.984363 0.432062 0.376377 0.122465
C45   C     C_R   0.632348 0.886581 0.372231 -0.171848
C46   C     C_R   0.374688 0.112551 0.637119 -0.176322
C47   C     C_R   0.867655 0.386579 0.127773 -0.171862
C48   C     C_R   0.125319 0.612555 0.862889 -0.176317
H21   H     H_    0.651616 0.760132 0.364191 0.142106
H22   H     H_    0.364884 0.239324 0.657764 0.143110
H23   H     H_    0.848388 0.260125 0.135814 0.142098
H24   H     H_    0.135127 0.739329 0.842250 0.143099
C49   C     C_R   0.595429 0.876013 0.407312 -0.212172
C50   C     C_R   0.409516 0.122668 0.599226 -0.210455
C51   C     C_R   0.904575 0.376014 0.092693 -0.212156
C52   C     C_R   0.090492 0.622674 0.900785 -0.210438
H25   H     H_    0.588054 0.742066 0.425414 0.197609
H26   H     H_    0.425680 0.256730 0.592681 0.198098
H27   H     H_    0.911951 0.242062 0.074593 0.197612
H28   H     H_    0.074334 0.756736 0.907335 0.198102
C53   C     C_R   0.568803 0.034763 0.419417 -0.076058
C54   C     C_R   0.423394 0.963532 0.570327 -0.076235
C55   C     C_R   0.931200 0.534771 0.080586 -0.076046
C56   C     C_R   0.076608 0.463537 0.929676 -0.076232
C57   C     C_R   0.579945 0.206673 0.394227 0.449997
C58   C     C_R   0.400830 0.791434 0.580511 0.450396
C59   C     C_R   0.920054 0.706686 0.105773 0.450004
C60   C     C_R   0.099166 0.291438 0.919484 0.450407
C61   C     C_R   0.618552 0.216894 0.360944 -0.232183
C62   C     C_R   0.367624 0.781606 0.620902 -0.229368
C63   C     C_R   0.881447 0.716902 0.139054 -0.232196
C64   C     C_R   0.132371 0.281608 0.879092 -0.229371
H29   H     H_    0.627434 0.350837 0.343992 0.134535
H30   H     H_    0.352095 0.647733 0.629199 0.132581
H31   H     H_    0.872561 0.850849 0.156003 0.134536
H32   H     H_    0.147895 0.147734 0.870789 0.132584
C65   C     C_R   0.644724 0.057241 0.348761 -0.103801
C66   C     C_R   0.353284 0.941871 0.648653 -0.102776
C67   C     C_R   0.855277 0.557243 0.151239 -0.103791
C68   C     C_R   0.146716 0.441873 0.851348 -0.102771
N1    N     N_R   0.510179 0.168954 0.480074 -0.236392
N2    N     N_R   0.481704 0.829317 0.509251 -0.236256
N3    N     N_R   0.989843 0.668961 0.019953 -0.236421
N4    N     N_R   0.018279 0.329322 0.990728 -0.236239
N5    N     N_R   0.476331 0.151569 0.515150 -0.287312
N6    N     N_R   0.515455 0.846701 0.474047 -0.286822
N7    N     N_R   0.023690 0.651575 0.984877 -0.287338
N8    N     N_R   0.984529 0.346708 0.025931 -0.286816
C69   C     C_R   0.461143 0.981293 0.530493 0.509332
C70   C     C_R   0.530430 0.016983 0.458427 0.509465
C71   C     C_R   0.038860 0.481298 0.969510 0.509327
C72   C     C_R   0.969573 0.516990 0.041575 0.509476
O21   O     O_3   0.555566 0.368815 0.404430 -0.564386
C73   C     C_3   0.510420 0.386750 0.361515 0.110376
H33   H     H_    0.483774 0.468121 0.382782 0.172074
H34   H     H_    0.491682 0.250925 0.348138 0.089485
C74   C     C_3   0.519469 0.492515 0.306031 -0.349101
H35   H     H_    0.539835 0.623825 0.320045 0.211360
H36   H     H_    0.542786 0.406956 0.281332 0.184862
C75   C     C_3   0.470085 0.538294 0.263829 -0.830709
H37   H     H_    0.449247 0.408742 0.248597 0.231792
H38   H     H_    0.477946 0.613316 0.223984 0.232328
H39   H     H_    0.446425 0.628349 0.286761 0.229332
O22   O     O_3   0.412571 0.629027 0.553776 -0.564596
C76   C     C_3   0.380893 0.608757 0.496816 0.113087
H40   H     H_    0.401532 0.522918 0.468934 0.172141
H41   H     H_    0.372415 0.743415 0.472618 0.091017
C77   C     C_3   0.331986 0.508131 0.501804 -0.357169
H42   H     H_    0.340777 0.379772 0.528822 0.210724
H43   H     H_    0.308390 0.599279 0.524425 0.183699
C78   C     C_3   0.301873 0.456262 0.440218 -0.829789
H44   H     H_    0.292273 0.582803 0.412432 0.231164
H45   H     H_    0.266483 0.386251 0.445399 0.229625
H46   H     H_    0.323794 0.359804 0.417081 0.231056
O23   O     O_3   0.944428 0.868839 0.095564 -0.564389
C79   C     C_3   0.989570 0.886848 0.138483 0.110372
H47   H     H_    0.016204 0.968310 0.117225 0.172091
H48   H     H_    0.008326 0.751055 0.151845 0.089512
C80   C     C_3   0.980506 0.992526 0.193979 -0.349157
H49   H     H_    0.960099 0.123754 0.179979 0.211359
H50   H     H_    0.957220 0.906840 0.218684 0.184858
C81   C     C_3   0.029883 0.038495 0.236168 -0.830697
H51   H     H_    0.050767 0.909029 0.251379 0.231794
H52   H     H_    0.022011 0.113415 0.276027 0.232294
H53   H     H_    0.053506 0.128708 0.213234 0.229337
O24   O     O_3   0.087419 0.129030 0.946211 -0.564602
C82   C     C_3   0.119091 0.108767 0.003175 0.113076
H54   H     H_    0.098456 0.022859 0.031041 0.172168
H55   H     H_    0.127550 0.243419 0.027386 0.091028
C83   C     C_3   0.168013 0.008249 0.998189 -0.357213
H56   H     H_    0.159242 0.879917 0.971146 0.210717
H57   H     H_    0.191608 0.099484 0.975594 0.183695
C84   C     C_3   0.198115 0.956339 0.059774 -0.829778
H58   H     H_    0.207691 0.082851 0.087586 0.231158
H59   H     H_    0.233518 0.886428 0.054595 0.229612
H60   H     H_    0.176198 0.859781 0.082881 0.231070

loop_
_geom_bond_atom_site_label_1
_geom_bond_atom_site_label_2
_ccdc_geom_bond_type
N1    C70   A    
O17   V3    S    
C51   H27   S    
C82   H54   S    
O1    C5    A    
O19   V1    S    
C9    C21   A    
C16   H16   S    
O3    C7    A    
C80   H49   S    
C10   C18   A    
C48   H24   S    
O15   V3    S    
C25   C33   A    
C33   C38   A    
C5    C12   S    
O7    C3    A    
C6    C11   S    
C38   H18   S    
C35   C40   A    
C26   C30   A    
C36   C39   A    
C40   C44   A    
O2    V4    S    
O9    V1    S    
C80   H50   S    
C23   H8    S    
C14   C18   A    
C24   C28   A    
N7    C71   A    
C48   C68   A    
C54   C58   A    
O4    C8    A    
C25   C29   A    
N8    C72   A    
C44   H4    S    
C78   H45   S    
O24   C82   S    
N2    N6    A    
O1    V3    S    
C1    C68   S    
O13   V1    S    
C57   O21   S    
O3    V1    S    
C59   O23   S    
C83   H56   S    
C28   C36   A    
C74   H35   S    
C1    O15   A    
C52   H28   S    
C60   O24   S    
C4    C65   S    
N2    C69   A    
C2    O16   A    
C84   H59   S    
O2    C6    A    
C10   C22   A    
C11   C19   A    
C58   C62   A    
C43   H3    S    
C57   C61   A    
C13   C29   A    
C7    C10   S    
C34   C37   A    
O11   C7    A    
C11   C23   A    
C35   C36   A    
O12   C8    A    
C47   C67   A    
C14   H14   S    
C78   H46   S    
C81   H52   S    
C46   C66   A    
C24   H7    S    
C13   H13   S    
N6    C70   A    
O10   V2    S    
C75   H39   S    
C58   O22   S    
N4    N8    A    
C46   H22   S    
O5    V1    S    
C54   C69   S    
C82   C83   S    
C15   C31   A    
C52   C56   A    
O7    V3    S    
C38   C42   A    
C26   C34   A    
C79   C80   S    
C80   C81   S    
C63   C67   A    
O22   C76   S    
C56   C71   S    
C75   H38   S    
C2    C67   S    
C76   C77   S    
C17   H10   S    
O18   V4    S    
C23   C27   A    
C76   H41   S    
C16   C32   A    
C19   H12   S    
C32   C44   A    
C47   H23   S    
C45   H21   S    
O4    V2    S    
C64   H32   S    
C45   C49   A    
C21   H6    S    
C79   H48   S    
C39   C43   A    
O5    C1    A    
C55   C72   S    
C37   C41   A    
C82   H55   S    
C31   C43   A    
O23   C79   S    
C14   C30   A    
C77   C78   S    
C21   C25   A    
O8    C4    A    
C84   H60   S    
O9    C5    A    
N3    C72   A    
C83   C84   S    
C62   H30   S    
C37   H17   S    
C18   H9    S    
C61   H29   S    
O6    V2    S    
C77   H43   S    
C63   H31   S    
N1    N5    A    
C81   H51   S    
N5    C69   A    
C74   C75   S    
C3    C66   S    
C27   C35   A    
C60   C64   A    
C29   C41   A    
C48   C52   A    
O16   V4    S    
C53   C57   A    
C3    O13   A    
C64   C68   A    
C39   H19   S    
C55   C59   A    
C20   H11   S    
C75   H37   S    
C73   C74   S    
O6    C2    A    
C15   C19   A    
O11   V3    S    
C73   H34   S    
O12   V4    S    
C51   C55   A    
O21   C73   S    
C22   C26   A    
C8    C9    S    
C50   C54   A    
C9    C17   A    
C79   H47   S    
O10   C6    A    
N3    N7    A    
C74   H36   S    
C49   C53   A    
C50   H26   S    
C76   H40   S    
C33   C34   A    
C42   H2    S    
O8    V4    S    
C45   C65   A    
C41   H1    S    
O20   V2    S    
C46   C50   A    
C12   C24   A    
C27   C31   A    
C13   C17   A    
N4    C71   A    
C83   H57   S    
C12   C20   A    
C73   H33   S    
O14   V2    S    
C15   H15   S    
C62   C66   A    
C56   C60   A    
C16   C20   A    
C61   C65   A    
C77   H42   S    
C81   H53   S    
C84   H58   S    
C4    O14   A    
C78   H44   S    
C59   C63   A    
C47   C51   A    
C30   C42   A    
C40   H20   S    
C22   H5    S    
C49   H25   S    
C28   C32   A    
C53   C70   S    
