data_mof_unit_39887.cif
_audit_creation_date              2012-10-26T18:26:36-0400
_audit_creation_method            fapswitch 2.2
_symmetry_space_group_name_H-M    P1
_symmetry_Int_Tables_number       1
_space_group_crystal_system       triclinic
_cell_length_a                    15.820934
_cell_length_b                    8.681648
_cell_length_c                    7.498253
_cell_angle_alpha                 103.07729
_cell_angle_beta                  94.051042
_cell_angle_gamma                 92.633119
_cell_volume                      998.647878565

loop_
_atom_site_label
_atom_site_type_symbol
_atom_type_description
_atom_site_fract_x
_atom_site_fract_y
_atom_site_fract_z
_atom_type_partial_charge
C1    C     C_R   0.497437 0.199887 0.453271 0.547731
C2    C     C_3   0.978813 0.648772 0.570644 0.096340
C3    C     C_1   0.250456 0.499223 0.505741 -0.022880
C4    C     C_1   0.749544 0.500716 0.494250 -0.022822
C5    C     C_3   0.036010 0.549964 0.670767 0.005031
C6    C     C_3   0.963997 0.449956 0.329291 0.005110
C7    C     C_3   0.082583 0.498986 0.496344 0.025000
C8    C     C_3   0.917421 0.500930 0.503699 0.024951
C9    C     C_1   0.174675 0.499065 0.501382 -0.019690
C10   C     C_1   0.825325 0.500853 0.498629 -0.019734
C11   C     C_R   0.911273 0.402643 0.148830 0.035619
C12   C     C_R   0.502563 0.800113 0.546729 0.547757
C13   C     C_R   0.880197 0.521763 0.067913 -0.094740
C14   C     C_R   0.815394 0.485066 0.926286 -0.105908
C15   C     C_R   0.782625 0.328499 0.860560 -0.096379
C16   C     C_R   0.813980 0.208941 0.938482 -0.098779
C17   C     C_R   0.877275 0.245931 0.083744 -0.067170
C18   C     C_R   0.088759 0.597174 0.851214 0.035429
C19   C     C_R   0.122521 0.753954 0.916794 -0.067362
C20   C     C_R   0.185787 0.790941 0.062131 -0.098998
C21   C     C_R   0.217291 0.671342 0.139746 -0.096457
C22   C     C_R   0.184749 0.514700 0.073553 -0.105736
C23   C     C_R   0.340074 0.499254 0.502205 0.543099
C24   C     C_R   0.120004 0.477966 0.931784 -0.094667
C25   C     C_R   0.659926 0.500725 0.497790 0.543136
C26   C     C_2   0.496130 0.031724 0.427328 -0.154676
C27   C     C_2   0.503871 0.968276 0.572672 -0.154680
C28   C     C_3   0.973757 0.401812 0.605176 -0.116214
C29   C     C_3   0.026246 0.598107 0.394874 -0.116116
C30   C     C_3   0.021191 0.351151 0.429407 0.096340
Cu1   Cu    Cu3+1 0.509330 0.517380 0.684380 0.958754
Cu2   Cu    Cu3+1 0.490670 0.482620 0.315620 0.958743
H1    H     H_    0.950447 0.322708 0.690957 0.161099
H2    H     H_    0.787240 0.088347 0.890320 0.144683
H3    H     H_    0.896331 0.153514 0.150338 0.166519
H4    H     H_    0.103306 0.846460 0.850550 0.166682
H5    H     H_    0.212341 0.911572 0.110688 0.144951
H6    H     H_    0.267760 0.700239 0.249090 0.139215
H7    H     H_    0.210673 0.420578 0.128838 0.145806
H8    H     H_    0.097601 0.355279 0.878326 0.144948
H9    H     H_    0.049557 0.677209 0.309097 0.161021
H10   H     H_    0.488770 0.959812 0.287461 0.134840
H11   H     H_    0.511231 0.040188 0.712539 0.134821
H12   H     H_    0.433858 0.377412 0.949562 0.241650
H13   H     H_    0.566142 0.622588 0.050438 0.241665
H14   H     H_    0.902778 0.644385 0.120993 0.144926
H15   H     H_    0.789572 0.579150 0.870817 0.145851
H16   H     H_    0.732106 0.299616 0.751342 0.139232
I1    I     I_    0.064890 0.120296 0.329377 -0.453841
I2    I     I_    0.935010 0.879608 0.670537 -0.453581
N1    N     N_2   0.476600 0.456420 0.038510 -0.256829
N2    N     N_2   0.523400 0.543580 0.961490 -0.256824
O1    O     O_R   0.506070 0.286130 0.619780 -0.507090
O2    O     O_R   0.493930 0.713870 0.380220 -0.507062
O3    O     O_R   0.490300 0.256770 0.308360 -0.495176
O4    O     O_R   0.509700 0.743230 0.691640 -0.495164
O5    O     O_R   0.386960 0.514660 0.655680 -0.490336
O6    O     O_R   0.613040 0.485340 0.344320 -0.490352
O7    O     O_R   0.371190 0.485310 0.344260 -0.510855
O8    O     O_R   0.628810 0.514690 0.655740 -0.510827

loop_
_geom_bond_atom_site_label_1
_geom_bond_atom_site_label_2
_ccdc_geom_bond_type
Cu1   O8    S    
Cu2   N1    S    
C14   H15   S    
C3    C9    T    
C25   O8    A    
C13   C14   A    
Cu1   O4    S    
C5    C28   S    
C17   H3    S    
Cu2   O3    S    
C3    C23   S    
C19   C20   A    
H13   N2    S    
Cu2   O6    S    
Cu1   N2    S    
C16   H2    S    
Cu1   O5    S    
C28   C30   S    
C4    C25   S    
C1    O3    A    
C7    C30   S    
Cu1   Cu2   S    
C21   C22   A    
Cu1   O1    S    
C23   O7    A    
C20   H5    S    
C11   C13   A    
C26   C27   D    
C12   O4    A    
C15   H16   S    
C2    C29   S    
C7    C29   S    
C22   H7    S    
H12   N1    S    
Cu2   O2    S    
C6    C30   S    
C30   I1    S    
C28   H1    S    
C7    C9    S    
C19   H4    S    
C1    C26   S    
C8    C28   S    
C22   C24   A    
C24   H8    S    
C2    C5    S    
C25   O6    A    
C12   C27   S    
C4    C10   T    
N1    N2    D    
C27   H11   S    
C6    C29   S    
C20   C21   A    
C26   H10   S    
C18   C24   A    
C5    C7    S    
C18   C19   A    
C2    C8    S    
C6    C11   S    
C23   O5    A    
C1    O1    A    
C13   H14   S    
C11   C17   A    
C6    C8    S    
C5    C18   S    
C2    I2    S    
Cu2   O7    S    
C29   H9    S    
C14   C15   A    
C8    C10   S    
C12   O2    A    
C21   H6    S    
C15   C16   A    
C16   C17   A    
