data_mof_unit_60657.cif
_audit_creation_date              2012-12-10T16:48:50-0500
_audit_creation_method            fapswitch 2.2
_symmetry_space_group_name_H-M    P1
_symmetry_Int_Tables_number       1
_space_group_crystal_system       triclinic
_cell_length_a                    18.4484
_cell_length_b                    18.347656
_cell_length_c                    18.406253
_cell_angle_alpha                 119.669719
_cell_angle_beta                  119.733307
_cell_angle_gamma                 90.447907
_cell_volume                      4427.83799303

loop_
_atom_site_label
_atom_site_type_symbol
_atom_type_description
_atom_site_fract_x
_atom_site_fract_y
_atom_site_fract_z
_atom_type_partial_charge
C1    C     C_R   0.138257 0.361069 0.000652 0.867541
C2    C     C_2   0.805482 0.694300 0.997690 -0.338380
C3    C     C_2   0.719145 0.281417 0.443832 -0.167959
C4    C     C_R   0.862844 0.640122 0.001039 0.833387
C5    C     C_2   0.696699 0.192455 0.387794 -0.294416
C6    C     C_2   0.778161 0.337676 0.556192 -0.160695
C7    C     C_2   0.802553 0.304543 0.612191 -0.297541
C8    C     C_2   0.333956 0.279673 0.085262 0.124019
C9    C     C_2   0.307908 0.196650 0.002084 -0.339463
C10   C     C_2   0.279734 0.336898 0.072730 -0.180656
C11   C     C_2   0.191387 0.303605 0.007206 -0.343397
C12   C     C_3   0.780096 0.358920 0.079323 -0.379050
C13   C     C_2   0.217249 0.781527 0.942806 -0.163589
C14   C     C_2   0.305350 0.813538 0.009361 -0.290942
C15   C     C_2   0.161902 0.730394 0.947735 -0.173899
C16   C     C_R   0.138390 0.639784 0.276884 0.848483
C17   C     C_2   0.194967 0.689411 0.993826 -0.282402
C18   C     C_2   0.221909 0.780240 0.555841 -0.189553
C19   C     C_2   0.307526 0.788100 0.613698 -0.122581
C20   C     C_2   0.163595 0.717957 0.444049 -0.114039
C21   C     C_2   0.194452 0.701820 0.387283 -0.226353
C22   C     C_R   0.638797 0.138464 0.277097 0.849110
C23   C     C_3   0.800883 0.301088 0.000349 0.194006
C24   C     C_R   0.361626 0.859209 0.722891 0.757181
C25   C     C_R   0.639618 0.862360 0.001277 0.866848
C26   C     C_R   0.361904 0.139064 0.001955 0.833995
C27   C     C_R   0.359577 0.860729 0.001405 0.862851
C28   C     C_R   0.861000 0.361378 0.722895 0.854666
C29   C     C_R   0.641493 0.141540 0.000222 0.748047
C30   C     C_R   0.140353 0.639886 0.999183 0.856443
C31   C     C_R   0.858602 0.358575 0.000022 0.748077
C32   C     C_3   0.711846 0.241330 0.893287 -0.395319
C33   C     C_3   0.652124 0.181734 0.893425 -0.393962
C34   C     C_3   0.699257 0.199632 0.000585 0.196830
C35   C     C_3   0.847637 0.240405 0.028973 -0.392606
C36   C     C_3   0.875499 0.773162 0.956332 -0.343831
C37   C     C_3   0.887467 0.860419 0.964177 -0.390029
C38   C     C_3   0.966854 0.883121 0.963492 -0.879500
C39   C     C_3   0.419188 0.316380 0.190118 -0.354005
C40   C     C_3   0.423302 0.395278 0.280761 -0.375991
C41   C     C_3   0.503531 0.418369 0.382507 -0.867225
C42   C     C_2   0.348400 0.721811 0.576147 0.386483
C43   C     C_3   0.787936 0.180800 0.029135 -0.395651
C44   C     C_3   0.720776 0.299690 0.079453 -0.383598
C45   C     C_2   0.736729 0.793841 0.956800 -0.184356
C46   C     C_2   0.703520 0.815825 0.012050 -0.343118
C47   C     C_2   0.806426 0.752301 0.972438 0.125054
H1    H     H_    0.724317 0.198491 0.834863 0.180358
H2    H     H_    0.801193 0.409107 0.593564 0.174421
H3    H     H_    0.676898 0.283539 0.871289 0.154518
H4    H     H_    0.778734 0.234210 0.578171 0.149308
H5    H     H_    0.246210 0.170619 0.928671 0.139196
H6    H     H_    0.313058 0.408286 0.120726 0.177144
H7    H     H_    0.156016 0.232935 0.961705 0.157556
H8    H     H_    0.184373 0.793197 0.883534 0.181062
H9    H     H_    0.339484 0.808050 0.073270 0.148290
H10   H     H_    0.092464 0.725118 0.910859 0.176220
H11   H     H_    0.262595 0.689450 0.026540 0.147570
H12   H     H_    0.755173 0.314907 0.157483 0.176956
H13   H     H_    0.193468 0.824229 0.591483 0.158586
H14   H     H_    0.588420 0.195245 0.871492 0.154067
H15   H     H_    0.093627 0.689368 0.408333 0.165503
H16   H     H_    0.263200 0.735027 0.422690 0.147155
H17   H     H_    0.636151 0.110529 0.835021 0.179504
H18   H     H_    0.862969 0.197543 0.973410 0.180088
H19   H     H_    0.774909 0.109572 0.973678 0.178779
H20   H     H_    0.842770 0.402410 0.157326 0.178725
H21   H     H_    0.745983 0.403068 0.060628 0.176558
H22   H     H_    0.658394 0.315579 0.060786 0.176077
H23   H     H_    0.911650 0.281943 0.105859 0.158396
H24   H     H_    0.028930 0.893356 0.030500 0.260865
H25   H     H_    0.958017 0.828627 0.892205 0.260540
H26   H     H_    0.972949 0.945390 0.967333 0.253076
H27   H     H_    0.827559 0.853921 0.898208 0.219790
H28   H     H_    0.898007 0.916001 0.036140 0.233721
H29   H     H_    0.940852 0.779206 0.016114 0.204393
H30   H     H_    0.857097 0.717184 0.880053 0.217095
H31   H     H_    0.499050 0.361197 0.388199 0.260439
H32   H     H_    0.565715 0.435747 0.389824 0.257192
H33   H     H_    0.505717 0.476382 0.446503 0.259720
H34   H     H_    0.823202 0.193639 0.106100 0.155399
H35   H     H_    0.428964 0.455090 0.279859 0.222732
H36   H     H_    0.362153 0.378379 0.275580 0.241526
H37   H     H_    0.425105 0.262306 0.202039 0.206775
H38   H     H_    0.476768 0.337166 0.191352 0.216588
H39   H     H_    0.419396 0.742337 0.612652 0.076835
H40   H     H_    0.714242 0.809163 0.900824 0.174489
H41   H     H_    0.727758 0.805031 0.071806 0.158526
H42   H     H_    0.757439 0.681748 0.011333 0.139615
H43   H     H_    0.694635 0.315242 0.406484 0.172761
H44   H     H_    0.721552 0.156415 0.421782 0.150257
O1    O     O_3   0.000000 0.500000 0.000000 -0.483502
O2    O     O_R   0.324760 0.053850 0.939900 -0.638096
O3    O     O_R   0.443270 0.883090 0.060070 -0.648361
O4    O     O_R   0.053940 0.324750 0.939940 -0.645561
O5    O     O_R   0.616890 0.176890 0.060090 -0.650057
O6    O     O_R   0.323100 0.883090 0.939900 -0.644668
O7    O     O_R   0.616910 0.056740 0.939940 -0.647890
O8    O     O_R   0.615250 0.885990 0.939940 -0.646022
O9    O     O_R   0.446110 0.175200 0.060060 -0.652705
O10   O     O_R   0.614030 0.053850 0.229160 -0.645154
O11   O     O_R   0.324790 0.884790 0.770830 -0.630549
O12   O     O_R   0.053880 0.613970 0.229150 -0.648445
O13   O     O_R   0.884790 0.613970 0.060060 -0.638943
O14   O     O_R   0.175250 0.615170 0.229170 -0.638839
O15   O     O_R   0.886020 0.446110 0.770840 -0.642546
O16   O     O_R   0.176940 0.616860 0.060100 -0.649289
O17   O     O_R   0.883150 0.323060 0.939910 -0.647306
O18   O     O_R   0.056770 0.616860 0.939930 -0.651261
O19   O     O_R   0.883130 0.443210 0.060060 -0.647755
O20   O     O_2   0.304438 0.643131 0.508712 -0.557815
O21   O     O_R   0.884840 0.324750 0.770840 -0.645921
O22   O     O_R   0.175280 0.446110 0.060100 -0.639973
O23   O     O_R   0.885990 0.615170 0.939900 -0.652875
O24   O     O_3   0.500040 0.999960 0.000000 -0.479449
O25   O     O_R   0.615200 0.175200 0.229160 -0.647907
O26   O     O_R   0.446160 0.885990 0.770850 -0.659471
O27   O     O_R   0.614060 0.884790 0.060100 -0.643177
Zn1   Zn    Zn3+2 0.956210 0.542060 0.085830 0.959008
Zn2   Zn    Zn3+2 0.129620 0.543770 0.085850 0.969465
Zn3   Zn    Zn3+2 0.957930 0.543770 0.914160 0.949211
Zn4   Zn    Zn3+2 0.956240 0.370390 0.914160 0.963397
Zn5   Zn    Zn3+2 0.543830 0.957900 0.914170 0.952376
Zn6   Zn    Zn3+2 0.542120 0.956180 0.085840 0.968843
Zn7   Zn    Zn3+2 0.370430 0.956180 0.914150 0.969085
Zn8   Zn    Zn3+2 0.543800 0.129560 0.085840 0.944867

loop_
_geom_bond_atom_site_label_1
_geom_bond_atom_site_label_2
_ccdc_geom_bond_type
C14   H9    S    
C37   H27   S    
C16   C21   S    
C30   O16   A    
C32   H1    S    
C31   O17   A    
C1    C11   S    
O11   Zn7   S    
C33   H14   S    
C25   O27   A    
C41   H33   S    
C45   C46   D    
C28   O21   A    
C12   H21   S    
C12   C23   S    
C24   O26   A    
O24   Zn8   S    
C29   O7    A    
C3    H43   S    
O9    Zn8   S    
C4    O23   A    
C36   C37   S    
C45   H40   S    
O1    Zn1   S    
C39   H37   S    
C36   H30   S    
C43   H19   S    
C35   H18   S    
C44   H12   S    
C36   C47   S    
C18   C19   D    
C10   H6    S    
C36   H29   S    
O23   Zn3   S    
C25   O8    A    
C5    C22   S    
C35   H23   S    
C28   O15   A    
C8    C9    D    
O14   Zn2   S    
C42   H39   S    
C8    C39   S    
C14   C27   S    
C35   C43   S    
C24   O11   A    
C19   C42   S    
C17   H11   S    
O13   Zn1   S    
C3    C6    S    
C26   O2    A    
C22   O25   A    
C37   H28   S    
O25   Zn8   S    
C13   C14   D    
C20   H15   S    
C17   C30   S    
C15   H10   S    
C40   H36   S    
C9    H5    S    
C1    O22   A    
C9    C26   S    
C46   H41   S    
C45   C47   S    
O7    Zn5   S    
C12   H20   S    
C38   H25   S    
O10   Zn6   S    
O24   Zn5   S    
C30   O18   A    
C40   H35   S    
C34   C44   S    
O6    Zn7   S    
C41   H31   S    
C29   C34   S    
C7    C28   S    
C23   C31   S    
C2    H42   S    
C2    C4    S    
C42   O20   D    
O21   Zn4   S    
C37   C38   S    
O1    Zn4   S    
O22   Zn2   S    
C16   O12   A    
C1    O4    A    
C33   C34   S    
O5    Zn8   S    
C44   H22   S    
O27   Zn6   S    
C22   O10   A    
C32   H3    S    
C5    H44   S    
C11   H7    S    
C16   O14   A    
O4    Zn4   S    
C18   H13   S    
C40   C41   S    
C23   C35   S    
C13   C15   S    
C43   H34   S    
C39   H38   S    
O16   Zn2   S    
C39   C40   S    
O8    Zn5   S    
C15   C17   D    
C38   H24   S    
C27   O6    A    
O24   Zn6   S    
O12   Zn1   S    
C34   C43   S    
O17   Zn4   S    
C3    C5    D    
O19   Zn1   S    
C41   H32   S    
C29   O5    A    
C6    C7    D    
C2    C47   D    
O24   Zn7   S    
C23   C32   S    
C19   C24   S    
O26   Zn5   S    
C7    H4    S    
C12   C44   S    
O1    Zn3   S    
C32   C33   S    
O18   Zn3   S    
C33   H17   S    
C4    O13   A    
O15   Zn3   S    
C31   O19   A    
C18   C20   S    
C6    H2    S    
O1    Zn2   S    
O2    Zn7   S    
C21   H16   S    
C10   C11   D    
C20   C21   D    
C8    C10   S    
C27   O3    A    
C25   C46   S    
C26   O9    A    
C13   H8    S    
C38   H26   S    
O3    Zn6   S    
