data_mof_unit_63953.cif
_audit_creation_date              2012-12-10T17:20:38-0500
_audit_creation_method            fapswitch 2.2
_symmetry_space_group_name_H-M    P1
_symmetry_Int_Tables_number       1
_space_group_crystal_system       triclinic
_cell_length_a                    10.197463
_cell_length_b                    10.85554
_cell_length_c                    13.639339
_cell_angle_alpha                 91.470501
_cell_angle_beta                  74.868704
_cell_angle_gamma                 95.248758
_cell_volume                      1451.40018261

loop_
_atom_site_label
_atom_site_type_symbol
_atom_type_description
_atom_site_fract_x
_atom_site_fract_y
_atom_site_fract_z
_atom_type_partial_charge
C1    C     C_R   0.557076 0.732272 0.491358 0.935656
C2    C     C_R   0.443557 0.267650 0.504321 0.935052
C3    C     C_R   0.476870 0.503433 0.688215 0.892706
C4    C     C_R   0.523131 0.496567 0.311782 0.886063
C5    C     C_1   0.540169 0.494078 0.206286 -0.146464
C6    C     C_1   0.459828 0.505902 0.793716 -0.149294
C7    C     C_2   0.556830 0.491777 0.012985 -0.152182
C8    C     C_2   0.443156 0.508166 0.987020 -0.151479
C9    C     C_2   0.925555 0.508782 0.508873 -0.024714
C10   C     C_2   0.073308 0.488382 0.493613 -0.026554
C11   C     C_1   0.447951 0.507574 0.882693 0.030653
C12   C     C_1   0.552040 0.492387 0.117310 0.030526
C13   C     C_2   0.590437 0.863739 0.479378 -0.354242
C14   C     C_2   0.412599 0.135868 0.499732 -0.355452
C15   C     C_2   0.490806 0.933724 0.476602 -0.135663
C16   C     C_2   0.516462 0.065285 0.473494 -0.135331
H1    H     H_    0.347958 0.521788 0.043138 0.171839
H2    H     H_    0.652029 0.478158 0.956867 0.171466
H3    H     H_    0.622220 0.104107 0.454735 0.210728
H4    H     H_    0.386965 0.894629 0.482160 0.207147
H5    H     H_    0.307102 0.096567 0.518541 0.168074
H6    H     H_    0.693968 0.903319 0.473981 0.167159
H7    H     H_    0.117908 0.417355 0.441778 0.165559
H8    H     H_    0.879794 0.576938 0.563244 0.165182
N1    N     N_2   0.847200 0.448220 0.460120 -0.042027
N2    N     N_2   0.152800 0.551780 0.539880 -0.042456
O1    O     O_R   0.430150 0.692610 0.508030 -0.591084
O2    O     O_R   0.569850 0.307390 0.491970 -0.592277
O3    O     O_R   0.653100 0.659360 0.482430 -0.616713
O4    O     O_R   0.346900 0.340640 0.517570 -0.617855
O5    O     O_R   0.372470 0.518990 0.654990 -0.579597
O6    O     O_R   0.627530 0.481010 0.345010 -0.581232
O7    O     O_R   0.595430 0.485740 0.629390 -0.615652
O8    O     O_R   0.404570 0.514260 0.370610 -0.616660
Zn1   Zn    Zn3+2 0.351130 0.522200 0.517090 1.005736
Zn2   Zn    Zn3+2 0.648870 0.477800 0.482910 1.005639
I1    I     I_    0.087260 0.693668 0.641934 -0.307754
I2    I     I_    0.915787 0.313922 0.351362 -0.314501

loop_
_geom_bond_atom_site_label_1
_geom_bond_atom_site_label_2
_ccdc_geom_bond_type
C9    H8    S    
N1    I2    S    
C9    C10   S    
C8    H1    S    
C13   C15   D    
C2    O4    A    
C7    H2    S    
C10   N2    D    
C1    O3    A    
C9    N1    D    
C7    C8    D    
N2    I1    S    
C3    O5    A    
O3    Zn2   S    
C4    O6    A    
O4    Zn1   S    
C16   H3    S    
O6    Zn2   S    
C14   H5    S    
C13   H6    S    
O5    Zn1   S    
C8    C11   S    
C4    O8    A    
C15   H4    S    
C2    C14   S    
C14   C16   D    
C7    C12   S    
C1    C13   S    
C3    O7    A    
N1    Zn2   S    
C15   C16   S    
N2    Zn1   S    
O7    Zn2   S    
O2    Zn2   S    
C5    C12   T    
O8    Zn1   S    
C3    C6    S    
C6    C11   T    
C1    O1    A    
C10   H7    S    
C2    O2    A    
O1    Zn1   S    
C4    C5    S    
