data_mof_unit_8238.cif
_audit_creation_date              2012-12-10T17:00:37-0500
_audit_creation_method            fapswitch 2.2
_symmetry_space_group_name_H-M    P1
_symmetry_Int_Tables_number       1
_space_group_crystal_system       triclinic
_cell_length_a                    22.03451
_cell_length_b                    21.971124
_cell_length_c                    21.998446
_cell_angle_alpha                 90.194274
_cell_angle_beta                  91.516079
_cell_angle_gamma                 90.256544
_cell_volume                      10646.0521616

loop_
_atom_site_label
_atom_site_type_symbol
_atom_type_description
_atom_site_fract_x
_atom_site_fract_y
_atom_site_fract_z
_atom_type_partial_charge
C1    C     C_R   0.499814 0.118645 0.998211 0.957336
C2    C     C_R   0.007107 0.118584 0.501231 0.944716
C3    C     C_R   0.500656 0.881590 0.995751 0.927517
C4    C     C_R   0.994302 0.880996 0.500320 0.917253
C5    C     C_R   0.881144 0.999137 0.500498 0.941982
C6    C     C_R   0.881174 0.500302 0.000499 0.971470
C7    C     C_R   0.118882 0.000158 0.501672 0.944113
C8    C     C_R   0.118801 0.500200 0.001983 0.965949
C9    C     C_R   0.000705 0.499669 0.881122 0.973770
C10   C     C_R   0.499448 0.999076 0.881280 0.948786
C11   C     C_R   0.002039 0.499970 0.118683 0.969758
C12   C     C_R   0.500949 0.006146 0.118788 0.931457
C13   C     C_R   0.999748 0.618492 0.492780 0.957064
C14   C     C_R   0.498574 0.618767 0.999470 0.983025
C15   C     C_R   0.998588 0.380996 0.498596 0.948632
C16   C     C_R   0.502120 0.381479 0.999776 0.984129
C17   C     C_R   0.381452 0.502337 0.999158 0.966217
C18   C     C_R   0.381053 0.000712 0.494061 0.916610
C19   C     C_R   0.618503 0.500044 0.000598 0.975172
C20   C     C_R   0.618482 0.999209 0.498749 0.944189
C21   C     C_R   0.494606 0.999670 0.380987 0.916170
C22   C     C_R   0.998883 0.497384 0.381397 0.963011
C23   C     C_R   0.503897 0.000695 0.618651 0.954466
C24   C     C_R   0.000865 0.498752 0.618426 0.916778
C25   C     C_R   0.416307 0.920530 0.800390 0.224775
C26   C     C_R   0.187190 0.894109 0.465075 0.154714
C27   C     C_R   0.602499 0.960696 0.208164 0.356664
C28   C     C_R   0.809565 0.899131 0.567208 0.276128
C29   C     C_R   0.438092 0.110526 0.191386 0.281325
C30   C     C_R   0.201784 0.085604 0.582879 0.240150
C31   C     C_R   0.583575 0.077336 0.817942 0.225537
C32   C     C_R   0.804762 0.100244 0.451586 0.210329
C33   C     C_R   0.105375 0.196349 0.440317 0.216731
C34   C     C_R   0.097755 0.566641 0.196963 0.225404
C35   C     C_R   0.043847 0.793868 0.600085 0.367875
C36   C     C_R   0.094194 0.425008 0.807393 0.272241
C37   C     C_R   0.906355 0.814310 0.416772 0.240358
C38   C     C_R   0.925765 0.415417 0.180788 0.209796
C39   C     C_R   0.955885 0.190849 0.601424 0.295173
C40   C     C_R   0.915453 0.577555 0.801951 0.236586
C41   C     C_R   0.810174 0.569421 0.098684 0.266057
C42   C     C_R   0.470853 0.812372 0.101581 0.167868
C43   C     C_R   0.197533 0.439839 0.101313 0.248703
C44   C     C_R   0.585303 0.186382 0.074955 0.254507
C45   C     C_R   0.183365 0.584345 0.924981 0.262170
C46   C     C_R   0.550672 0.808180 0.890581 0.288211
C47   C     C_R   0.804619 0.444659 0.897714 0.258458
C48   C     C_R   0.434898 0.190761 0.898787 0.280033
C49   C     C_R   0.923712 0.404647 0.304188 0.278197
C50   C     C_R   0.684401 0.425208 0.917189 0.245481
C51   C     C_R   0.060154 0.403358 0.688104 0.239959
C52   C     C_R   0.317065 0.420975 0.076953 0.235316
C53   C     C_R   0.957895 0.600429 0.686755 0.195840
C54   C     C_R   0.686654 0.578647 0.083465 0.251030
C55   C     C_R   0.078077 0.575550 0.318519 0.236414
C56   C     C_R   0.306014 0.601715 0.936178 0.264402
C57   C     C_R   0.560459 0.685204 0.901775 0.273478
C58   C     C_R   0.606729 0.058043 0.697325 0.250582
C59   C     C_R   0.601766 0.308399 0.063161 0.288174
C60   C     C_R   0.541189 0.901016 0.300178 0.296912
C61   C     C_R   0.438186 0.314303 0.902740 0.246882
C62   C     C_R   0.398172 0.965724 0.683824 0.171380
C63   C     C_R   0.421100 0.698072 0.079068 0.212256
C64   C     C_R   0.423071 0.092480 0.313171 0.294159
C65   C     C_R   0.310478 0.111249 0.530990 0.354353
C66   C     C_R   0.898699 0.295276 0.559465 0.301799
C67   C     C_R   0.685649 0.903613 0.564699 0.273027
C68   C     C_R   0.100801 0.702904 0.534451 0.366140
C69   C     C_R   0.689891 0.064433 0.410216 0.207965
C70   C     C_R   0.077027 0.315985 0.418701 0.204729
C71   C     C_R   0.300837 0.913928 0.417083 0.260232
C72   C     C_R   0.913215 0.689604 0.402133 0.263900
C73   C     C_R   0.367353 0.899042 0.763741 0.362344
C74   C     C_R   0.209606 0.852429 0.422912 0.360933
C75   C     C_R   0.629739 0.910745 0.238110 0.384569
C76   C     C_R   0.775651 0.846639 0.581059 0.348410
C77   C     C_R   0.422942 0.160325 0.228175 0.302768
C78   C     C_R   0.244111 0.122639 0.614622 0.348551
C79   C     C_R   0.640026 0.094083 0.796480 0.340173
C80   C     C_R   0.771543 0.137710 0.411252 0.388019
C81   C     C_R   0.145189 0.233397 0.408308 0.384828
C82   C     C_R   0.140763 0.594958 0.236034 0.357714
C83   C     C_R   0.097760 0.767475 0.623499 0.354294
C84   C     C_R   0.132700 0.391577 0.769526 0.315710
C85   C     C_R   0.877195 0.787011 0.367105 0.357417
C86   C     C_R   0.910185 0.359313 0.204552 0.345450
C87   C     C_R   0.899176 0.204610 0.623116 0.342853
C88   C     C_R   0.886914 0.621698 0.764605 0.360965
C89   C     C_R   0.775395 0.596748 0.144185 0.356988
C90   C     C_R   0.426436 0.790050 0.140247 0.368031
C91   C     C_R   0.236904 0.417574 0.147162 0.386975
C92   C     C_R   0.641858 0.211159 0.090226 0.324514
C93   C     C_R   0.207303 0.640536 0.909732 0.351978
C94   C     C_R   0.557366 0.773235 0.837816 0.406721
C95   C     C_R   0.766212 0.426802 0.848785 0.350877
C96   C     C_R   0.426687 0.223854 0.844738 0.398358
C97   C     C_R   0.902852 0.356480 0.266601 0.399420
C98   C     C_R   0.706627 0.412224 0.860333 0.347748
C99   C     C_R   0.111815 0.375244 0.711660 0.347879
C100  C     C_R   0.296792 0.406762 0.134541 0.366275
C101  C     C_R   0.909411 0.634341 0.707516 0.377524
C102  C     C_R   0.713271 0.599285 0.137289 0.363481
C103  C     C_R   0.134294 0.592271 0.297913 0.299299
C104  C     C_R   0.268899 0.650700 0.918446 0.331677
C105  C     C_R   0.563999 0.710501 0.843715 0.327394
C106  C     C_R   0.650810 0.086092 0.735406 0.383275
C107  C     C_R   0.651988 0.272254 0.078331 0.328484
C108  C     C_R   0.598011 0.879432 0.282778 0.366144
C109  C     C_R   0.434095 0.286469 0.845882 0.316124
C110  C     C_R   0.357891 0.922066 0.705398 0.346878
C111  C     C_R   0.398878 0.734490 0.126131 0.398623
C112  C     C_R   0.412491 0.150204 0.289608 0.332381
C113  C     C_R   0.294873 0.142036 0.583744 0.385374
C114  C     C_R   0.870750 0.257468 0.603026 0.345694
C115  C     C_R   0.712990 0.847962 0.574400 0.323533
C116  C     C_R   0.128466 0.724426 0.588321 0.390021
C117  C     C_R   0.715684 0.117820 0.387067 0.380474
C118  C     C_R   0.133456 0.294642 0.401150 0.365725
C119  C     C_R   0.265635 0.863865 0.397275 0.362803
C120  C     C_R   0.876448 0.724456 0.362639 0.341612
C121  C     C_R   0.453324 0.978499 0.715405 -0.104028
C122  C     C_R   0.278077 0.956579 0.460038 -0.129886
C123  C     C_R   0.520345 0.957714 0.278251 -0.126777
C124  C     C_R   0.717083 0.951101 0.534304 -0.100726
C125  C     C_R   0.458729 0.049699 0.282069 -0.147675
C126  C     C_R   0.282255 0.054211 0.515947 -0.068646
C127  C     C_R   0.552303 0.031737 0.721219 -0.085518
C128  C     C_R   0.717651 0.034869 0.460857 -0.115610
C129  C     C_R   0.041289 0.283567 0.460764 -0.097686
C130  C     C_R   0.039323 0.535690 0.284524 -0.118114
C131  C     C_R   0.041112 0.721466 0.517989 -0.159470
C132  C     C_R   0.034525 0.453477 0.718186 -0.124227
C133  C     C_R   0.952826 0.717670 0.447636 -0.117885
C134  C     C_R   0.960482 0.453749 0.279546 -0.073693
C135  C     C_R   0.955742 0.277116 0.532341 -0.054509
C136  C     C_R   0.975706 0.546788 0.716931 -0.127661
C137  C     C_R   0.717833 0.538601 0.043592 -0.101782
C138  C     C_R   0.467162 0.720855 0.040470 -0.118775
C139  C     C_R   0.284461 0.462886 0.039009 -0.103785
C140  C     C_R   0.548319 0.281783 0.033563 -0.137884
C141  C     C_R   0.280514 0.548677 0.965475 -0.105903
C142  C     C_R   0.529292 0.716659 0.948530 -0.091907
C143  C     C_R   0.716299 0.465382 0.957979 -0.108254
C144  C     C_R   0.467436 0.283172 0.952568 -0.074713
C145  C     C_R   0.962354 0.457314 0.215063 -0.083311
C146  C     C_R   0.780021 0.470586 0.952728 -0.119386
C147  C     C_R   0.043409 0.459116 0.781945 -0.085074
C148  C     C_R   0.220973 0.467568 0.047122 -0.091156
C149  C     C_R   0.963788 0.540301 0.779243 -0.092815
C150  C     C_R   0.782389 0.536027 0.047681 -0.071226
C151  C     C_R   0.046365 0.533540 0.220762 -0.095069
C152  C     C_R   0.216154 0.543505 0.963807 -0.119004
C153  C     C_R   0.527852 0.781215 0.944913 -0.107506
C154  C     C_R   0.544710 0.036514 0.784914 -0.081153
C155  C     C_R   0.543393 0.217487 0.035539 -0.150856
C156  C     C_R   0.542416 0.978099 0.222682 -0.104191
C157  C     C_R   0.465866 0.218448 0.951070 -0.077830
C158  C     C_R   0.457008 0.965848 0.778052 -0.082925
C159  C     C_R   0.481532 0.783019 0.045735 -0.115312
C160  C     C_R   0.464923 0.057156 0.218002 -0.109513
C161  C     C_R   0.221588 0.046158 0.534743 -0.079353
C162  C     C_R   0.976739 0.218206 0.547484 -0.094645
C163  C     C_R   0.781817 0.949866 0.535091 -0.090700
C164  C     C_R   0.020965 0.776812 0.541295 -0.102191
C165  C     C_R   0.779903 0.044418 0.472542 -0.108460
C166  C     C_R   0.052813 0.220593 0.468245 -0.100683
C167  C     C_R   0.216470 0.950652 0.475952 -0.117627
C168  C     C_R   0.948280 0.782525 0.455126 -0.132555
C169  C     C_R   0.504040 0.003720 0.685825 0.015072
C170  C     C_R   0.313094 0.005061 0.486492 0.032485
C171  C     C_R   0.486395 0.999292 0.312870 0.052421
C172  C     C_R   0.685363 0.995534 0.498685 0.000800
C173  C     C_R   0.994786 0.313064 0.494178 0.053077
C174  C     C_R   0.996773 0.497077 0.314149 0.040679
C175  C     C_R   0.999216 0.686145 0.482877 0.043958
C176  C     C_R   0.003311 0.499163 0.685517 -0.012725
C177  C     C_R   0.685449 0.500687 0.001493 0.035407
C178  C     C_R   0.498482 0.686027 0.996632 0.037391
C179  C     C_R   0.314498 0.502806 0.997982 0.027409
C180  C     C_R   0.503774 0.314582 0.998099 0.026328
C181  C     C_R   0.002666 0.498847 0.185713 0.040425
C182  C     C_R   0.814019 0.501730 0.000910 0.032987
C183  C     C_R   0.001927 0.498732 0.813864 0.041797
C184  C     C_R   0.186059 0.501487 0.002946 0.038780
C185  C     C_R   0.504664 0.814543 0.995375 0.017834
C186  C     C_R   0.499662 0.000366 0.814053 0.034471
C187  C     C_R   0.499787 0.185858 0.997295 0.038988
C188  C     C_R   0.503832 0.015906 0.186507 0.013093
C189  C     C_R   0.186450 0.998488 0.506376 0.042800
C190  C     C_R   0.014424 0.186389 0.506355 0.038817
C191  C     C_R   0.813786 0.998366 0.504058 -0.002260
C192  C     C_R   0.983945 0.813053 0.501795 0.020208
Cu1   Cu    Cu3+1 0.561820 0.000000 0.000000 1.138335
Cu2   Cu    Cu3+1 1.000000 0.000000 0.561820 1.176872
Cu3   Cu    Cu3+1 0.438180 0.000000 0.000000 1.114736
Cu4   Cu    Cu3+1 0.000000 0.000000 0.438180 1.103131
Cu5   Cu    Cu3+1 0.000000 0.438180 0.000000 1.140254
Cu6   Cu    Cu3+1 0.000000 0.561820 0.000000 1.185731
Cu7   Cu    Cu3+1 0.061820 0.500000 0.500000 1.038671
Cu8   Cu    Cu3+1 0.500000 0.500000 0.061820 1.123621
Cu9   Cu    Cu3+1 0.938180 0.500000 0.500000 1.140027
Cu10  Cu    Cu3+1 0.500000 0.500000 0.938180 1.091513
Cu11  Cu    Cu3+1 0.500000 0.938180 0.500000 1.099635
Cu12  Cu    Cu3+1 0.500000 0.061820 0.500000 1.145554
O1    O     O_R   0.552210 0.090180 0.999970 -0.552923
O2    O     O_R   0.000030 0.090180 0.552210 -0.531565
O3    O     O_R   0.447790 0.090180 0.000030 -0.492678
O4    O     O_R   0.999970 0.090180 0.447790 -0.536228
O5    O     O_R   0.552210 0.909820 0.000030 -0.526029
O6    O     O_R   0.000030 0.909820 0.447790 -0.585699
O7    O     O_R   0.447790 0.909820 0.999970 -0.584563
O8    O     O_R   0.999970 0.909820 0.552210 -0.494495
O9    O     O_R   0.909820 0.000030 0.552210 -0.568039
O10   O     O_R   0.909820 0.447790 0.000030 -0.541860
O11   O     O_R   0.909820 0.999970 0.447790 -0.517561
O12   O     O_R   0.909820 0.552210 0.999970 -0.518795
O13   O     O_R   0.090180 0.999970 0.552210 -0.530716
O14   O     O_R   0.090180 0.552210 0.000030 -0.541198
O15   O     O_R   0.090180 0.000030 0.447790 -0.567541
O16   O     O_R   0.090180 0.447790 0.999970 -0.507174
O17   O     O_R   0.999970 0.447790 0.909820 -0.519047
O18   O     O_R   0.552210 0.999970 0.909820 -0.558678
O19   O     O_R   0.000030 0.552210 0.909820 -0.522974
O20   O     O_R   0.447790 0.000030 0.909820 -0.525960
O21   O     O_R   0.000030 0.447790 0.090180 -0.571389
O22   O     O_R   0.447790 0.999970 0.090180 -0.576668
O23   O     O_R   0.999970 0.552210 0.090180 -0.506993
O24   O     O_R   0.552210 0.000030 0.090180 -0.497876
O25   O     O_R   0.052210 0.590180 0.499970 -0.526499
O26   O     O_R   0.500030 0.590180 0.052210 -0.524600
O27   O     O_R   0.947790 0.590180 0.500030 -0.576824
O28   O     O_R   0.499970 0.590180 0.947790 -0.556535
O29   O     O_R   0.052210 0.409820 0.500030 -0.588484
O30   O     O_R   0.500030 0.409820 0.947790 -0.560777
O31   O     O_R   0.947790 0.409820 0.499970 -0.488062
O32   O     O_R   0.499970 0.409820 0.052210 -0.545560
O33   O     O_R   0.409820 0.500030 0.052210 -0.575214
O34   O     O_R   0.409820 0.947790 0.500030 -0.581254
O35   O     O_R   0.409820 0.499970 0.947790 -0.517097
O36   O     O_R   0.409820 0.052210 0.499970 -0.505932
O37   O     O_R   0.590180 0.499970 0.052210 -0.523980
O38   O     O_R   0.590180 0.052210 0.500030 -0.550393
O39   O     O_R   0.590180 0.500030 0.947790 -0.551656
O40   O     O_R   0.590180 0.947790 0.499970 -0.578381
O41   O     O_R   0.499970 0.947790 0.409820 -0.535916
O42   O     O_R   0.052210 0.499970 0.409820 -0.605934
O43   O     O_R   0.500030 0.052210 0.409820 -0.569294
O44   O     O_R   0.947790 0.500030 0.409820 -0.486668
O45   O     O_R   0.500030 0.947790 0.590180 -0.568602
O46   O     O_R   0.947790 0.499970 0.590180 -0.581758
O47   O     O_R   0.499970 0.052210 0.590180 -0.524674
O48   O     O_R   0.052210 0.500030 0.590180 -0.569178
O49   O     O_3   0.680340 0.128830 0.831488 -0.554492
C193  C     C_3   0.705326 0.092337 0.878359 -0.161985
H1    H     H_    0.724755 0.049394 0.860278 0.156814
H2    H     H_    0.671176 0.082032 0.913235 0.195347
H3    H     H_    0.742932 0.118004 0.901273 0.176281
O50   O     O_3   0.231488 0.148840 0.670283 -0.585733
C194  C     C_3   0.226103 0.102738 0.714583 -0.226227
H4    H     H_    0.260987 0.066443 0.710371 0.185209
H5    H     H_    0.180001 0.082216 0.712867 0.223508
H6    H     H_    0.232506 0.123624 0.760234 0.170388
O51   O     O_3   0.408213 0.216106 0.202867 -0.529789
C195  C     C_3   0.462163 0.246619 0.187715 -0.120793
H7    H     H_    0.480124 0.227991 0.144992 0.208209
H8    H     H_    0.497511 0.244797 0.224900 0.113473
H9    H     H_    0.451588 0.295210 0.179491 0.198052
O52   O     O_3   0.796367 0.191910 0.391712 -0.509146
C196  C     C_3   0.773218 0.239617 0.427295 -0.157058
H10   H     H_    0.798141 0.282066 0.416781 0.236142
H11   H     H_    0.780042 0.231252 0.476948 0.190668
H12   H     H_    0.724315 0.247281 0.416276 0.128752
O53   O     O_3   0.688406 0.893680 0.225635 -0.547710
C197  C     C_3   0.686364 0.854172 0.174976 -0.184741
H13   H     H_    0.671715 0.878704 0.132965 0.213360
H14   H     H_    0.655966 0.814448 0.182460 0.165439
H15   H     H_    0.732655 0.836303 0.167892 0.163714
O54   O     O_3   0.180991 0.797161 0.410567 -0.482225
C198  C     C_3   0.121295 0.806052 0.386991 -0.104597
H16   H     H_    0.111392 0.853303 0.371202 0.097915
H17   H     H_    0.088168 0.793080 0.421778 0.210871
H18   H     H_    0.113601 0.775162 0.347548 0.180874
O55   O     O_3   0.329573 0.853411 0.784171 -0.516011
C199  C     C_3   0.280848 0.880599 0.814282 -0.196398
H19   H     H_    0.255362 0.912861 0.784253 0.154495
H20   H     H_    0.296879 0.904231 0.856577 0.176544
H21   H     H_    0.248716 0.844301 0.827540 0.177719
O56   O     O_3   0.803443 0.795273 0.605098 -0.561857
C200  C     C_3   0.809468 0.800801 0.669393 -0.089187
H22   H     H_    0.785313 0.840335 0.689510 0.120926
H23   H     H_    0.858253 0.804110 0.682765 0.274518
H24   H     H_    0.791782 0.759006 0.690792 0.162390
O57   O     O_3   0.873497 0.169843 0.668046 -0.560383
C201  C     C_3   0.850201 0.115531 0.641834 -0.125608
H25   H     H_    0.887347 0.086840 0.624727 0.200486
H26   H     H_    0.816036 0.124978 0.604890 0.172447
H27   H     H_    0.827015 0.089246 0.677291 0.218350
O58   O     O_3   0.885049 0.313501 0.168192 -0.540342
C202  C     C_3   0.927525 0.294991 0.125030 -0.179171
H28   H     H_    0.971826 0.282566 0.147135 0.163176
H29   H     H_    0.934208 0.330583 0.089995 0.191826
H30   H     H_    0.909509 0.253883 0.101242 0.172549
O59   O     O_3   0.850212 0.822509 0.321986 -0.536317
C203  C     C_3   0.786932 0.826551 0.329747 -0.084655
H31   H     H_    0.773844 0.875220 0.327690 0.226362
H32   H     H_    0.770854 0.808000 0.373685 0.105400
H33   H     H_    0.762969 0.802889 0.291455 0.173147
O60   O     O_3   0.840882 0.657637 0.786673 -0.499113
C204  C     C_3   0.784049 0.634929 0.765333 -0.175084
H34   H     H_    0.764992 0.603958 0.799816 0.200912
H35   H     H_    0.785372 0.610974 0.720677 0.083842
H36   H     H_    0.752430 0.673763 0.759599 0.192119
O61   O     O_3   0.119625 0.782746 0.681077 -0.573735
C205  C     C_3   0.154097 0.836643 0.677206 -0.136082
H37   H     H_    0.125828 0.875531 0.661028 0.203955
H38   H     H_    0.193368 0.830324 0.647209 0.199035
H39   H     H_    0.172257 0.848360 0.723240 0.170184
O62   O     O_3   0.187374 0.630213 0.213786 -0.507049
C206  C     C_3   0.167693 0.691508 0.210417 -0.147551
H40   H     H_    0.130801 0.703714 0.242133 0.148038
H41   H     H_    0.151999 0.701850 0.163181 0.166498
H42   H     H_    0.206610 0.721720 0.222412 0.160340
O63   O     O_3   0.196293 0.208625 0.383053 -0.521427
C207  C     C_3   0.181702 0.190743 0.322606 -0.159301
H43   H     H_    0.134290 0.173369 0.315905 0.158343
H44   H     H_    0.212033 0.152879 0.310013 0.186527
H45   H     H_    0.189594 0.229340 0.291264 0.188977
O64   O     O_3   0.186389 0.366797 0.792018 -0.534290
C208  C     C_3   0.232533 0.411292 0.788611 -0.136898
H46   H     H_    0.222651 0.451809 0.817210 0.191706
H47   H     H_    0.239590 0.425377 0.740754 0.131159
H48   H     H_    0.275704 0.391476 0.806326 0.224088
O65   O     O_3   0.789868 0.410130 0.793547 -0.532410
C209  C     C_3   0.783285 0.459696 0.753508 -0.245568
H49   H     H_    0.807022 0.448977 0.710982 0.186342
H50   H     H_    0.804460 0.501783 0.772805 0.162929
H51   H     H_    0.734591 0.467659 0.741462 0.171120
O66   O     O_3   0.571594 0.802186 0.784031 -0.505206
C210  C     C_3   0.528671 0.786591 0.737653 -0.211279
H52   H     H_    0.526114 0.824500 0.704500 0.199334
H53   H     H_    0.481919 0.779113 0.754573 0.150345
H54   H     H_    0.543928 0.745698 0.712645 0.172214
O67   O     O_3   0.170021 0.684261 0.883161 -0.537731
C211  C     C_3   0.181429 0.689731 0.820387 -0.083136
H55   H     H_    0.137729 0.684805 0.794547 0.201006
H56   H     H_    0.213283 0.655269 0.802072 0.123269
H57   H     H_    0.199763 0.735852 0.811486 0.177550
O68   O     O_3   0.412467 0.193892 0.790593 -0.517309
C212  C     C_3   0.350676 0.203085 0.774654 -0.070600
H58   H     H_    0.320291 0.197624 0.814017 0.144869
H59   H     H_    0.337110 0.168406 0.740213 0.219728
H60   H     H_    0.343604 0.248332 0.753400 0.191853
O69   O     O_3   0.215064 0.398203 0.202219 -0.484385
C213  C     C_3   0.215744 0.447512 0.243795 -0.183998
H61   H     H_    0.169089 0.454411 0.260158 0.180551
H62   H     H_    0.232152 0.491843 0.225496 0.129824
H63   H     H_    0.245514 0.435593 0.283409 0.161709
O70   O     O_3   0.410866 0.819611 0.193414 -0.489950
C214  C     C_3   0.389758 0.879090 0.180954 -0.120882
H64   H     H_    0.373632 0.886346 0.133023 0.102005
H65   H     H_    0.425878 0.912561 0.192991 0.207290
H66   H     H_    0.351007 0.888789 0.210526 0.166256
O71   O     O_3   0.802545 0.624217 0.194984 -0.505561
C215  C     C_3   0.819086 0.685089 0.181297 -0.069900
H67   H     H_    0.813654 0.698056 0.132391 0.101691
H68   H     H_    0.867474 0.692222 0.194857 0.237414
H69   H     H_    0.791887 0.716950 0.208472 0.149808
O72   O     O_3   0.685470 0.175663 0.119594 -0.530355
C216  C     C_3   0.691782 0.193555 0.181252 -0.045938
H70   H     H_    0.713045 0.155677 0.207194 0.232966
H71   H     H_    0.647410 0.203295 0.202424 0.141245
H72   H     H_    0.722437 0.233586 0.186196 0.162364
O73   O     O_3   0.175717 0.622515 0.335515 -0.475922
C217  C     C_3   0.206114 0.578738 0.371663 -0.097883
H73   H     H_    0.229657 0.544663 0.343110 0.075138
H74   H     H_    0.174337 0.555399 0.402669 0.161155
H75   H     H_    0.241215 0.602135 0.400270 0.218862
O74   O     O_3   0.678046 0.620672 0.184135 -0.528026
C218  C     C_3   0.670476 0.684477 0.180691 -0.140582
H76   H     H_    0.621448 0.694602 0.174036 0.222349
H77   H     H_    0.695504 0.707187 0.143513 0.117282
H78   H     H_    0.685349 0.705136 0.224704 0.156631
O75   O     O_3   0.884970 0.681993 0.674017 -0.532053
C219  C     C_3   0.862565 0.660996 0.616623 -0.148499
H79   H     H_    0.859825 0.610428 0.611557 0.110892
H80   H     H_    0.891232 0.679841 0.580260 0.225578
H81   H     H_    0.815742 0.678199 0.609070 0.182156
O76   O     O_3   0.293739 0.703908 0.896269 -0.518910
C220  C     C_3   0.301526 0.745209 0.944941 -0.189288
H82   H     H_    0.317909 0.789156 0.926740 0.210952
H83   H     H_    0.336471 0.728695 0.978199 0.183098
H84   H     H_    0.257915 0.754102 0.967829 0.135742
O77   O     O_3   0.143325 0.334636 0.676107 -0.566844
C221  C     C_3   0.134090 0.274946 0.697525 -0.086575
H85   H     H_    0.149442 0.242560 0.662450 0.225160
H86   H     H_    0.085297 0.264964 0.705291 0.202811
H87   H     H_    0.161618 0.266467 0.739663 0.188072
O78   O     O_3   0.670308 0.383382 0.816565 -0.557216
C222  C     C_3   0.682642 0.320190 0.815457 -0.138920
H88   H     H_    0.643244 0.295196 0.833686 0.207204
H89   H     H_    0.724362 0.306198 0.841527 0.152736
H90   H     H_    0.687701 0.306013 0.767591 0.144372
O79   O     O_3   0.874850 0.305696 0.290785 -0.493439
C223  C     C_3   0.811112 0.311896 0.284237 -0.120160
H91   H     H_    0.795914 0.329523 0.238922 0.175627
H92   H     H_    0.793680 0.342075 0.320338 0.165887
H93   H     H_    0.789889 0.266409 0.289381 0.202451
O80   O     O_3   0.331699 0.373163 0.175408 -0.504298
C224  C     C_3   0.379348 0.410285 0.198755 -0.232556
H94   H     H_    0.362910 0.455583 0.214130 0.138938
H95   H     H_    0.415327 0.416089 0.164746 0.198749
H96   H     H_    0.400211 0.387442 0.238999 0.175364
O81   O     O_3   0.349708 0.715309 0.158750 -0.483789
C225  C     C_3   0.296095 0.738308 0.130571 -0.196953
H97   H     H_    0.261163 0.701826 0.130102 0.226240
H98   H     H_    0.300654 0.752715 0.082203 0.091762
H99   H     H_    0.279615 0.777677 0.157116 0.124714
O82   O     O_3   0.306734 0.904044 0.671875 -0.561607
C226  C     C_3   0.324826 0.872357 0.619374 -0.181182
H100  H     H_    0.362063 0.839470 0.629354 0.141698
H101  H     H_    0.338414 0.904679 0.583706 0.195429
H102  H     H_    0.285722 0.845905 0.600740 0.193739
O83   O     O_3   0.422611 0.319565 0.793337 -0.560616
C227  C     C_3   0.471299 0.360149 0.783957 -0.180580
H103  H     H_    0.516136 0.336902 0.787577 0.164099
H104  H     H_    0.470107 0.399219 0.816125 0.192412
H105  H     H_    0.466640 0.378763 0.737281 0.171083
O84   O     O_3   0.392760 0.195653 0.328344 -0.536655
C228  C     C_3   0.336435 0.219667 0.308192 -0.016845
H106  H     H_    0.310180 0.231801 0.348654 0.222597
H107  H     H_    0.308562 0.187078 0.280232 0.131065
H108  H     H_    0.343722 0.262301 0.282431 0.193752
O85   O     O_3   0.707206 0.299262 0.093814 -0.526030
C229  C     C_3   0.749359 0.284584 0.048944 -0.146651
H109  H     H_    0.789316 0.315177 0.054695 0.216688
H110  H     H_    0.730520 0.291525 0.001937 0.155566
H111  H     H_    0.765535 0.237020 0.054555 0.171746
O86   O     O_3   0.704508 0.107654 0.711887 -0.533624
C230  C     C_3   0.698259 0.170272 0.698811 -0.162582
H112  H     H_    0.653958 0.181354 0.675847 0.160181
H113  H     H_    0.734319 0.183588 0.667261 0.215500
H114  H     H_    0.704403 0.197898 0.740832 0.168361
O87   O     O_3   0.589304 0.678262 0.796550 -0.541019
C231  C     C_3   0.548986 0.631266 0.778013 -0.265622
H115  H     H_    0.502976 0.649250 0.766203 0.146599
H116  H     H_    0.545819 0.595355 0.813256 0.208964
H117  H     H_    0.566752 0.609641 0.736538 0.174477
O88   O     O_3   0.622251 0.826658 0.307322 -0.556275
C232  C     C_3   0.639416 0.837691 0.368733 -0.222485
H118  H     H_    0.599468 0.845807 0.397381 0.211640
H119  H     H_    0.671535 0.876829 0.373288 0.159352
H120  H     H_    0.662619 0.796690 0.386951 0.170587
O89   O     O_3   0.289448 0.822331 0.357018 -0.464274
C233  C     C_3   0.262663 0.831885 0.298903 -0.151137
H121  H     H_    0.287346 0.804081 0.265545 0.210308
H122  H     H_    0.266023 0.880334 0.284518 0.129994
H123  H     H_    0.214483 0.816746 0.297238 0.128928
O90   O     O_3   0.173368 0.329605 0.367822 -0.525697
C234  C     C_3   0.184561 0.386774 0.395992 -0.197807
H124  H     H_    0.174525 0.388353 0.445446 0.140960
H125  H     H_    0.158146 0.422613 0.371770 0.187862
H126  H     H_    0.233307 0.398261 0.391852 0.147593
O91   O     O_3   0.689925 0.148998 0.338123 -0.546671
C235  C     C_3   0.631368 0.170414 0.351908 -0.224327
H127  H     H_    0.622498 0.173483 0.401564 0.139958
H128  H     H_    0.596240 0.141211 0.329196 0.226091
H129  H     H_    0.626083 0.216869 0.332984 0.151467
O92   O     O_3   0.841197 0.697397 0.316935 -0.533301
C236  C     C_3   0.786683 0.674275 0.341042 -0.140952
H130  H     H_    0.786430 0.670967 0.391672 0.126608
H131  H     H_    0.778564 0.627871 0.322406 0.247638
H132  H     H_    0.747896 0.702849 0.325772 0.127941
O93   O     O_3   0.677607 0.795561 0.573403 -0.557764
C237  C     C_3   0.670856 0.771620 0.632213 -0.142777
H133  H     H_    0.624456 0.752351 0.634849 0.174730
H134  H     H_    0.676281 0.805842 0.669489 0.182580
H135  H     H_    0.702790 0.733251 0.639311 0.152883
O94   O     O_3   0.812902 0.270170 0.622852 -0.564782
C238  C     C_3   0.816785 0.295635 0.681949 -0.143922
H136  H     H_    0.840119 0.340660 0.681520 0.198644
H137  H     H_    0.839968 0.264710 0.715188 0.199539
H138  H     H_    0.769811 0.302213 0.698055 0.164876
O95   O     O_3   0.331637 0.188850 0.605905 -0.526293
C239  C     C_3   0.300961 0.244829 0.599395 -0.175007
H139  H     H_    0.279840 0.250386 0.553154 0.168130
H140  H     H_    0.334505 0.282209 0.606133 0.184095
H141  H     H_    0.266297 0.250367 0.634675 0.188331
O96   O     O_3   0.187127 0.706070 0.603087 -0.535714
C240  C     C_3   0.188270 0.671942 0.657348 -0.188344
H142  H     H_    0.222597 0.635449 0.653410 0.173762
H143  H     H_    0.144275 0.649355 0.667676 0.176456
H144  H     H_    0.203142 0.701747 0.695700 0.175927
Cl1   Cl    Cl    0.428828 0.879867 0.867823 -0.642743
Cl2   Cl    Cl    0.136105 0.866578 0.517901 -0.739236
Cl3   Cl    Cl    0.651142 0.009589 0.168326 -0.442458
Cl4   Cl    Cl    0.881767 0.897631 0.600980 -0.515764
Cl5   Cl    Cl    0.412173 0.117440 0.116215 -0.529914
Cl6   Cl    Cl    0.127318 0.102015 0.602390 -0.532797
Cl7   Cl    Cl    0.555374 0.126941 0.871928 -0.646401
Cl8   Cl    Cl    0.870589 0.132389 0.483726 -0.703024
Cl9   Cl    Cl    0.130060 0.122595 0.448195 -0.613645
Cl10  Cl    Cl    0.117258 0.575400 0.121403 -0.607202
Cl11  Cl    Cl    0.999405 0.833044 0.652505 -0.447694
Cl12  Cl    Cl    0.116012 0.417648 0.883538 -0.529085
Cl13  Cl    Cl    0.870382 0.879749 0.438998 -0.652698
Cl14  Cl    Cl    0.873311 0.439905 0.125796 -0.605241
Cl15  Cl    Cl    0.007203 0.159259 0.655874 -0.494711
Cl16  Cl    Cl    0.880340 0.567769 0.871530 -0.586293
Cl17  Cl    Cl    0.886500 0.583876 0.113164 -0.555101
Cl18  Cl    Cl    0.524880 0.863608 0.131053 -0.706420
Cl19  Cl    Cl    0.121940 0.426742 0.118392 -0.574609
Cl20  Cl    Cl    0.562781 0.129324 0.123745 -0.615407
Cl21  Cl    Cl    0.125459 0.560338 0.875121 -0.633557
Cl22  Cl    Cl    0.586392 0.879266 0.886319 -0.537557
Cl23  Cl    Cl    0.878913 0.421731 0.884969 -0.556894
Cl24  Cl    Cl    0.397520 0.119994 0.895025 -0.545846
Cl25  Cl    Cl    0.898483 0.395726 0.378784 -0.510815
Cl26  Cl    Cl    0.627965 0.375522 0.940892 -0.665863
Cl27  Cl    Cl    0.017804 0.362913 0.633521 -0.673620
Cl28  Cl    Cl    0.371350 0.371028 0.049521 -0.538274
Cl29  Cl    Cl    0.005881 0.634635 0.634391 -0.687927
Cl30  Cl    Cl    0.625859 0.623840 0.059181 -0.599534
Cl31  Cl    Cl    0.047888 0.630316 0.365437 -0.574073
Cl32  Cl    Cl    0.379980 0.611678 0.911251 -0.583615
Cl33  Cl    Cl    0.615659 0.629325 0.917670 -0.540742
Cl34  Cl    Cl    0.625056 0.062094 0.621354 -0.592095
Cl35  Cl    Cl    0.611282 0.382182 0.091930 -0.543855
Cl36  Cl    Cl    0.490030 0.848440 0.331641 -0.414778
Cl37  Cl    Cl    0.385280 0.373455 0.910638 -0.541856
Cl38  Cl    Cl    0.368679 0.019188 0.632825 -0.689001
Cl39  Cl    Cl    0.379124 0.631483 0.064161 -0.623776
Cl40  Cl    Cl    0.372084 0.068849 0.367404 -0.526767
Cl41  Cl    Cl    0.347385 0.156313 0.476766 -0.452830
Cl42  Cl    Cl    0.849551 0.355853 0.535540 -0.525338
Cl43  Cl    Cl    0.627245 0.917123 0.615872 -0.588998
Cl44  Cl    Cl    0.147893 0.667820 0.481220 -0.456370
Cl45  Cl    Cl    0.635198 0.025666 0.364881 -0.692588
Cl46  Cl    Cl    0.043815 0.367430 0.368560 -0.645619
Cl47  Cl    Cl    0.367660 0.925058 0.377149 -0.507783
Cl48  Cl    Cl    0.908289 0.612677 0.384094 -0.533472

loop_
_geom_bond_atom_site_label_1
_geom_bond_atom_site_label_2
_ccdc_geom_bond_type
Cu2   Cu4   S    
C234  H124  S    
C26   Cl2   S    
C71   C122  A    
C33   C166  A    
C11   C181  S    
C39   C87   A    
Cu6   O12   S    
C21   O43   A    
C236  H130  S    
C130  C174  A    
C87   O57   S    
C135  C173  A    
C199  H19   S    
C64   C112  A    
C13   C175  S    
C197  H13   S    
C50   Cl26  S    
Cu8   O33   S    
Cu11  O34   S    
C193  H2    S    
C225  H99   S    
C101  O75   S    
C119  O89   S    
C203  H33   S    
C42   C159  A    
C207  H43   S    
C117  O91   S    
C45   Cl21  S    
C91   C100  A    
Cu2   O13   S    
C77   O51   S    
C58   Cl34  S    
C14   O28   A    
C44   C92   A    
C19   O39   A    
C216  H72   S    
Cu4   O6    S    
C204  H35   S    
C111  O81   S    
C47   C146  A    
C28   Cl4   S    
C225  H98   S    
C129  C173  A    
Cu6   O14   S    
Cu8   O26   S    
C53   Cl29  S    
O72   C216  S    
O69   C213  S    
C37   C168  A    
C123  C156  A    
C18   C170  S    
C56   Cl32  S    
C15   C173  S    
O91   C235  S    
C218  H76   S    
C226  H102  S    
C30   Cl6   S    
Cu4   O11   S    
C61   Cl37  S    
C99   O77   S    
C205  H37   S    
O65   C209  S    
C70   C129  A    
C77   C112  A    
C32   C80   A    
C61   C144  A    
O59   C203  S    
C124  C172  A    
C5    O9    A    
C79   O49   S    
C68   C116  A    
C56   C141  A    
C17   O35   A    
C31   Cl7   S    
Cu1   O18   S    
C20   C172  S    
C196  H11   S    
C220  H82   S    
C40   Cl16  S    
C94   O66   S    
C78   C113  A    
C2    O4    A    
O58   C202  S    
O75   C219  S    
C24   C176  S    
C162  C190  A    
C96   C109  A    
C236  H132  S    
C27   C156  A    
C222  H89   S    
C46   C153  A    
C80   C117  A    
C122  C167  A    
C109  O83   S    
C65   C113  A    
C199  H21   S    
C2    C190  S    
C47   Cl23  S    
C194  H5    S    
C219  H80   S    
C81   O63   S    
O77   C221  S    
C168  C192  A    
C71   C119  A    
O88   C232  S    
C40   C88   A    
Cu6   O19   S    
Cu7   O25   S    
C155  C187  A    
C22   O44   A    
C209  H51   S    
C237  H133  S    
C201  H25   S    
C131  C164  A    
C207  H45   S    
O68   C212  S    
C140  C180  A    
C198  H17   S    
C63   C111  A    
C125  C171  A    
C14   O26   A    
C139  C179  A    
C221  H85   S    
C19   O37   A    
Cu2   O8    S    
Cu8   Cu10  S    
C64   C125  A    
C214  H64   S    
C49   Cl25  S    
C42   C90   A    
O74   C218  S    
C51   Cl27  S    
Cu5   O10   S    
C41   C89   A    
C136  C176  A    
C46   Cl22  S    
C212  H58   S    
C149  C183  A    
C107  O85   S    
C98   O78   S    
C226  H100  S    
C57   Cl33  S    
C45   C93   A    
C89   O71   S    
Cu2   O9    S    
C72   C133  A    
C125  C160  A    
C59   Cl35  S    
C73   C110  A    
C228  H106  S    
C82   O62   S    
C154  C186  A    
C129  C166  A    
C6    C182  S    
C59   C140  A    
Cu5   O17   S    
C230  H113  S    
C65   Cl41  S    
O49   C193  S    
C36   Cl12  S    
C67   Cl43  S    
C222  H88   S    
C5    O11   A    
C145  C181  A    
C52   C139  A    
C215  H67   S    
C43   Cl19  S    
C86   C97   A    
C217  H73   S    
O96   C240  S    
C144  C180  A    
C69   C128  A    
O76   C220  S    
C23   C169  S    
C220  H84   S    
C233  H121  S    
C2    O2    A    
C93   O67   S    
Cu5   O16   S    
C19   C177  S    
C35   Cl11  S    
C124  C163  A    
C17   C179  S    
C203  H32   S    
C75   O53   S    
C208  H47   S    
C112  O84   S    
C90   C111  A    
C3    C185  S    
C127  C154  A    
C239  H139  S    
C18   O36   A    
C29   C160  A    
C1    C187  S    
C3    O7    A    
C167  C189  A    
C26   C167  A    
C50   C98   A    
Cu1   O1    S    
O90   C234  S    
C27   Cl3   S    
C39   Cl15  S    
C223  H91   S    
C5    C191  S    
C104  O76   S    
C133  C168  A    
C22   O42   A    
C10   O18   A    
C209  H49   S    
C235  H127  S    
C218  H78   S    
Cu11  O40   S    
C193  H3    S    
C122  C170  A    
C49   C97   A    
C52   C100  A    
C59   C107  A    
C206  H40   S    
C79   C106  A    
C231  H115  S    
C224  H96   S    
C217  H75   S    
Cu4   O4    S    
C60   C123  A    
O57   C201  S    
C126  C170  A    
C133  C175  A    
C12   O22   A    
O95   C239  S    
C46   C94   A    
C134  C174  A    
O71   C215  S    
C55   C130  A    
C72   C120  A    
C233  H123  S    
C200  H22   S    
C14   C178  S    
O80   C224  S    
C39   C162  A    
C240  H143  S    
C54   Cl30  S    
C227  H103  S    
C88   O60   S    
C212  H60   S    
C121  C158  A    
C128  C165  A    
C137  C150  A    
C42   Cl18  S    
C31   C154  A    
O84   C228  S    
C220  H83   S    
C62   Cl38  S    
C228  H108  S    
C74   O54   S    
C80   O52   S    
C132  C147  A    
C157  C187  A    
O64   C208  S    
Cu9   O31   S    
C34   Cl10  S    
Cu12  O38   S    
C128  C172  A    
C10   O20   A    
C127  C169  A    
C215  H69   S    
C65   C126  A    
C159  C185  A    
C199  H20   S    
O50   C194  S    
C224  H94   S    
C73   O55   S    
C103  O73   S    
C70   C118  A    
C195  H9    S    
C10   C186  S    
C214  H66   S    
C197  H14   S    
C143  C177  A    
Cu5   Cu6   S    
C202  H30   S    
Cu12  O43   S    
Cu7   O48   S    
Cu9   O27   S    
C210  H54   S    
C6    O12   A    
O92   C236  S    
C235  H128  S    
C232  H118  S    
O55   C199  S    
O54   C198  S    
C76   O56   S    
C163  C191  A    
C34   C82   A    
C144  C157  A    
C70   Cl46  S    
C239  H141  S    
C18   O34   A    
C141  C152  A    
C216  H71   S    
C3    O5    A    
C143  C146  A    
C94   C105  A    
O81   C225  S    
C197  H15   S    
C4    C192  S    
C57   C105  A    
C238  H136  S    
C223  H93   S    
C25   Cl1   S    
Cu12  O36   S    
Cu4   O15   S    
C206  H41   S    
C229  H109  S    
C238  H138  S    
O51   C195  S    
C150  C182  A    
C38   Cl14  S    
O60   C204  S    
C20   O38   A    
C135  C162  A    
Cu10  O35   S    
C231  H117  S    
C226  H101  S    
O82   C226  S    
Cu9   O46   S    
Cu3   O20   S    
C27   C75   A    
C12   O24   A    
C54   C137  A    
C205  H38   S    
C76   C115  A    
C132  C176  A    
O86   C230  S    
C23   O47   A    
C43   C148  A    
Cu7   O42   S    
C48   C96   A    
Cu11  O45   S    
Cu12  O47   S    
C200  H24   S    
C227  H105  S    
C83   O61   S    
C53   C101  A    
C198  H16   S    
C66   Cl42  S    
C68   Cl44  S    
C126  C161  A    
C60   C108  A    
C71   Cl47  S    
C105  O87   S    
C205  H39   S    
C156  C188  A    
C75   C108  A    
C196  H10   S    
C219  H79   S    
O66   C210  S    
O89   C233  S    
C37   Cl13  S    
C158  C186  A    
C151  C181  A    
C236  H131  S    
C146  C182  A    
C24   O48   A    
C56   C104  A    
C201  H27   S    
C166  C190  A    
C35   C83   A    
C115  O93   S    
C64   Cl40  S    
C41   C150  A    
C86   O58   S    
C81   C118  A    
C91   O69   S    
O63   C207  S    
C120  O92   S    
C230  H112  S    
C193  H1    S    
C9    C183  S    
C51   C99   A    
C234  H125  S    
C36   C147  A    
C237  H134  S    
C210  H52   S    
C6    O10   A    
C211  H57   S    
C16   O30   A    
C11   O21   A    
C232  H120  S    
C78   O50   S    
C100  O80   S    
C33   Cl9   S    
C221  H86   S    
C57   C142  A    
C38   C86   A    
C225  H97   S    
C28   C76   A    
C32   C165  A    
Cu6   O23   S    
C237  H135  S    
Cu10  O28   S    
C63   Cl39  S    
C20   O40   A    
C134  C145  A    
C29   Cl5   S    
C66   C114  A    
C141  C179  A    
C84   C99   A    
C54   C102  A    
C69   Cl45  S    
C221  H87   S    
C51   C132  A    
C207  H44   S    
C72   Cl48  S    
C48   C157  A    
C32   Cl8   S    
C35   C164  A    
C45   C152  A    
Cu7   O29   S    
C23   O45   A    
C102  O74   S    
C208  H48   S    
O67   C211  S    
O61   C205  S    
C118  O90   S    
Cu10  O39   S    
C131  C175  A    
C165  C191  A    
C215  H68   S    
C40   C149  A    
C139  C148  A    
C217  H74   S    
C8    O14   A    
C140  C155  A    
C13   O25   A    
C66   C135  A    
C9    O17   A    
Cu3   O3    S    
O52   C196  S    
C195  H8    S    
C196  H12   S    
C15   O31   A    
C130  C151  A    
Cu7   Cu9   S    
C7    C189  S    
C233  H122  S    
C30   C161  A    
C106  O86   S    
Cu8   O37   S    
C123  C171  A    
Cu5   O21   S    
C222  H90   S    
C121  C169  A    
C49   C134  A    
C89   C102  A    
C68   C131  A    
C208  H46   S    
O79   C223  S    
C202  H28   S    
C194  H6    S    
C61   C109  A    
C67   C124  A    
C239  H140  S    
C88   C101  A    
C95   C98   A    
C142  C178  A    
C204  H34   S    
C60   Cl36  S    
C74   C119  A    
C37   C85   A    
C223  H92   S    
C209  H50   S    
C218  H77   S    
Cu10  O30   S    
C16   O32   A    
C12   C188  S    
C55   C103  A    
C4    O6    A    
C231  H116  S    
C198  H18   S    
C67   C115  A    
C87   C114  A    
C137  C177  A    
C200  H23   S    
C138  C159  A    
C48   Cl24  S    
Cu1   Cu3   S    
Cu11  O41   S    
C82   C103  A    
C224  H95   S    
C1    O1    A    
C240  H142  S    
C25   C73   A    
C7    O15   A    
C8    C184  S    
C227  H104  S    
C206  H42   S    
C58   C127  A    
C212  H59   S    
Cu9   O44   S    
O94   C238  S    
C53   C136  A    
C1    O3    A    
C93   C104  A    
C22   C174  S    
C228  H107  S    
C110  O82   S    
Cu2   O2    S    
C234  H126  S    
C161  C189  A    
C230  H114  S    
O83   C227  S    
C114  O94   S    
C235  H129  S    
C195  H7    S    
C21   O41   A    
C232  H119  S    
O93   C237  S    
C43   C91   A    
C58   C106  A    
C7    O13   A    
C85   C120  A    
C24   O46   A    
C38   C145  A    
Cu3   O7    S    
O62   C206  S    
C8    O16   A    
C13   O27   A    
C9    O19   A    
C92   C107  A    
Cu1   O5    S    
C62   C110  A    
C148  C184  A    
C15   O29   A    
O53   C197  S    
C29   C77   A    
C214  H65   S    
C211  H55   S    
C202  H29   S    
C11   O23   A    
C203  H31   S    
C210  H53   S    
C211  H56   S    
C213  H61   S    
C213  H62   S    
C63   C138  A    
C113  O95   S    
C152  C184  A    
C160  C188  A    
C194  H4    S    
C138  C178  A    
C219  H81   S    
C41   Cl17  S    
C25   C158  A    
C50   C143  A    
C216  H70   S    
C204  H36   S    
C147  C183  A    
C136  C149  A    
C90   O70   S    
Cu3   O22   S    
C85   O59   S    
C96   O68   S    
C44   C155  A    
C83   C116  A    
C44   Cl20  S    
Cu8   O32   S    
Cu1   O24   S    
C95   O65   S    
C229  H110  S    
C34   C151  A    
C238  H137  S    
C31   C79   A    
C213  H63   S    
C4    O8    A    
O56   C200  S    
O87   C231  S    
C164  C192  A    
O73   C217  S    
C116  O96   S    
C201  H26   S    
C97   O79   S    
C108  O88   S    
C153  C185  A    
C36   C84   A    
C69   C117  A    
C26   C74   A    
C142  C153  A    
O70   C214  S    
C52   Cl28  S    
C240  H144  S    
C229  H111  S    
C30   C78   A    
C16   C180  S    
C55   Cl31  S    
C28   C163  A    
O85   C229  S    
C21   C171  S    
C47   C95   A    
O78   C222  S    
C92   O72   S    
Cu11  Cu12  S    
C33   C81   A    
C62   C121  A    
C84   O64   S    
C17   O33   A    
