data_mof_unit_36739.cif
_audit_creation_date              2012-12-10T18:54:25-0500
_audit_creation_method            fapswitch 2.2
_symmetry_space_group_name_H-M    P1
_symmetry_Int_Tables_number       1
_space_group_crystal_system       triclinic
_cell_length_a                    10.720743
_cell_length_b                    9.803703
_cell_length_c                    23.448548
_cell_angle_alpha                 89.999506
_cell_angle_beta                  89.742392
_cell_angle_gamma                 90.0
_cell_volume                      2464.48736868

loop_
_atom_site_label
_atom_site_type_symbol
_atom_type_description
_atom_site_fract_x
_atom_site_fract_y
_atom_site_fract_z
_atom_type_partial_charge
C1    C     C_R   0.259747 0.500002 0.500061 0.865488
C2    C     C_R   0.740253 0.500002 0.499933 0.865518
C3    C     C_R   0.535259 0.379771 0.239057 -0.097214
C4    C     C_R   0.464539 0.379744 0.760932 -0.097217
C5    C     C_R   0.534659 0.383665 0.298076 -0.239142
C6    C     C_R   0.465212 0.383648 0.701914 -0.239138
C7    C     C_R   0.491858 0.500139 0.326988 -0.088247
C8    C     C_R   0.508049 0.500131 0.673015 -0.088254
C9    C     C_R   0.447493 0.614022 0.295634 -0.040668
C10   C     C_R   0.552357 0.614023 0.704384 -0.040653
C11   C     C_R   0.450813 0.609143 0.236213 -0.143616
C12   C     C_R   0.548974 0.609127 0.763803 -0.143629
C13   C     C_R   0.494074 0.492548 0.208219 0.302486
C14   C     C_R   0.505696 0.492516 0.791783 0.302516
C15   C     C_R   0.063849 0.375514 0.499929 -0.194073
C16   C     C_R   0.936171 0.624388 0.499801 -0.206890
C17   C     C_R   0.936154 0.375514 0.499932 -0.194052
C18   C     C_R   0.063829 0.624387 0.500277 -0.206906
C19   C     C_R   0.872639 0.499974 0.499866 -0.007329
C20   C     C_R   0.127362 0.499973 0.500111 -0.007338
C21   C     C_R   0.585376 0.072055 0.468332 -0.095130
C22   C     C_R   0.414587 0.927901 0.531644 -0.051197
C23   C     C_R   0.414626 0.072049 0.531666 -0.095173
C24   C     C_R   0.585415 0.927908 0.468355 -0.051216
C25   C     C_R   0.497043 0.500217 0.389270 0.870372
C26   C     C_R   0.502938 0.500216 0.610731 0.870383
C27   C     C_R   0.614810 0.486445 0.881072 0.505808
C28   C     C_R   0.384949 0.486535 0.118930 0.505808
C29   C     C_R   0.391600 0.488204 0.880235 0.503822
C30   C     C_R   0.608160 0.488229 0.119764 0.503818
C31   C     C_R   0.387536 0.486024 0.939745 -0.015093
C32   C     C_R   0.612223 0.486021 0.060255 -0.015088
C33   C     C_R   0.500713 0.485390 0.970050 -0.022118
C34   C     C_R   0.499044 0.485407 0.029950 -0.022117
C35   C     C_R   0.615557 0.485440 0.940603 -0.015465
C36   C     C_R   0.384201 0.485509 0.059398 -0.015466
C37   C     C_R   0.273592 0.485510 0.969469 -0.157617
C38   C     C_R   0.726166 0.485453 0.030531 -0.157617
C39   C     C_R   0.271939 0.485046 0.028822 -0.157628
C40   C     C_R   0.727820 0.484954 0.971179 -0.157630
H1    H     H_    0.185500 0.485781 0.947025 0.193302
H2    H     H_    0.814260 0.485707 0.052975 0.193305
H3    H     H_    0.182615 0.484981 0.050598 0.192818
H4    H     H_    0.817144 0.484848 0.949403 0.192819
H5    H     H_    0.568429 0.289446 0.217144 0.144366
H6    H     H_    0.431354 0.289409 0.782835 0.144359
H7    H     H_    0.569582 0.295981 0.321124 0.155116
H8    H     H_    0.430320 0.295963 0.678856 0.155105
H9    H     H_    0.418168 0.695262 0.211409 0.147590
H10   H     H_    0.581593 0.695244 0.788618 0.147566
H11   H     H_    0.112319 0.278508 0.499842 0.149704
H12   H     H_    0.887727 0.721345 0.499387 0.147516
H13   H     H_    0.887685 0.278507 0.499927 0.149697
H14   H     H_    0.112271 0.721342 0.500775 0.147507
H15   H     H_    0.653327 0.126902 0.442949 0.124356
H16   H     H_    0.346637 0.873016 0.557013 0.124126
H17   H     H_    0.346679 0.126889 0.557047 0.124381
H18   H     H_    0.653369 0.873030 0.442989 0.124140
N1    N     N_R   0.503996 0.488584 0.852441 -0.356338
N2    N     N_R   0.495765 0.488643 0.147560 -0.356335
N3    N     N_R   0.500000 0.857200 0.500000 -0.072000
N4    N     N_R   0.500000 0.142800 0.500000 -0.079297
O1    O     O_R   0.316770 0.614620 0.500000 -0.629929
O2    O     O_R   0.683230 0.385380 0.500000 -0.630434
O3    O     O_R   0.683230 0.614620 0.500000 -0.629919
O4    O     O_R   0.316770 0.385380 0.500000 -0.630442
O5    O     O_R   0.499970 0.614690 0.416160 -0.605822
O6    O     O_R   0.500030 0.385310 0.583840 -0.622284
O7    O     O_R   0.500030 0.614690 0.583840 -0.605824
O8    O     O_R   0.499970 0.385310 0.416160 -0.622306
O9    O     O_2   0.723605 0.484796 0.851868 -0.550729
O10   O     O_2   0.276153 0.484932 0.148135 -0.550737
O11   O     O_2   0.284445 0.491301 0.850245 -0.551783
O12   O     O_2   0.715319 0.491312 0.149752 -0.551783
Zn1   Zn    Zn3+2 0.500000 0.653120 0.500000 0.961612
Zn2   Zn    Zn3+2 0.500000 0.346880 0.500000 0.936412
C41   C     C_R   0.394448 0.737358 0.323074 0.138417
C42   C     C_R   0.284601 0.728717 0.355839 -0.076121
C43   C     C_R   0.236607 0.844929 0.382692 -0.130008
C44   C     C_R   0.297416 0.970291 0.376863 -0.096842
C45   C     C_R   0.405776 0.979929 0.343764 -0.125443
C46   C     C_R   0.454101 0.864068 0.316778 -0.163512
H19   H     H_    0.237035 0.631965 0.360935 0.114457
H20   H     H_    0.152280 0.837875 0.408018 0.119672
H21   H     H_    0.260567 0.059972 0.397953 0.130914
H22   H     H_    0.452709 0.077042 0.339299 0.133480
H23   H     H_    0.538758 0.872608 0.291652 0.133533
C47   C     C_R   0.605417 0.737377 0.676964 0.138435
C48   C     C_R   0.715310 0.728773 0.644231 -0.076177
C49   C     C_R   0.763319 0.845002 0.617397 -0.130054
C50   C     C_R   0.702473 0.970348 0.623211 -0.096781
C51   C     C_R   0.594069 0.979952 0.656281 -0.125459
C52   C     C_R   0.545733 0.864073 0.683251 -0.163529
H24   H     H_    0.762902 0.632034 0.639145 0.114488
H25   H     H_    0.847687 0.837978 0.592098 0.119642
H26   H     H_    0.739329 0.060041 0.602132 0.130954
H27   H     H_    0.547111 0.077050 0.660736 0.133466
H28   H     H_    0.461044 0.872587 0.708355 0.133533

loop_
_geom_bond_atom_site_label_1
_geom_bond_atom_site_label_2
_ccdc_geom_bond_type
C38   C40   A    
C8    C10   A    
C24   N3    A    
C8    C26   S    
C25   O5    A    
C2    O3    A    
C45   C46   A    
C49   H25   S    
C13   N2    S    
C4    H6    S    
C41   C42   A    
N3    Zn1   S    
C14   N1    S    
C5    H7    S    
C10   C47   S    
C6    H8    S    
C6    C8    A    
C38   H2    S    
C43   H20   S    
C30   O12   S    
C29   O11   S    
C46   H23   S    
C15   C17   A    
C48   H24   S    
C33   C35   A    
C50   H26   S    
C42   H19   S    
C23   N4    A    
C29   N1    A    
C30   N2    A    
C31   C33   A    
C32   C38   A    
C34   C36   A    
C45   H22   S    
C3    C13   A    
C37   H1    S    
N4    Zn2   S    
C28   O10   S    
C1    O1    A    
C2    O2    A    
C51   H27   S    
C1    O4    A    
C28   N2    A    
C15   C20   A    
C4    C6    A    
C50   C51   A    
C21   H15   S    
C42   C43   A    
C39   H3    S    
C27   C35   A    
C3    H5    S    
C31   C37   A    
C32   C34   A    
C44   H21   S    
C11   H9    S    
C29   C31   A    
O4    Zn2   S    
C33   C34   A    
O2    Zn2   S    
C9    C41   S    
C9    C11   A    
C21   N4    A    
C10   C12   A    
C24   H18   S    
C12   C14   A    
C15   H11   S    
O8    Zn2   S    
O5    Zn1   S    
C17   H13   S    
C27   O9    S    
C5    C7    A    
C23   H17   S    
C47   C52   A    
C1    C20   S    
C2    C19   S    
C36   C39   A    
C16   H12   S    
C44   C45   A    
C3    C5    A    
C7    C25   S    
C12   H10   S    
O6    Zn2   S    
O3    Zn1   S    
C22   H16   S    
C26   O6    A    
C35   C40   A    
C37   C39   A    
C27   N1    A    
C22   N3    A    
C30   C32   A    
C11   C13   A    
C49   C50   A    
O1    Zn1   S    
C41   C46   A    
C16   C19   A    
C51   C52   A    
C17   C19   A    
O7    Zn1   S    
C18   C20   A    
C4    C14   A    
C18   H14   S    
C43   C44   A    
C7    C9    A    
C40   H4    S    
C47   C48   A    
C28   C36   A    
C16   C18   A    
C21   C24   A    
C26   O7    A    
C22   C23   A    
C25   O8    A    
C48   C49   A    
C52   H28   S    
