data_mof_unit_38450.cif
_audit_creation_date              2012-12-11T17:16:02-0500
_audit_creation_method            fapswitch 2.2
_symmetry_space_group_name_H-M    P1
_symmetry_Int_Tables_number       1
_space_group_crystal_system       triclinic
_cell_length_a                    14.003712
_cell_length_b                    7.475754
_cell_length_c                    14.671257
_cell_angle_alpha                 90.039527
_cell_angle_beta                  101.589296
_cell_angle_gamma                 89.940762
_cell_volume                      1504.59516772

loop_
_atom_site_label
_atom_site_type_symbol
_atom_type_description
_atom_site_fract_x
_atom_site_fract_y
_atom_site_fract_z
_atom_type_partial_charge
O1    O     O_R   0.398210 0.494340 0.401550 -0.539933
O2    O     O_R   0.601790 0.994340 0.598450 -0.540194
O3    O     O_R   0.586310 0.821730 0.403360 -0.489389
O4    O     O_R   0.413690 0.321730 0.596640 -0.492742
C1    C     C_R   0.616917 0.656781 0.385450 0.792540
C2    C     C_R   0.382877 0.157031 0.614137 0.785421
O5    O     O_R   0.397970 0.823900 0.389580 -0.539550
O6    O     O_R   0.602030 0.323900 0.610420 -0.538678
O7    O     O_R   0.412100 0.996500 0.584560 -0.509683
O8    O     O_R   0.587900 0.496500 0.415440 -0.511460
C3    C     C_R   0.364587 0.655339 0.364759 0.713808
C4    C     C_R   0.635458 0.155320 0.635202 0.714526
O9    O     O_3   0.504860 0.661550 0.563990 -0.380529
O10   O     O_3   0.495140 0.161550 0.436010 -0.380622
V1    V     V_3+5 0.499100 0.935510 0.488130 1.664479
V2    V     V_3+5 0.500900 0.435510 0.511870 1.665031
C5    C     C_1   0.719155 0.144950 0.713534 -0.125590
C6    C     C_1   0.280901 0.644955 0.286425 -0.118899
C7    C     C_1   0.789193 0.135172 0.778636 -0.097503
C8    C     C_1   0.210856 0.635110 0.221339 -0.073550
C9    C     C_3   0.291940 0.248304 0.853799 0.615727
C10   C     C_3   0.705148 0.743198 0.143060 0.561681
C11   C     C_3   0.352770 0.266259 0.774613 0.234196
C12   C     C_3   0.644454 0.761273 0.222862 0.213404
H1    H     H_    0.429350 0.235165 0.802555 0.080321
H2    H     H_    0.568007 0.729424 0.195131 0.091552
H3    H     H_    0.083601 0.103494 0.691578 0.141583
H4    H     H_    0.864118 0.866709 0.258106 0.251550
C13   C     C_3   0.141675 0.201265 0.719560 0.188467
C14   C     C_3   0.853302 0.724143 0.274557 0.132217
C15   C     C_3   0.239276 0.934599 0.790118 0.493063
C16   C     C_3   0.763449 0.433457 0.211925 0.561798
C17   C     C_3   0.198172 0.125820 0.817106 -0.377982
C18   C     C_3   0.801121 0.626145 0.181724 -0.369967
C19   C     C_3   0.314289 0.149537 0.684975 -0.484074
C20   C     C_3   0.685101 0.648620 0.313895 -0.463205
C21   C     C_3   0.207292 0.215648 0.644278 0.247141
C22   C     C_3   0.792144 0.717723 0.352957 0.207745
C23   C     C_3   0.304606 0.948688 0.712546 0.625163
C24   C     C_3   0.696892 0.447423 0.288461 0.624278
H5    H     H_    0.172711 0.130147 0.585453 0.148588
H6    H     H_    0.830618 0.629456 0.408553 0.212173
O11   O     O_R   0.912140 0.786650 0.084610 -0.543492
O12   O     O_R   0.087860 0.286650 0.915390 -0.513300
O13   O     O_R   0.102040 0.454810 0.110430 -0.545053
O14   O     O_R   0.897960 0.954810 0.889570 -0.547273
C25   C     C_R   0.128235 0.624622 0.141918 0.706611
C26   C     C_R   0.871772 0.124638 0.858091 0.679528
O15   O     O_R   0.913690 0.457060 0.096650 -0.511102
O16   O     O_R   0.086310 0.957060 0.903350 -0.524929
O17   O     O_R   0.898200 0.284560 0.901540 -0.527994
O18   O     O_R   0.101800 0.784560 0.098460 -0.535691
C27   C     C_R   0.878598 0.623467 0.112690 0.832744
C28   C     C_R   0.120937 0.123239 0.886646 0.812150
O19   O     O_3   0.995160 0.617270 0.936040 -0.381503
O20   O     O_3   0.004840 0.117270 0.063960 -0.393788
V3    V     V_3+5 0.000900 0.343280 0.011870 1.531131
V4    V     V_3+5 0.999100 0.843280 0.988130 1.502279
O21   O     O_3   0.256368 0.419431 0.871710 -0.473304
C29   C     C_3   0.279287 0.469347 0.966161 0.229489
H7    H     H_    0.355614 0.519074 0.984991 0.217093
H8    H     H_    0.267261 0.360077 0.014357 0.088549
C30   C     C_3   0.210732 0.611020 0.980277 -0.464013
H9    H     H_    0.175169 0.679271 0.917777 0.301887
H10   H     H_    0.148354 0.542292 0.988847 0.193183
H11   H     H_    0.244975 0.704529 0.036075 0.144554
O22   O     O_3   0.737893 0.916081 0.124597 -0.510632
C31   C     C_3   0.718643 0.964219 0.030148 0.217304
H12   H     H_    0.642595 0.014541 0.008882 0.220466
H13   H     H_    0.732658 0.854012 0.983295 0.098432
C32   C     C_3   0.788508 0.106456 0.019339 -0.486306
H14   H     H_    0.824796 0.169498 0.083566 0.290464
H15   H     H_    0.851167 0.039117 0.010698 0.194619
H16   H     H_    0.755713 0.204356 0.965206 0.159921
Cl1   Cl    Cl    0.245598 0.829598 0.607311 -0.409187
Cl2   Cl    Cl    0.756254 0.331673 0.394549 -0.412871
Cl3   Cl    Cl    0.067787 0.394233 0.725616 -0.372335
Cl4   Cl    Cl    0.975461 0.647121 0.319126 -0.479253
Cl5   Cl    Cl    0.382973 0.165382 0.955264 -0.711688
Cl6   Cl    Cl    0.616041 0.656937 0.041632 -0.697360
Cl7   Cl    Cl    0.370225 0.492970 0.748972 -0.376688
Cl8   Cl    Cl    0.626365 0.988080 0.248462 -0.403914
Cl9   Cl    Cl    0.198620 0.421598 0.581614 -0.320989
Cl10  Cl    Cl    0.800862 0.921281 0.417115 -0.395525
Cl11  Cl    Cl    0.137131 0.786562 0.753098 -0.413060
Cl12  Cl    Cl    0.866018 0.283683 0.249019 -0.418756
Cl13  Cl    Cl    0.316847 0.828133 0.883945 -0.562442
Cl14  Cl    Cl    0.686518 0.324907 0.118706 -0.572814
O23   O     O_3   0.395061 0.848974 0.734541 -0.462989
C33   C     C_3   0.483043 0.925773 0.784231 0.201392
H17   H     H_    0.477195 0.971206 0.854102 0.195595
H18   H     H_    0.509864 0.034512 0.745400 0.026242
C34   C     C_3   0.562675 0.784025 0.798986 -0.508819
H19   H     H_    0.571914 0.727439 0.731602 0.221973
H20   H     H_    0.632907 0.844742 0.833377 0.115628
H21   H     H_    0.544144 0.674483 0.843287 0.283945
O24   O     O_3   0.607155 0.345254 0.266662 -0.464538
C35   C     C_3   0.518663 0.419787 0.216237 0.202746
H22   H     H_    0.524746 0.465013 0.146434 0.194613
H23   H     H_    0.490693 0.527898 0.254800 0.023474
C36   C     C_3   0.439642 0.277025 0.200513 -0.498974
H24   H     H_    0.430891 0.217745 0.267403 0.222041
H25   H     H_    0.369053 0.337712 0.166747 0.114515
H26   H     H_    0.458155 0.169747 0.154788 0.285112

loop_
_geom_bond_atom_site_label_1
_geom_bond_atom_site_label_2
_ccdc_geom_bond_type
C30   H10   S    
C3    C6    S    
C36   H24   S    
C15   Cl11  S    
H3    C13   S    
O1    C3    A    
O2    C4    A    
C2    O7    A    
O24   C35   S    
C2    C19   S    
O5    C3    A    
O13   V3    S    
C12   C20   S    
C29   C30   S    
C19   C21   S    
C12   H2    S    
C9    O21   S    
C9    C17   S    
C16   Cl14  S    
C1    C20   S    
C13   C17   S    
O15   V3    S    
O20   V3    S    
C14   C22   S    
C29   H8    S    
C12   Cl8   S    
O11   V4    S    
O11   C27   A    
C26   O17   A    
C31   H12   S    
C4    C5    S    
C15   C17   S    
O17   V3    S    
C23   Cl1   S    
O5    V1    S    
C30   H11   S    
O21   C29   S    
O6    V2    S    
O14   V4    S    
O13   C25   A    
C10   C18   S    
O14   C26   A    
C15   Cl13  S    
C14   C18   S    
O22   C31   S    
O16   V4    S    
C20   C24   S    
O4    C2    A    
C24   O24   S    
C32   H15   S    
C7    C26   S    
C24   Cl2   S    
C29   H7    S    
C16   C18   S    
O4    V2    S    
C19   C23   S    
C33   H18   S    
O12   V3    S    
O6    C4    A    
C16   Cl12  S    
C9    Cl5   S    
O1    V2    S    
O16   C28   A    
O2    V1    S    
O18   V4    S    
C31   H13   S    
C34   H21   S    
C11   C19   S    
C9    C11   S    
C10   C12   S    
O19   V4    S    
C16   C24   S    
O3    V1    S    
C33   C34   S    
C17   C28   S    
C11   Cl7   S    
C22   Cl10  S    
O3    C1    A    
C32   H16   S    
C22   H6    S    
C25   O18   A    
C36   H26   S    
C35   C36   S    
C34   H19   S    
C35   H23   S    
H4    C14   S    
O7    V1    S    
C10   Cl6   S    
C1    O8    A    
O8    V2    S    
C33   H17   S    
C34   H20   S    
C31   C32   S    
O15   C27   A    
C20   C22   S    
C5    C7    T    
C15   C23   S    
C6    C8    T    
C11   H1    S    
C21   H5    S    
C10   O22   S    
C8    C25   S    
C30   H9    S    
C14   Cl4   S    
O12   C28   A    
C32   H14   S    
C13   Cl3   S    
C18   C27   S    
C36   H25   S    
C35   H22   S    
O9    V2    S    
C13   C21   S    
O10   V1    S    
C21   Cl9   S    
O23   C33   S    
C23   O23   S    
