data_mof_unit_64677.cif
_audit_creation_date              2012-12-10T17:44:01-0500
_audit_creation_method            fapswitch 2.2
_symmetry_space_group_name_H-M    P1
_symmetry_Int_Tables_number       1
_space_group_crystal_system       triclinic
_cell_length_a                    37.173274
_cell_length_b                    30.389518
_cell_length_c                    21.3861
_cell_angle_alpha                 90.005607
_cell_angle_beta                  54.866742
_cell_angle_gamma                 90.003234
_cell_volume                      19757.9425624

loop_
_atom_site_label
_atom_site_type_symbol
_atom_type_description
_atom_site_fract_x
_atom_site_fract_y
_atom_site_fract_z
_atom_type_partial_charge
C1    C     C_R   0.914856 0.500018 0.085186 0.785673
C2    C     C_R   0.085144 0.500018 0.914813 0.785667
C3    C     C_R   0.414856 0.000018 0.085208 0.785693
C4    C     C_R   0.585144 0.000018 0.914792 0.785688
C5    C     C_3   0.986206 0.460408 0.243090 -0.157304
C6    C     C_3   0.012403 0.459929 0.758288 -0.157305
C7    C     C_3   0.513292 0.960215 0.216000 -0.155950
C8    C     C_3   0.486819 0.960169 0.783876 -0.155961
C9    C     C_3   0.027163 0.468246 0.243492 -0.151862
C10   C     C_3   0.971747 0.469182 0.757586 -0.152155
C11   C     C_3   0.541027 0.991376 0.229634 -0.161769
C12   C     C_3   0.458997 0.991254 0.770340 -0.161745
C13   C     C_3   0.040823 0.507736 0.188446 -0.146326
C14   C     C_3   0.959460 0.509126 0.811262 -0.147003
C15   C     C_3   0.527928 0.031008 0.201449 -0.159049
C16   C     C_3   0.471987 0.030920 0.798646 -0.158989
C17   C     C_3   0.999849 0.499893 0.189146 0.015404
C18   C     C_3   0.000135 0.499867 0.810868 0.015326
C19   C     C_3   0.500195 0.999885 0.188800 0.015658
C20   C     C_3   0.499807 0.999874 0.811197 0.015651
C21   C     C_R   0.797516 0.540206 0.197848 -0.168527
C22   C     C_R   0.202484 0.540206 0.802153 -0.168521
C23   C     C_R   0.297515 0.040197 0.197893 -0.168518
C24   C     C_R   0.702485 0.040196 0.802113 -0.168520
C25   C     C_R   0.843321 0.539994 0.152245 -0.186334
C26   C     C_R   0.156679 0.539994 0.847757 -0.186319
C27   C     C_R   0.343319 0.039988 0.152278 -0.186122
C28   C     C_R   0.656681 0.039988 0.847729 -0.186125
C29   C     C_R   0.866452 0.500125 0.133620 -0.034001
C30   C     C_R   0.133548 0.500125 0.866379 -0.034098
C31   C     C_R   0.366453 0.000123 0.133677 -0.034182
C32   C     C_R   0.633547 0.000123 0.866322 -0.034173
C33   C     C_R   0.842916 0.460473 0.161705 -0.186861
C34   C     C_R   0.157084 0.460472 0.838290 -0.186847
C35   C     C_R   0.342921 0.960472 0.161819 -0.186980
C36   C     C_R   0.657079 0.960471 0.838174 -0.186981
C37   C     C_R   0.797053 0.460728 0.207620 -0.162217
C38   C     C_R   0.202947 0.460727 0.792374 -0.162213
C39   C     C_R   0.297058 0.960724 0.207747 -0.162327
C40   C     C_R   0.702942 0.960723 0.792245 -0.162328
C41   C     C_R   0.774023 0.500593 0.225830 0.125683
C42   C     C_R   0.225977 0.500593 0.774168 0.125673
C43   C     C_R   0.274025 0.000584 0.225914 0.125563
C44   C     C_R   0.725974 0.000583 0.774085 0.125564
C45   C     C_R   0.999926 0.499994 0.120561 0.788900
C46   C     C_R   0.000064 0.499987 0.879448 0.788930
C47   C     C_R   0.500114 0.999993 0.120373 0.788919
C48   C     C_R   0.499887 0.999989 0.879625 0.788924
C49   C     C_R   0.701905 0.475727 0.340870 -0.170601
C50   C     C_R   0.298095 0.475724 0.659124 -0.170591
C51   C     C_R   0.201898 0.975748 0.340966 -0.170291
C52   C     C_R   0.798102 0.975746 0.659027 -0.170293
C53   C     C_R   0.656127 0.476742 0.386904 -0.226856
C54   C     C_R   0.343873 0.476739 0.613091 -0.226851
C55   C     C_R   0.156120 0.976762 0.386974 -0.226988
C56   C     C_R   0.843880 0.976761 0.613020 -0.226990
C57   C     C_R   0.633183 0.502936 0.366810 -0.129490
C58   C     C_R   0.366816 0.502936 0.633190 -0.129490
C59   C     C_R   0.133187 0.002922 0.366815 -0.130152
C60   C     C_R   0.866813 0.002922 0.633185 -0.130148
C61   C     C_R   0.656943 0.529430 0.300061 0.410120
C62   C     C_R   0.343057 0.529431 0.699945 0.410123
C63   C     C_R   0.156959 0.029376 0.300017 0.409590
C64   C     C_R   0.843041 0.029376 0.699990 0.409589
C65   C     C_R   0.702805 0.527460 0.253825 -0.153397
C66   C     C_R   0.297195 0.527461 0.746180 -0.153390
C67   C     C_R   0.202820 0.027406 0.253810 -0.153883
C68   C     C_R   0.797180 0.027406 0.746196 -0.153886
C69   C     C_R   0.725559 0.501005 0.273958 0.010423
C70   C     C_R   0.274441 0.501005 0.726041 0.010418
C71   C     C_R   0.225563 0.000991 0.274015 0.010078
C72   C     C_R   0.774437 0.000990 0.725984 0.010079
C73   C     C_R   0.000000 0.366901 0.500013 -0.231972
C74   C     C_R   0.500000 0.866903 0.500004 -0.231043
C75   C     C_R   0.999996 0.274407 0.500027 -0.084171
C76   C     C_R   0.500000 0.774406 0.500011 -0.083111
C77   C     C_R   0.499997 0.274177 0.499990 0.099804
C78   C     C_R   0.999997 0.774174 0.499990 0.099872
C79   C     C_R   1.000000 0.585083 0.499999 0.780128
C80   C     C_R   0.500000 0.085084 0.499999 0.780104
C81   C     C_R   0.022061 0.343418 0.429799 0.377227
C82   C     C_R   0.977941 0.343432 0.570234 0.377124
C83   C     C_R   0.478424 0.843422 0.472992 0.377527
C84   C     C_R   0.521575 0.843432 0.527021 0.377523
C85   C     C_R   0.999983 0.499843 0.379538 0.774090
C86   C     C_R   0.000015 0.499829 0.620463 0.774051
C87   C     C_R   0.500025 0.999838 0.379496 0.774124
C88   C     C_R   0.499975 0.999835 0.620503 0.774115
C89   C     C_R   0.000000 0.415057 0.500005 0.761216
C90   C     C_R   0.500000 0.915058 0.500001 0.761235
C91   C     C_R   0.500002 0.633453 0.500005 -0.032714
C92   C     C_R   0.999995 0.133453 0.500015 -0.032180
C93   C     C_R   0.500001 0.585092 0.500002 0.766454
C94   C     C_R   0.999999 0.085093 0.500004 0.766294
C95   C     C_R   0.584967 0.501137 0.415002 0.775992
C96   C     C_R   0.415033 0.501138 0.584999 0.775994
C97   C     C_R   0.084968 0.001134 0.415001 0.775776
C98   C     C_R   0.915032 0.001134 0.584999 0.775770
C99   C     C_R   0.493905 0.656759 0.562119 -0.181112
C100  C     C_R   0.506101 0.656754 0.437892 -0.181103
C101  C     C_R   0.005237 0.156760 0.550960 -0.180471
C102  C     C_R   0.994748 0.156757 0.449080 -0.180469
C103  C     C_R   0.500000 0.414902 0.499998 0.786410
C104  C     C_R   1.000000 0.914901 0.499998 0.786529
C105  C     C_R   0.962572 0.702590 0.556986 -0.168730
C106  C     C_R   0.037424 0.702588 0.442995 -0.168712
C107  C     C_R   0.462536 0.202595 0.556881 -0.168974
C108  C     C_R   0.537459 0.202592 0.443099 -0.168973
C109  C     C_R   0.962439 0.656720 0.556654 -0.185355
C110  C     C_R   0.037559 0.656717 0.443334 -0.185352
C111  C     C_R   0.462403 0.156724 0.556547 -0.184942
C112  C     C_R   0.537594 0.156721 0.443441 -0.184937
C113  C     C_R   0.999999 0.633432 0.499996 -0.029210
C114  C     C_R   0.499999 0.133435 0.499996 -0.030360
C115  C     C_R   0.493812 0.702590 0.562182 -0.158220
C116  C     C_R   0.506195 0.702584 0.437833 -0.158228
C117  C     C_R   0.005346 0.202587 0.550825 -0.158768
C118  C     C_R   0.994636 0.202584 0.449230 -0.158771
C119  C     C_R   0.999997 0.725788 0.499989 0.100534
C120  C     C_R   0.499997 0.225792 0.499989 0.100315
C121  C     C_R   0.513437 0.297372 0.433183 -0.168499
C122  C     C_R   0.486558 0.297377 0.566799 -0.168500
C123  C     C_R   0.013373 0.797370 0.433215 -0.168460
C124  C     C_R   0.986622 0.797375 0.566767 -0.168461
C125  C     C_R   0.513106 0.343244 0.433328 -0.181409
C126  C     C_R   0.486889 0.343248 0.566657 -0.181400
C127  C     C_R   0.013044 0.843242 0.433360 -0.181393
C128  C     C_R   0.986951 0.843246 0.566626 -0.181383
C129  C     C_R   0.499998 0.366541 0.499994 -0.031406
C130  C     C_R   0.999998 0.866539 0.499994 -0.031390
C131  C     C_R   0.500002 0.725888 0.500009 0.148649
C132  C     C_R   0.999991 0.225888 0.500030 0.150055
C133  C     C_R   0.022437 0.297585 0.430878 -0.158691
C134  C     C_R   0.977560 0.297598 0.569169 -0.158691
C135  C     C_R   0.478075 0.797583 0.474752 -0.158344
C136  C     C_R   0.521925 0.797593 0.525268 -0.158350
C137  C     C_3   0.972539 0.531393 0.256848 -0.157706
C138  C     C_3   0.028525 0.530397 0.742100 -0.157022
C139  C     C_3   0.459327 0.008286 0.269957 -0.146577
C140  C     C_3   0.540651 0.008388 0.730065 -0.146622
C141  C     C_3   0.013543 0.539239 0.257251 -0.146503
C142  C     C_3   0.987819 0.539660 0.741391 -0.146079
C143  C     C_3   0.487029 0.039412 0.283771 -0.146074
C144  C     C_3   0.512863 0.039438 0.716351 -0.146045
C145  C     C_3   0.999887 0.499780 0.311138 0.018204
C146  C     C_3   0.000103 0.499751 0.688869 0.018189
C147  C     C_3   0.500138 0.999770 0.310887 0.017965
C148  C     C_3   0.499861 0.999762 0.689113 0.017964
C149  C     C_3   0.958893 0.491945 0.311779 -0.162170
C150  C     C_3   0.040796 0.490499 0.688530 -0.162097
C151  C     C_3   0.472441 0.968611 0.298221 -0.152987
C152  C     C_3   0.527646 0.968679 0.701680 -0.153019
Cu1   Cu    Cu3+1 0.000000 0.455950 0.000000 0.944894
Cu2   Cu    Cu3+1 0.500000 0.955950 0.000000 0.944876
Cu3   Cu    Cu3+1 1.000000 0.544060 0.000000 0.940605
Cu4   Cu    Cu3+1 0.500000 0.044060 0.000000 0.940702
Cu5   Cu    Cu3+1 0.044060 0.499960 0.455930 0.958454
Cu6   Cu    Cu3+1 0.955940 0.499960 0.544070 0.958307
Cu7   Cu    Cu3+1 0.544060 0.999960 0.455930 0.958123
Cu8   Cu    Cu3+1 0.455940 0.999960 0.544070 0.958133
Cu9   Cu    Cu3+1 0.500010 0.500000 0.562750 0.964245
Cu10  Cu    Cu3+1 0.499990 0.500000 0.437250 0.964247
Cu11  Cu    Cu3+1 0.000010 1.000000 0.562750 0.964020
Cu12  Cu    Cu3+1 0.999990 1.000000 0.437250 0.964022
H1    H     H_    0.024724 0.571515 0.264468 0.127230
H2    H     H_    0.977766 0.572306 0.733050 0.126864
H3    H     H_    0.476288 0.071839 0.312911 0.128650
H4    H     H_    0.523512 0.071897 0.687314 0.128609
H5    H     H_    0.779561 0.429751 0.228103 0.131001
H6    H     H_    0.220439 0.429749 0.771888 0.131011
H7    H     H_    0.279568 0.929747 0.228266 0.131079
H8    H     H_    0.720432 0.929746 0.771720 0.131077
H9    H     H_    0.718863 0.455471 0.357895 0.142322
H10   H     H_    0.281138 0.455466 0.642095 0.142329
H11   H     H_    0.218848 0.955521 0.358042 0.143124
H12   H     H_    0.781152 0.955518 0.641947 0.143122
H13   H     H_    0.638530 0.456464 0.437838 0.162458
H14   H     H_    0.361470 0.456460 0.562153 0.162457
H15   H     H_    0.138515 0.956514 0.437944 0.162738
H16   H     H_    0.861485 0.956512 0.562045 0.162735
H17   H     H_    0.720764 0.547203 0.202269 0.153100
H18   H     H_    0.279235 0.547206 0.797739 0.153108
H19   H     H_    0.220788 0.047120 0.202220 0.153136
H20   H     H_    0.779211 0.047120 0.797791 0.153134
H21   H     H_    0.488351 0.719822 0.611288 0.134027
H22   H     H_    0.511656 0.719812 0.388728 0.134031
H23   H     H_    0.010162 0.219808 0.589812 0.132981
H24   H     H_    0.989819 0.219803 0.410247 0.132994
H25   H     H_    0.488862 0.639627 0.610981 0.159945
H26   H     H_    0.511144 0.639618 0.389028 0.159954
H27   H     H_    0.009581 0.139635 0.590588 0.158766
H28   H     H_    0.990406 0.139632 0.409446 0.158773
H29   H     H_    0.933300 0.720006 0.601162 0.131431
H30   H     H_    0.066695 0.720001 0.398818 0.131425
H31   H     H_    0.433237 0.220012 0.600974 0.131576
H32   H     H_    0.566758 0.220007 0.399005 0.131572
H33   H     H_    0.933125 0.639496 0.601117 0.150607
H34   H     H_    0.066873 0.639490 0.398874 0.150564
H35   H     H_    0.433060 0.139502 0.600926 0.151097
H36   H     H_    0.566938 0.139497 0.399064 0.151094
H37   H     H_    0.950147 0.557256 0.261061 0.138351
H38   H     H_    0.051795 0.555466 0.737027 0.137690
H39   H     H_    0.425878 0.015202 0.285056 0.129344
H40   H     H_    0.574083 0.015395 0.714981 0.129361
H41   H     H_    0.040182 0.279987 0.376995 0.166440
H42   H     H_    0.959815 0.280010 0.623056 0.166427
H43   H     H_    0.460734 0.779976 0.455578 0.165139
H44   H     H_    0.539265 0.779993 0.544444 0.165134
H45   H     H_    0.523665 0.279954 0.381216 0.131169
H46   H     H_    0.476330 0.279963 0.618765 0.131172
H47   H     H_    0.023550 0.779953 0.381273 0.131047
H48   H     H_    0.976445 0.779962 0.618708 0.131052
H49   H     H_    0.523503 0.360457 0.381123 0.152966
H50   H     H_    0.476493 0.360465 0.618864 0.152973
H51   H     H_    0.023391 0.860454 0.381179 0.152899
H52   H     H_    0.976605 0.860462 0.618809 0.152907
H53   H     H_    0.925266 0.485421 0.363407 0.148018
H54   H     H_    0.074173 0.482808 0.637140 0.147789
H55   H     H_    0.449728 0.943043 0.339165 0.151216
H56   H     H_    0.550428 0.943173 0.660657 0.151252
H57   H     H_    0.974947 0.428072 0.236258 0.148536
H58   H     H_    0.022531 0.427217 0.766226 0.149204
H59   H     H_    0.524111 0.927728 0.187094 0.149451
H60   H     H_    0.476091 0.927650 0.812678 0.149499
H61   H     H_    0.049522 0.442371 0.239359 0.151402
H62   H     H_    0.948510 0.444095 0.762583 0.151692
H63   H     H_    0.574557 0.984392 0.214104 0.148525
H64   H     H_    0.425486 0.984178 0.785854 0.148508
H65   H     H_    0.074366 0.514195 0.136541 0.129574
H66   H     H_    0.926160 0.516745 0.862921 0.129706
H67   H     H_    0.550673 0.056561 0.160517 0.137395
H68   H     H_    0.449173 0.056410 0.839659 0.137349
H69   H     H_    0.780419 0.571406 0.211999 0.132710
H70   H     H_    0.219581 0.571406 0.788006 0.132720
H71   H     H_    0.280414 0.071393 0.212012 0.132724
H72   H     H_    0.719586 0.071393 0.788000 0.132723
H73   H     H_    0.860563 0.571082 0.131559 0.155034
H74   H     H_    0.139438 0.571082 0.868446 0.155070
H75   H     H_    0.360558 0.071075 0.131553 0.154921
H76   H     H_    0.639442 0.071075 0.868459 0.154918
H77   H     H_    0.859886 0.429243 0.148278 0.154745
H78   H     H_    0.140114 0.429241 0.851714 0.154781
H79   H     H_    0.359893 0.929245 0.148418 0.155089
H80   H     H_    0.640107 0.929244 0.851569 0.155085
O1    O     O_R   0.935730 0.462810 0.064280 -0.588896
O2    O     O_R   0.064270 0.462810 0.935720 -0.588835
O3    O     O_R   0.435730 0.962810 0.064280 -0.588901
O4    O     O_R   0.564270 0.962810 0.935720 -0.588908
O5    O     O_R   0.564280 0.500000 0.488710 -0.580444
O6    O     O_R   0.435720 0.500000 0.511290 -0.580441
O7    O     O_R   0.064280 0.000000 0.488710 -0.581282
O8    O     O_R   0.935720 0.000000 0.511290 -0.581283
O9    O     O_R   0.564280 0.499990 0.382710 -0.569562
O10   O     O_R   0.435720 0.499990 0.617290 -0.569562
O11   O     O_R   0.064280 0.999990 0.382710 -0.568837
O12   O     O_R   0.935720 0.999990 0.617290 -0.568839
O13   O     O_R   0.500000 0.435720 0.553010 -0.586490
O14   O     O_R   0.500000 0.435720 0.446990 -0.586491
O15   O     O_R   0.000000 0.935720 0.553010 -0.586461
O16   O     O_R   0.000000 0.935720 0.446990 -0.586462
O17   O     O_R   0.935740 0.537210 0.064260 -0.591074
O18   O     O_R   0.064260 0.537210 0.935740 -0.591016
O19   O     O_R   0.435740 0.037210 0.064260 -0.591013
O20   O     O_R   0.564260 0.037210 0.935740 -0.591019
O21   O     O_R   0.000010 0.462810 0.091570 -0.587491
O22   O     O_R   0.999990 0.462810 0.908430 -0.587694
O23   O     O_R   0.500010 0.962810 0.091570 -0.587702
O24   O     O_R   0.499990 0.962810 0.908430 -0.587719
O25   O     O_R   0.000020 0.537210 0.091550 -0.587121
O26   O     O_R   0.999980 0.537210 0.908450 -0.586951
O27   O     O_R   0.500020 0.037210 0.091550 -0.586938
O28   O     O_R   0.499980 0.037210 0.908450 -0.586924
O29   O     O_R   0.037200 0.564240 0.462790 -0.588181
O30   O     O_R   0.962800 0.564240 0.537210 -0.588151
O31   O     O_R   0.537200 0.064240 0.462790 -0.588260
O32   O     O_R   0.462800 0.064240 0.537210 -0.588263
O33   O     O_R   0.037200 0.499960 0.371220 -0.586820
O34   O     O_R   0.962800 0.499960 0.628780 -0.586991
O35   O     O_R   0.537200 0.999960 0.371220 -0.588915
O36   O     O_R   0.462800 0.999960 0.628780 -0.588901
O37   O     O_R   0.962800 0.499940 0.445620 -0.587271
O38   O     O_R   0.037200 0.499940 0.554380 -0.587137
O39   O     O_R   0.462800 0.999940 0.445620 -0.585180
O40   O     O_R   0.537200 0.999940 0.554380 -0.585191
O41   O     O_R   0.037210 0.435680 0.462780 -0.569844
O42   O     O_R   0.962790 0.435680 0.537220 -0.569823
O43   O     O_R   0.537210 0.935680 0.462780 -0.570008
O44   O     O_R   0.462790 0.935680 0.537220 -0.570018
O45   O     O_R   0.500030 0.564270 0.552970 -0.590011
O46   O     O_R   0.499970 0.564270 0.447030 -0.590009
O47   O     O_R   0.000030 0.064270 0.552970 -0.590079
O48   O     O_R   0.999970 0.064270 0.447030 -0.590072
O49   O     O_3   0.637124 0.558257 0.278712 -0.726475
H81   H     H_    0.607761 0.566402 0.324321 0.324165
O50   O     O_3   0.362875 0.558259 0.721302 -0.726471
H82   H     H_    0.392238 0.566404 0.675695 0.324165
O51   O     O_3   0.137153 0.058167 0.278593 -0.725151
H83   H     H_    0.107798 0.066347 0.324187 0.325454
O52   O     O_3   0.862846 0.058168 0.721422 -0.725158
H84   H     H_    0.892201 0.066348 0.675831 0.325452
O53   O     O_3   0.043108 0.363472 0.359028 -0.726586
H85   H     H_    0.033257 0.394353 0.365044 0.319287
O54   O     O_3   0.956898 0.363501 0.640999 -0.726460
H86   H     H_    0.966754 0.394382 0.634974 0.319490
O55   O     O_3   0.457831 0.863475 0.443486 -0.727830
H87   H     H_    0.467413 0.894467 0.430543 0.319225
O56   O     O_3   0.542168 0.863497 0.556524 -0.727825
H88   H     H_    0.532581 0.894487 0.569472 0.319233

loop_
_geom_bond_atom_site_label_1
_geom_bond_atom_site_label_2
_ccdc_geom_bond_type
C80   C114  S    
C89   O41   A    
Cu5   Cu6   S    
C55   C59   A    
C142  C146  S    
C109  H33   S    
C74   C83   A    
C49   H9    S    
O53   H85   S    
C16   C144  S    
C60   C98   S    
C76   C131  S    
C83   O55   S    
C29   C33   A    
C80   O32   A    
C23   C43   A    
C117  C132  A    
C108  C120  A    
C39   H7    S    
C77   C122  A    
C146  C150  S    
C125  H49   S    
C12   C16   S    
C91   C100  A    
C140  C152  S    
C141  C145  S    
C45   O21   A    
C66   H18   S    
C85   O37   A    
C51   C71   A    
C73   C81   A    
C25   C29   A    
C27   C31   A    
C28   C32   A    
C62   C66   A    
C126  C129  A    
C54   H14   S    
C81   O53   S    
C104  O15   A    
C82   C134  A    
C52   C72   A    
C7    H59   S    
O54   H86   S    
C25   H73   S    
C68   C72   A    
Cu1   O2    S    
C92   C94   S    
Cu7   O40   S    
C88   C148  S    
C149  H53   S    
C3    C31   S    
C4    C32   S    
C79   O30   A    
C7    C19   S    
C90   O44   A    
C151  H55   S    
Cu12  O11   S    
C107  C120  A    
C41   C69   S    
C47   O23   A    
C68   H20   S    
C43   C71   S    
C100  H26   S    
C101  H27   S    
C53   H13   S    
C84   O56   S    
C57   C61   A    
C59   C63   A    
C60   C64   A    
C74   C90   S    
Cu1   O22   S    
C50   C70   A    
C96   O10   A    
C1    O1    A    
Cu5   O29   S    
C138  H38   S    
C127  H51   S    
C2    O18   A    
C49   C53   A    
C44   C72   S    
C51   C55   A    
C95   O9    A    
C14   H66   S    
C12   H64   S    
Cu5   O33   S    
Cu3   O17   S    
C61   C65   A    
Cu10  O14   S    
C19   C139  S    
C17   C137  S    
C112  H36   S    
C6    H58   S    
C14   C142  S    
C35   H79   S    
Cu7   O35   S    
C33   H77   S    
Cu8   O36   S    
C112  C114  A    
C75   C134  A    
C5    C149  S    
C97   O7    A    
Cu4   O27   S    
C66   C70   A    
C5    C9    S    
C93   O46   A    
C64   C68   A    
C8    C152  S    
C85   C145  S    
C140  H40   S    
C37   H5    S    
C19   C47   S    
Cu11  O15   S    
C42   C70   S    
C9    C13   S    
Cu4   O20   S    
C139  C143  S    
C122  H46   S    
C8    C12   S    
C23   H71   S    
C46   O26   A    
C22   H70   S    
C11   C15   S    
C88   O40   A    
Cu9   O10   S    
C76   C135  A    
C30   C34   A    
Cu2   O23   S    
C10   C14   S    
Cu12  O48   S    
Cu9   O45   S    
C121  C125  A    
O49   H81   S    
C24   H72   S    
C125  C129  A    
C142  H2    S    
C123  C127  A    
C110  C113  A    
C4    O20   A    
C86   O38   A    
C78   C123  A    
C143  H3    S    
C67   H19   S    
C128  H52   S    
C15   C143  S    
C10   C146  S    
C26   C30   A    
C79   C113  S    
C103  O14   A    
Cu1   Cu3   S    
Cu3   O26   S    
C75   C132  S    
C135  H43   S    
C56   H16   S    
C21   C25   A    
C15   H67   S    
C107  C111  A    
C94   O47   A    
C24   C28   A    
C74   C84   A    
C81   C133  A    
C92   C102  A    
C141  H1    S    
C124  C128  A    
C2    C30   S    
C98   O8    A    
C137  H37   S    
C147  C151  S    
C139  C151  S    
C86   O34   A    
C37   C41   A    
Cu11  O47   S    
C77   C121  A    
C47   O27   A    
C40   C44   A    
C55   H15   S    
Cu2   O3    S    
C48   O28   A    
C11   H63   S    
C49   C69   A    
C91   C99   A    
Cu5   O38   S    
C58   C62   A    
C121  H45   S    
C106  C119  A    
C110  H34   S    
C5    H57   S    
C100  C116  A    
C96   O6    A    
C77   C120  S    
Cu9   Cu10  S    
C27   H75   S    
C15   C19   S    
C50   C54   A    
C87   C147  S    
C99   C115  A    
C115  H21   S    
Cu6   O34   S    
C5    C17   S    
C86   C146  S    
C104  O16   A    
C18   C138  S    
C105  C109  A    
C126  H50   S    
C21   H69   S    
Cu1   O1    S    
C102  H28   S    
Cu8   O32   S    
C13   C141  S    
C108  H32   S    
C52   H12   S    
Cu2   Cu4   S    
C8    H60   S    
C97   O11   A    
C89   O42   A    
C79   O29   A    
C104  C130  S    
C3    O3    A    
C18   C46   S    
C98   O12   A    
C38   H6    S    
C63   O51   S    
O56   H88   S    
C36   H80   S    
C148  C152  S    
C106  H30   S    
C138  C142  S    
O50   H82   S    
C136  H44   S    
C53   C57   A    
C115  C131  A    
C124  H48   S    
C116  H22   S    
C80   O31   A    
C33   C37   A    
C108  C112  A    
C7    C11   S    
O52   H84   S    
C91   C93   S    
C26   H74   S    
Cu7   Cu8   S    
C46   O22   A    
C64   O52   S    
C62   O50   S    
C87   O35   A    
C51   H11   S    
C103  C129  S    
C20   C48   S    
C92   C101  A    
C21   C41   A    
C61   O49   S    
C24   C44   A    
C31   C35   A    
C32   C36   A    
C73   C82   A    
C40   H8    S    
C137  C141  S    
C84   C136  A    
Cu12  O8    S    
C140  C144  S    
C17   C45   S    
Cu10  O46   S    
C128  C130  A    
C6    C10   S    
Cu5   O41   S    
C75   C133  A    
Cu4   O28   S    
C13   C17   S    
C93   O45   A    
C101  C117  A    
C20   C140  S    
Cu11  O7    S    
C78   C119  S    
C2    O2    A    
C73   C89   S    
C139  H39   S    
C28   H76   S    
C11   C147  S    
C65   C69   A    
C9    C145  S    
C111  C114  A    
C67   C71   A    
C87   O39   A    
C13   H65   S    
C6    C150  S    
C56   C60   A    
O55   H87   S    
C22   C26   A    
C90   O43   A    
C105  C119  A    
C145  C149  S    
C105  H29   S    
Cu9   O5    S    
C34   H78   S    
Cu8   O39   S    
O51   H83   S    
C14   C18   S    
C35   C39   A    
Cu11  Cu12  S    
C144  C148  S    
C95   O5    A    
C107  H31   S    
C76   C136  A    
C65   H17   S    
C138  C150  S    
C143  C147  S    
C8    C20   S    
C144  H4    S    
C38   C42   A    
Cu2   O24   S    
C48   O24   A    
C133  H41   S    
C58   C96   S    
C4    O4    A    
C111  H35   S    
Cu3   O18   S    
Cu6   O37   S    
C123  H47   S    
C23   C27   A    
C78   C124  A    
C83   C135  A    
C102  C118  A    
C16   C20   S    
C103  O13   A    
C137  C149  S    
Cu11  O12   S    
Cu10  O9    S    
C1    C29   S    
Cu3   O25   S    
Cu6   O30   S    
C6    C18   S    
C63   C67   A    
C94   O48   A    
C36   C40   A    
C118  C132  A    
C117  H23   S    
C99   H25   S    
C118  H24   S    
C39   C43   A    
C16   H68   S    
Cu7   O43   S    
Cu8   O44   S    
C122  C126  A    
Cu4   O19   S    
C88   O36   A    
C150  H54   S    
C134  H42   S    
C1    O17   A    
Cu2   O4    S    
C3    O19   A    
Cu12  O16   S    
C59   C97   S    
C7    C151  S    
C82   O54   S    
C54   C58   A    
Cu9   O13   S    
Cu6   O42   S    
C34   C38   A    
C9    H61   S    
C109  C113  A    
C50   H10   S    
Cu7   O31   S    
C12   C148  S    
C127  C130  A    
Cu10  O6    S    
C22   C42   A    
C116  C131  A    
C152  H56   S    
C45   O25   A    
C85   O33   A    
Cu1   O21   S    
C106  C110  A    
C57   C95   S    
C10   H62   S    
C52   C56   A    
