data_mof_unit_16972.cif
_audit_creation_date              2012-12-11T17:09:27-0500
_audit_creation_method            fapswitch 2.2
_symmetry_space_group_name_H-M    P1
_symmetry_Int_Tables_number       1
_space_group_crystal_system       triclinic
_cell_length_a                    14.793385
_cell_length_b                    6.916003
_cell_length_c                    13.541144
_cell_angle_alpha                 90.000064
_cell_angle_beta                  99.861543
_cell_angle_gamma                 89.99997
_cell_volume                      1364.93916059

loop_
_atom_site_label
_atom_site_type_symbol
_atom_type_description
_atom_site_fract_x
_atom_site_fract_y
_atom_site_fract_z
_atom_type_partial_charge
O1    O     O_R   0.586930 0.505770 0.416350 -0.538748
O2    O     O_R   0.413070 0.005770 0.583650 -0.538747
O3    O     O_R   0.397900 0.173100 0.389630 -0.534206
O4    O     O_R   0.602100 0.673100 0.610370 -0.534206
C1    C     C_R   0.364506 0.345506 0.362473 0.768460
C2    C     C_R   0.635494 0.845506 0.637527 0.768456
O5    O     O_R   0.585280 0.175870 0.404330 -0.540201
O6    O     O_R   0.414720 0.675870 0.595670 -0.540200
O7    O     O_R   0.601790 0.008380 0.598460 -0.534351
O8    O     O_R   0.398210 0.508380 0.401540 -0.534350
C3    C     C_R   0.614874 0.344824 0.383082 0.735676
C4    C     C_R   0.385126 0.844824 0.616918 0.735679
O9    O     O_3   0.505200 0.340120 0.563670 -0.372289
O10   O     O_3   0.494800 0.840120 0.436330 -0.372291
V1    V     V_3+5 0.499040 0.064180 0.488190 1.505814
V2    V     V_3+5 0.500960 0.564180 0.511810 1.505814
C5    C     C_R   0.243302 0.985708 0.668784 0.128289
C6    C     C_R   0.756699 0.485707 0.331217 0.128292
C7    C     C_R   0.315594 0.852273 0.683568 -0.167497
C8    C     C_R   0.684406 0.352272 0.316433 -0.167498
C9    C     C_R   0.317078 0.717144 0.761663 -0.178424
C10   C     C_R   0.682922 0.217144 0.238337 -0.178427
H1    H     H_    0.370748 0.608912 0.774345 0.157260
H2    H     H_    0.629252 0.108913 0.225655 0.157259
C11   C     C_R   0.254414 0.729822 0.829256 0.244368
C12   C     C_R   0.745585 0.229824 0.170743 0.244368
C13   C     C_R   0.185104 0.874664 0.817006 -0.140780
C14   C     C_R   0.814895 0.374664 0.182994 -0.140782
C15   C     C_R   0.179479 0.995253 0.733059 0.022269
C16   C     C_R   0.820521 0.495254 0.266941 0.022271
C17   C     C_3   0.172818 0.210039 0.724995 -0.396879
C18   C     C_3   0.827178 0.710039 0.275003 -0.396888
C19   C     C_3   0.243087 0.199882 0.655051 0.114367
C20   C     C_3   0.756912 0.699880 0.344951 0.114366
H3    H     H_    0.199148 0.282688 0.797139 0.197382
H4    H     H_    0.800843 0.782681 0.202859 0.197380
H5    H     H_    0.103450 0.257895 0.688263 0.217310
H6    H     H_    0.896545 0.757902 0.311730 0.217311
H7    H     H_    0.309913 0.268482 0.686070 0.118779
H8    H     H_    0.690085 0.768481 0.313936 0.118778
C21   C     C_1   0.783339 0.877124 0.783023 -0.117110
C22   C     C_1   0.216661 0.377124 0.216977 -0.117112
C23   C     C_1   0.715947 0.860229 0.717145 -0.110055
C24   C     C_1   0.284053 0.360229 0.282855 -0.110055
O11   O     O_R   0.101720 0.231700 0.098560 -0.540208
O12   O     O_R   0.898280 0.731700 0.901440 -0.540209
O13   O     O_R   0.914700 0.558980 0.095690 -0.544737
O14   O     O_R   0.085300 0.058980 0.904310 -0.544737
C25   C     C_R   0.883363 0.389659 0.114942 0.756819
C26   C     C_R   0.116637 0.889658 0.885058 0.756819
O15   O     O_R   0.102080 0.561590 0.110390 -0.530887
O16   O     O_R   0.897920 0.061590 0.889610 -0.530887
O17   O     O_R   0.086950 0.728940 0.916330 -0.522367
O18   O     O_R   0.913050 0.228940 0.083670 -0.522367
C27   C     C_R   0.136075 0.391876 0.137550 0.776795
C28   C     C_R   0.863924 0.891876 0.862450 0.776794
O19   O     O_3   0.994770 0.394510 0.936380 -0.369399
O20   O     O_3   0.005230 0.894510 0.063620 -0.369399
V3    V     V_3+5 0.000970 0.670520 0.011800 1.530663
V4    V     V_3+5 0.999030 0.170520 0.988200 1.530663
Br1   Br    Br    0.276632 0.564498 0.944959 -0.593878
Br2   Br    Br    0.723365 0.064507 0.055038 -0.593876
Br3   Br    Br    0.192448 0.273099 0.518522 -0.542227
Br4   Br    Br    0.807557 0.773094 0.481480 -0.542226

loop_
_geom_bond_atom_site_label_1
_geom_bond_atom_site_label_2
_ccdc_geom_bond_type
O4    V2    S    
O5    C3    A    
C17   C19   S    
O11   V4    S    
O9    V1    S    
C6    C16   A    
C18   H6    S    
O12   V3    S    
C11   C13   A    
C5    C15   A    
C14   C25   S    
C12   C14   A    
O1    C3    A    
C13   C26   S    
C19   Br3   S    
O6    C4    A    
O2    C4    A    
C2    O7    A    
O5    V1    S    
O17   V3    S    
C1    O8    A    
C21   C28   S    
O1    V2    S    
O18   V4    S    
C16   C18   S    
O2    V1    S    
C21   C23   T    
C19   H7    S    
C22   C24   T    
C20   H8    S    
C18   H4    S    
C4    C7    S    
O14   C26   A    
C7    C9    A    
C1    C24   S    
C8    C10   A    
C20   Br4   S    
O14   V4    S    
C6    C8    A    
C2    C23   S    
C6    C20   S    
C9    H1    S    
C12   Br2   S    
O10   V1    S    
C22   C27   S    
O10   V2    S    
C3    C8    S    
O19   V3    S    
O4    C2    A    
O15   V3    S    
O20   V4    S    
C25   O18   A    
C26   O17   A    
C17   H5    S    
O3    V1    S    
C13   C15   A    
O11   C27   A    
O13   C25   A    
C10   C12   A    
C10   H2    S    
O12   C28   A    
O8    V2    S    
C17   H3    S    
C9    C11   A    
O9    V2    S    
C5    C7    A    
O19   V4    S    
C11   Br1   S    
O6    V2    S    
O16   V4    S    
O15   C27   A    
C5    C19   S    
O20   V3    S    
C15   C17   S    
O13   V3    S    
O16   C28   A    
O7    V1    S    
C14   C16   A    
O3    C1    A    
C18   C20   S    
