data_mof_unit_45123.cif
_audit_creation_date              2012-12-10T17:43:20-0500
_audit_creation_method            fapswitch 2.2
_symmetry_space_group_name_H-M    P1
_symmetry_Int_Tables_number       1
_space_group_crystal_system       triclinic
_cell_length_a                    15.036657
_cell_length_b                    13.886709
_cell_length_c                    10.628081
_cell_angle_alpha                 90.12143
_cell_angle_beta                  86.899907
_cell_angle_gamma                 90.235951
_cell_volume                      2215.97572205

loop_
_atom_site_label
_atom_site_type_symbol
_atom_type_description
_atom_site_fract_x
_atom_site_fract_y
_atom_site_fract_z
_atom_type_partial_charge
C1    C     C_R   0.329375 0.499799 0.499705 0.951962
C2    C     C_R   0.670625 0.500201 0.500294 0.951962
C3    C     C_R   0.952996 0.501748 0.499925 -0.004247
C4    C     C_R   0.047004 0.498253 0.500076 -0.004245
C5    C     C_R   0.910549 0.529415 0.389001 -0.022840
C6    C     C_R   0.089451 0.470587 0.611000 -0.022839
C7    C     C_R   0.943933 0.446292 0.717558 -0.165576
C8    C     C_R   0.056067 0.553710 0.282443 -0.165575
C9    C     C_R   0.036172 0.438020 0.717137 -0.017092
C10   C     C_R   0.963828 0.561983 0.282865 -0.017095
C11   C     C_R   0.442272 0.794120 0.581353 0.111879
C12   C     C_R   0.557728 0.205880 0.418648 0.111879
C13   C     C_R   0.558136 0.794353 0.419190 0.091775
C14   C     C_R   0.441864 0.205647 0.580810 0.091775
C15   C     C_R   0.558639 0.897056 0.417231 -0.056560
C16   C     C_R   0.441361 0.102944 0.582769 -0.056560
C17   C     C_R   0.441404 0.896827 0.582797 -0.056065
C18   C     C_R   0.558595 0.103173 0.417203 -0.056065
C19   C     C_R   0.499955 0.948389 0.499926 0.096052
C20   C     C_R   0.500045 0.051611 0.500073 0.096052
C21   C     C_R   0.616832 0.949970 0.334664 -0.144513
C22   C     C_R   0.383167 0.050030 0.665336 -0.144512
C23   C     C_R   0.383200 0.949522 0.665369 -0.145202
C24   C     C_R   0.616800 0.050478 0.334630 -0.145202
C25   C     C_R   0.500810 0.499988 0.259433 0.875806
C26   C     C_R   0.499190 0.500012 0.740567 0.875807
C27   C     C_3   0.478678 0.588233 0.043342 -0.095951
C28   C     C_3   0.521322 0.411767 0.956658 -0.095951
C29   C     C_3   0.559714 0.564492 0.953076 -0.102896
C30   C     C_3   0.440286 0.435508 0.046924 -0.102897
C31   C     C_3   0.418329 0.523522 0.965683 -0.144541
C32   C     C_3   0.581671 0.476478 0.034317 -0.144540
C33   C     C_3   0.499303 0.499864 0.877561 -0.003620
C34   C     C_3   0.500697 0.500136 0.122439 -0.003620
C35   C     C_R   0.816881 0.520381 0.387979 0.326966
C36   C     C_R   0.183119 0.479619 0.612021 0.326961
C37   C     C_R   0.767060 0.501000 0.500312 -0.153602
C38   C     C_R   0.232940 0.499000 0.499688 -0.153601
C39   C     C_R   0.808269 0.481277 0.612089 0.266369
C40   C     C_R   0.191731 0.518724 0.387911 0.266369
C41   C     C_R   0.901527 0.477431 0.610966 0.033406
C42   C     C_R   0.098472 0.522570 0.389035 0.033402
Cu1   Cu    Cu3+1 0.500000 0.597420 0.500000 1.039246
Cu2   Cu    Cu3+1 0.500000 0.402580 0.500000 1.039246
H1    H     H_    0.350856 0.543129 0.938265 0.221300
H2    H     H_    0.649144 0.456871 0.061735 0.221299
H3    H     H_    0.460372 0.660615 0.080626 0.213254
H4    H     H_    0.539628 0.339384 0.919374 0.213254
H5    H     H_    0.608620 0.617406 0.912115 0.192815
H6    H     H_    0.391380 0.382594 0.087885 0.192814
H7    H     H_    0.905180 0.422125 0.800407 0.229357
H8    H     H_    0.094820 0.577878 0.199595 0.229366
H9    H     H_    0.663243 0.914379 0.268732 0.172659
H10   H     H_    0.336757 0.085621 0.731268 0.172659
H11   H     H_    0.336699 0.913769 0.731202 0.168684
H12   H     H_    0.663301 0.086231 0.268797 0.168683
N1    N     N_R   0.500000 0.743810 0.500000 -0.272172
N2    N     N_R   0.500000 0.256190 0.500000 -0.272172
O1    O     O_R   0.370260 0.582280 0.500030 -0.550193
O2    O     O_R   0.629740 0.417720 0.499970 -0.550193
O3    O     O_R   0.629740 0.582280 0.499970 -0.572811
O4    O     O_R   0.370260 0.417720 0.500030 -0.572811
O5    O     O_R   0.499980 0.582260 0.316850 -0.569110
O6    O     O_R   0.500020 0.417740 0.683150 -0.569110
O7    O     O_R   0.500020 0.582260 0.683150 -0.581722
O8    O     O_R   0.499980 0.417740 0.316850 -0.581722
Cl1   Cl    Cl    0.760319 0.515399 0.245998 -0.629358
Cl2   Cl    Cl    0.239682 0.484600 0.754002 -0.629358
Cl3   Cl    Cl    0.741287 0.458940 0.751903 -0.655913
Cl4   Cl    Cl    0.258713 0.541060 0.248097 -0.655912
C43   C     C_2   0.071318 0.383498 0.823273 0.951914
O9    O     O_2   0.123321 0.317150 0.802285 -0.530639
O10   O     O_R   0.041443 0.404975 0.946990 -0.703789
H13   H     H_    0.069502 0.362393 0.011170 0.350129
C44   C     C_2   0.928682 0.616508 0.176731 0.951914
O11   O     O_2   0.876671 0.682848 0.197719 -0.530636
O12   O     O_R   0.958568 0.595044 0.053015 -0.703797
H14   H     H_    0.930507 0.637627 0.988837 0.350129
C45   C     C_2   0.381026 0.742713 0.671233 0.899448
O13   O     O_2   0.305529 0.723120 0.642073 -0.559516
O14   O     O_R   0.405457 0.729219 0.794864 -0.764700
H15   H     H_    0.355040 0.701714 0.850988 0.337722
C46   C     C_2   0.618973 0.257287 0.328767 0.899448
O15   O     O_2   0.694471 0.276880 0.357927 -0.559516
O16   O     O_R   0.594543 0.270782 0.205136 -0.764699
H16   H     H_    0.644960 0.298286 0.149013 0.337722
C47   C     C_2   0.622947 0.743102 0.334545 0.920232
O17   O     O_2   0.698159 0.728788 0.368348 -0.537856
O18   O     O_R   0.602004 0.722975 0.210794 -0.771571
H17   H     H_    0.653142 0.691781 0.159962 0.361085
C48   C     C_2   0.377053 0.256898 0.665455 0.920231
O19   O     O_2   0.301841 0.271212 0.631652 -0.537858
O20   O     O_R   0.397996 0.277025 0.789206 -0.771571
H18   H     H_    0.346858 0.308219 0.840038 0.361084

loop_
_geom_bond_atom_site_label_1
_geom_bond_atom_site_label_2
_ccdc_geom_bond_type
C38   C40   A    
C47   O17   D    
O20   H18   S    
C27   C29   S    
O10   H13   S    
Cu2   O8    S    
C19   C20   A    
Cu1   Cu2   S    
C1    O4    A    
C6    C9    A    
O14   H15   S    
Cu1   O5    S    
C39   C41   A    
C29   H5    S    
O16   H16   S    
Cu2   O6    S    
C15   C19   A    
C17   C23   A    
C40   Cl4   S    
C18   C24   A    
C35   C37   A    
C8    C42   A    
C29   C32   S    
C1    O1    A    
C30   C31   S    
C2    O2    A    
C13   N1    A    
C29   C33   S    
C25   O5    A    
C26   O6    A    
C11   C17   A    
Cu2   N2    S    
C28   C30   S    
C31   C33   S    
C8    H8    S    
C2    O3    A    
Cu1   O1    S    
C25   C34   S    
C12   N2    A    
C40   C42   A    
C30   H6    S    
C22   H10   S    
C28   H4    S    
C27   C34   S    
C14   N2    A    
C30   C34   S    
C27   C31   S    
Cu1   O7    S    
C28   C32   S    
C4    C6    A    
C48   O19   D    
C45   O14   S    
Cu2   O4    S    
O12   H14   S    
C12   C46   S    
C32   C34   S    
C44   O11   D    
C48   O20   S    
C10   C44   S    
C26   C33   S    
C46   O15   D    
C35   Cl1   S    
C16   C20   A    
C13   C47   S    
C39   Cl3   S    
C44   O12   S    
C11   C45   S    
C1    C38   S    
C46   O16   S    
C28   C33   S    
C13   C15   A    
C14   C16   A    
C3    C4    A    
Cu1   O3    S    
C43   O10   S    
C27   H3    S    
C7    C9    A    
C3    C41   A    
C16   C22   A    
C26   O7    A    
C32   H2    S    
C25   O8    A    
C9    C43   S    
C3    C5    A    
C36   Cl2   S    
C23   H11   S    
C24   H12   S    
C47   O18   S    
C7    H7    S    
C5    C10   A    
C37   C39   A    
C21   H9    S    
C2    C37   S    
C4    C42   A    
Cu2   O2    S    
C5    C35   A    
C36   C38   A    
C17   C19   A    
C6    C36   A    
C18   C20   A    
C7    C41   A    
C14   C48   S    
Cu1   N1    S    
C45   O13   D    
C15   C21   A    
C43   O9    D    
C8    C10   A    
C31   H1    S    
C21   C24   A    
C12   C18   A    
C22   C23   A    
O18   H17   S    
C11   N1    A    
