data_mof_unit_33922.cif
_audit_creation_date              2012-12-10T20:30:10-0500
_audit_creation_method            fapswitch 2.2
_symmetry_space_group_name_H-M    P1
_symmetry_Int_Tables_number       1
_space_group_crystal_system       triclinic
_cell_length_a                    9.914326
_cell_length_b                    10.708805
_cell_length_c                    12.9824
_cell_angle_alpha                 90.708191
_cell_angle_beta                  72.023648
_cell_angle_gamma                 90.264508
_cell_volume                      1310.96285821

loop_
_atom_site_label
_atom_site_type_symbol
_atom_type_description
_atom_site_fract_x
_atom_site_fract_y
_atom_site_fract_z
_atom_type_partial_charge
C1    C     C_R   0.498989 0.739783 0.503042 0.880853
C2    C     C_R   0.448787 0.384604 0.971819 -0.198893
C3    C     C_R   0.489707 0.388360 0.858165 -0.114019
C4    C     C_R   0.553958 0.411873 0.022093 0.076413
C5    C     C_R   0.698979 0.418573 0.958462 -0.076540
C6    C     C_R   0.736796 0.377584 0.850626 -0.208317
C7    C     C_R   0.632735 0.361892 0.800521 0.751072
C8    C     C_R   0.517433 0.445866 0.131027 -0.117561
C9    C     C_R   0.762571 0.487910 0.116003 -0.135475
C10   C     C_R   0.385613 0.417911 0.808183 -0.212665
C11   C     C_R   0.373002 0.935079 0.512355 0.037296
C12   C     C_R   0.425017 0.474948 0.699844 0.960791
C13   C     C_R   0.492383 0.871420 0.517933 -0.061401
C14   C     C_R   0.602974 0.936541 0.540736 -0.215908
C15   C     C_R   0.602858 0.065725 0.540168 -0.140859
C16   C     C_R   0.492333 0.128529 0.516374 -0.099482
C17   C     C_R   0.372953 0.062679 0.511350 -0.026078
C18   C     C_3   0.294187 0.064374 0.429292 0.380159
C19   C     C_3   0.294478 0.922669 0.431194 -0.559532
C20   C     C_R   0.916278 0.603140 0.533933 0.002438
C21   C     C_R   0.949760 0.407234 0.448859 0.377065
C22   C     C_R   0.092640 0.407716 0.449802 0.647815
C23   C     C_R   0.498971 0.260047 0.501981 0.910577
C24   C     C_R   0.057749 0.602658 0.534301 -0.027393
C25   C     C_3   0.022909 0.667518 0.641147 -0.484097
C26   C     C_3   0.869476 0.670102 0.640678 0.502519
C27   C     C_R   0.577121 0.498017 0.295796 0.908388
C28   C     C_R   0.801498 0.464955 0.004973 0.561655
C29   C     C_R   0.620862 0.478310 0.178986 -0.227432
C30   C     C_R   0.243092 0.394396 0.864878 -0.366594
C31   C     C_R   0.204753 0.356214 0.972519 0.674413
C32   C     C_R   0.305015 0.356877 0.027940 0.535340
H1    H     H_    0.842291 0.518768 0.152029 0.195493
H2    H     H_    0.692802 0.115228 0.551570 0.225804
H3    H     H_    0.186259 0.104944 0.461716 0.188005
H4    H     H_    0.186927 0.882348 0.467005 0.186915
H5    H     H_    0.358651 0.877431 0.354154 0.218948
H6    H     H_    0.041852 0.607390 0.704267 0.219569
H7    H     H_    0.071724 0.761820 0.634964 0.167572
H8    H     H_    0.846321 0.361506 0.803447 0.167651
H9    H     H_    0.828811 0.765514 0.635842 0.060989
H10   H     H_    0.407722 0.451673 0.179251 0.243908
H11   H     H_    0.162979 0.402111 0.824655 0.221450
H12   H     H_    0.693098 0.888609 0.551973 0.160954
N1    N     N_R   0.856940 0.500860 0.500710 -0.149725
N2    N     N_R   0.142580 0.500820 0.500710 -0.180873
O1    O     O_R   0.385310 0.683210 0.499990 -0.604960
O2    O     O_R   0.614650 0.683240 0.500000 -0.628507
O3    O     O_R   0.328390 0.499940 0.653610 -0.641683
O4    O     O_R   0.557730 0.499980 0.653620 -0.510787
O5    O     O_R   0.385350 0.316760 0.500000 -0.571942
O6    O     O_R   0.614690 0.316790 0.500010 -0.590388
O7    O     O_R   0.442270 0.500020 0.346380 -0.575779
O8    O     O_R   0.671610 0.500060 0.346390 -0.652258
Zn1   Zn    Zn3+2 0.346870 0.499980 0.499990 1.009790
Zn2   Zn    Zn3+2 0.653130 0.500020 0.500010 1.026037
O9    O     O_3   0.373186 0.114121 0.328593 -0.629949
H13   H     H_    0.469385 0.076358 0.306252 0.333274
O10   O     O_3   0.909341 0.312121 0.392843 -0.683845
H14   H     H_    0.834505 0.345080 0.365520 0.376061
F1    F     F_    0.182452 0.318036 0.394684 -0.573796
F2    F     F_    0.781208 0.599056 0.721853 -0.661154
O11   O     O_3   0.937039 0.497544 0.944754 -0.753281
H15   H     H_    0.937528 0.517542 0.870580 0.329591
F3    F     F_    0.262704 0.317944 0.132135 -0.584714
F4    F     F_    0.069514 0.321149 0.024485 -0.601173
F5    F     F_    0.671496 0.313860 0.698424 -0.671747

loop_
_geom_bond_atom_site_label_1
_geom_bond_atom_site_label_2
_ccdc_geom_bond_type
N2    Zn1   S    
C31   F4    S    
C2    C4    A    
C27   O7    A    
C1    O2    A    
C21   O10   S    
C6    C7    A    
C25   H6    S    
C27   C29   S    
C5    C28   A    
C19   H5    S    
C18   H3    S    
C10   C30   A    
C18   O9    S    
C3    C7    A    
C31   C32   A    
N1    Zn2   S    
C9    C29   A    
C4    C8    A    
C24   N2    A    
C12   O3    A    
C26   F2    S    
C27   O8    A    
O10   H14   S    
C3    C10   A    
O3    Zn1   S    
C21   C22   A    
C25   H7    S    
C22   F1    S    
C9    H1    S    
C11   C13   A    
C11   C19   S    
O9    H13   S    
C30   C31   A    
C10   C12   S    
C8    C29   A    
C2    C32   A    
C22   N2    A    
C8    H10   S    
C17   C18   S    
C16   C23   S    
C21   N1    A    
C19   H4    S    
O7    Zn1   S    
C1    O1    A    
C5    C6    A    
C16   C17   A    
O8    Zn2   S    
C30   H11   S    
C23   O6    A    
C7    F5    S    
O11   H15   S    
C28   O11   S    
C20   C24   A    
C6    H8    S    
C1    C13   S    
C24   C25   S    
C9    C28   A    
C14   H12   S    
C18   C19   S    
C20   N1    A    
O2    Zn2   S    
O1    Zn1   S    
C14   C15   A    
C4    C5    A    
C2    C3    A    
C15   H2    S    
O5    Zn1   S    
C25   C26   S    
C13   C14   A    
O6    Zn2   S    
C23   O5    A    
C12   O4    A    
O4    Zn2   S    
C15   C16   A    
C26   H9    S    
C32   F3    S    
C20   C26   S    
C11   C17   A    
