data_mof_unit_51077.cif
_audit_creation_date              2012-10-26T21:33:02-0400
_audit_creation_method            fapswitch 2.2
_symmetry_space_group_name_H-M    P1
_symmetry_Int_Tables_number       1
_space_group_crystal_system       triclinic
_cell_length_a                    28.210104
_cell_length_b                    18.363756
_cell_length_c                    17.057662
_cell_angle_alpha                 90.43058
_cell_angle_beta                  60.932063
_cell_angle_gamma                 90.536016
_cell_volume                      7723.20582741

loop_
_atom_site_label
_atom_site_type_symbol
_atom_type_description
_atom_site_fract_x
_atom_site_fract_y
_atom_site_fract_z
_atom_type_partial_charge
C1    C     C_R   0.701983 0.268963 0.675677 0.888858
C2    C     C_R   0.920990 0.610683 0.572929 -0.200745
C3    C     C_R   0.074035 0.900273 0.933891 0.912293
C4    C     C_R   0.574292 0.599550 0.933924 0.913707
C5    C     C_R   0.425708 0.400450 0.066076 0.913707
C6    C     C_R   0.425965 0.599727 0.066109 0.912292
C7    C     C_R   0.574035 0.400273 0.933890 0.912293
C8    C     C_R   0.546827 0.002351 0.510137 0.031113
C9    C     C_R   0.453173 0.997649 0.489863 0.031113
C10   C     C_R   0.046827 0.502351 0.510137 0.031113
C11   C     C_R   0.953173 0.497649 0.489863 0.031113
C12   C     C_R   0.509974 0.061208 0.542041 0.045269
C13   C     C_R   0.976703 0.377553 0.421332 -0.201159
C14   C     C_R   0.490026 0.938792 0.457959 0.045269
C15   C     C_R   0.461995 0.057686 0.534312 0.049771
C16   C     C_R   0.538005 0.942314 0.465688 0.049771
C17   C     C_R   0.009974 0.561208 0.542041 0.045269
C18   C     C_R   0.990026 0.438792 0.457959 0.045269
C19   C     C_R   0.961995 0.557686 0.534312 0.049771
C20   C     C_R   0.038005 0.442314 0.465688 0.049771
C21   C     C_R   0.628283 0.943628 0.497138 0.024928
C22   C     C_R   0.371717 0.056372 0.502862 0.024928
C23   C     C_R   0.393850 0.934413 0.442571 0.045535
C24   C     C_R   0.023297 0.622447 0.578668 -0.201159
C25   C     C_R   0.606150 0.065587 0.557429 0.045535
C26   C     C_R   0.128283 0.443628 0.497138 0.024928
C27   C     C_R   0.871717 0.556372 0.502862 0.024928
C28   C     C_R   0.893850 0.434413 0.442571 0.045535
C29   C     C_R   0.106150 0.565587 0.557429 0.045535
C30   C     C_R   0.666582 0.939607 0.529169 -0.189104
C31   C     C_R   0.333418 0.060393 0.470831 -0.189104
C32   C     C_R   0.345251 0.934074 0.436792 -0.188639
C33   C     C_R   0.654749 0.065926 0.563208 -0.188639
C34   C     C_R   0.166582 0.439607 0.529169 -0.189104
C35   C     C_R   0.579010 0.889317 0.427071 -0.200746
C36   C     C_R   0.833418 0.560393 0.470831 -0.189103
C37   C     C_R   0.845251 0.434074 0.436792 -0.188639
C38   C     C_R   0.154749 0.565926 0.563208 -0.188639
C39   C     C_R   0.675922 0.000357 0.569653 0.098394
C40   C     C_R   0.324078 0.999643 0.430347 0.098394
C41   C     C_R   0.175922 0.500357 0.569653 0.098394
C42   C     C_R   0.824078 0.499643 0.430347 0.098394
C43   C     C_R   0.593204 0.003551 0.522585 0.078650
C44   C     C_R   0.406796 0.996449 0.477415 0.078650
C45   C     C_R   0.093204 0.503551 0.522585 0.078650
C46   C     C_R   0.420990 0.110683 0.572929 -0.200746
C47   C     C_R   0.906796 0.496449 0.477415 0.078650
C48   C     C_R   0.123310 0.390351 0.441837 -0.161046
C49   C     C_R   0.876690 0.609649 0.558163 -0.161047
C50   C     C_R   0.929446 0.375303 0.414532 -0.142271
C51   C     C_R   0.070554 0.624697 0.585468 -0.142271
C52   C     C_R   0.623309 0.890351 0.441837 -0.161046
C53   C     C_R   0.376690 0.109649 0.558163 -0.161046
C54   C     C_R   0.429446 0.875303 0.414532 -0.142271
C55   C     C_R   0.570554 0.124697 0.585468 -0.142271
C56   C     C_R   0.476703 0.877553 0.421332 -0.201159
C57   C     C_R   0.523297 0.122447 0.578668 -0.201160
C58   C     C_R   0.720317 0.264425 0.954013 0.005376
C59   C     C_R   0.279683 0.735575 0.045987 0.005375
C60   C     C_R   0.278581 0.264341 0.047552 -0.005315
C61   C     C_R   0.298017 0.731037 0.324323 0.888858
C62   C     C_R   0.721419 0.735658 0.952448 -0.005315
C63   C     C_R   0.220317 0.764425 0.954013 0.005375
C64   C     C_R   0.779683 0.235575 0.045987 0.005376
C65   C     C_R   0.778581 0.764341 0.047552 -0.005316
C66   C     C_R   0.221419 0.235658 0.952448 -0.005315
C67   C     C_R   0.733286 0.192275 0.964331 0.184817
C68   C     C_R   0.266714 0.807725 0.035669 0.184817
C69   C     C_R   0.282878 0.196065 0.006559 0.196681
C70   C     C_R   0.717122 0.803934 0.993442 0.196681
C71   C     C_R   0.233286 0.692275 0.964330 0.184818
C72   C     C_R   0.298238 0.268361 0.324010 0.895701
C73   C     C_R   0.766714 0.307725 0.035669 0.184818
C74   C     C_R   0.782878 0.696066 0.006558 0.196681
C75   C     C_R   0.217122 0.303935 0.993441 0.196681
C76   C     C_R   0.762718 0.178602 0.009513 -0.240575
C77   C     C_R   0.237282 0.821398 0.990487 -0.240574
C78   C     C_R   0.254240 0.182071 0.959875 -0.253500
C79   C     C_R   0.745759 0.817928 0.040125 -0.253500
C80   C     C_R   0.262718 0.678602 0.009513 -0.240575
C81   C     C_R   0.737282 0.321398 0.990487 -0.240575
C82   C     C_R   0.754240 0.682072 0.959875 -0.253500
C83   C     C_R   0.701762 0.731638 0.675990 0.895701
C84   C     C_R   0.245760 0.317929 0.040125 -0.253500
C85   C     C_R   0.643449 0.326352 0.946312 -0.188653
C86   C     C_R   0.356551 0.673648 0.053688 -0.188654
C87   C     C_R   0.355228 0.326921 0.054745 -0.180959
C88   C     C_R   0.644772 0.673079 0.945255 -0.180958
C89   C     C_R   0.143449 0.826352 0.946312 -0.188653
C90   C     C_R   0.856551 0.173648 0.053688 -0.188653
C91   C     C_R   0.855228 0.826921 0.054745 -0.180959
C92   C     C_R   0.144772 0.173079 0.945255 -0.180959
C93   C     C_R   0.616479 0.346946 0.898447 -0.070799
C94   C     C_R   0.201983 0.768963 0.675677 0.888858
C95   C     C_R   0.383521 0.653054 0.101553 -0.070799
C96   C     C_R   0.382945 0.347190 0.101734 -0.074866
C97   C     C_R   0.617055 0.652810 0.898266 -0.074866
C98   C     C_R   0.116479 0.846946 0.898447 -0.070799
C99   C     C_R   0.883521 0.153054 0.101553 -0.070799
C100  C     C_R   0.882945 0.847190 0.101734 -0.074866
C101  C     C_R   0.117055 0.152810 0.898266 -0.074866
C102  C     C_R   0.633145 0.321684 0.813227 -0.255793
C103  C     C_R   0.366855 0.678316 0.186773 -0.255793
C104  C     C_R   0.366767 0.321650 0.186516 -0.249056
C105  C     C_R   0.798017 0.231037 0.324323 0.888858
C106  C     C_R   0.633233 0.678349 0.813484 -0.249056
C107  C     C_R   0.133145 0.821684 0.813227 -0.255793
C108  C     C_R   0.866855 0.178316 0.186773 -0.255793
C109  C     C_R   0.866767 0.821651 0.186516 -0.249056
C110  C     C_R   0.133233 0.178349 0.813484 -0.249056
C111  C     C_R   0.679669 0.281563 0.770754 -0.054574
C112  C     C_R   0.320331 0.718437 0.229246 -0.054574
C113  C     C_R   0.320336 0.280624 0.228997 -0.056511
C114  C     C_R   0.679664 0.719376 0.771003 -0.056511
C115  C     C_R   0.179669 0.781563 0.770754 -0.054574
C116  C     C_R   0.798238 0.768361 0.324010 0.895701
C117  C     C_R   0.820331 0.218437 0.229246 -0.054574
C118  C     C_R   0.820336 0.780624 0.228997 -0.056511
C119  C     C_R   0.179664 0.219376 0.771003 -0.056511
C120  C     C_R   0.707882 0.260565 0.816749 -0.138589
C121  C     C_R   0.292118 0.739435 0.183251 -0.138589
C122  C     C_R   0.291893 0.258694 0.183140 -0.150797
C123  C     C_R   0.708106 0.741306 0.816860 -0.150797
C124  C     C_R   0.207882 0.760565 0.816749 -0.138589
C125  C     C_R   0.792118 0.239435 0.183251 -0.138588
C126  C     C_R   0.791893 0.758694 0.183140 -0.150797
C127  C     C_R   0.201762 0.231638 0.675990 0.895701
C128  C     C_R   0.208106 0.241306 0.816860 -0.150797
C129  C     C_R   0.689347 0.281978 0.905993 0.105039
C130  C     C_R   0.310653 0.718022 0.094007 0.105039
C131  C     C_R   0.309585 0.281857 0.095108 0.106694
C132  C     C_R   0.690415 0.718143 0.904892 0.106693
C133  C     C_R   0.189347 0.781978 0.905993 0.105039
C134  C     C_R   0.810653 0.218022 0.094007 0.105039
C135  C     C_R   0.809585 0.781857 0.095108 0.106694
C136  C     C_R   0.190415 0.218143 0.904891 0.106694
C137  C     C_R   0.690298 0.130242 0.539032 0.910245
C138  C     C_R   0.079010 0.389317 0.427071 -0.200746
C139  C     C_R   0.309702 0.869758 0.460968 0.910245
C140  C     C_R   0.304999 0.127294 0.476620 0.927090
C141  C     C_R   0.695001 0.872706 0.523380 0.927090
C142  C     C_R   0.190298 0.630242 0.539032 0.910245
C143  C     C_R   0.809702 0.369758 0.460968 0.910245
C144  C     C_R   0.804999 0.627294 0.476620 0.927090
C145  C     C_R   0.195001 0.372706 0.523380 0.927090
C146  C     C_R   0.074292 0.099550 0.933924 0.913707
C147  C     C_R   0.925707 0.900450 0.066076 0.913707
C148  C     C_R   0.925965 0.099727 0.066110 0.912292
H1    H     H_    0.154008 0.349598 0.407328 0.169623
H2    H     H_    0.921488 0.653374 0.616209 0.142463
H3    H     H_    0.001426 0.329447 0.398964 0.141063
H4    H     H_    0.998574 0.670553 0.601036 0.141063
H5    H     H_    0.578512 0.846626 0.383791 0.142463
H6    H     H_    0.421488 0.153374 0.616209 0.142463
H7    H     H_    0.501426 0.829447 0.398964 0.141063
H8    H     H_    0.498574 0.170553 0.601036 0.141063
H9    H     H_    0.728352 0.377216 0.982445 0.171930
H10   H     H_    0.271648 0.622784 0.017555 0.171930
H11   H     H_    0.242201 0.370733 0.071188 0.175089
H12   H     H_    0.845992 0.650402 0.592672 0.169623
H13   H     H_    0.757799 0.629268 0.928811 0.175089
H14   H     H_    0.228352 0.877216 0.982445 0.171930
H15   H     H_    0.771648 0.122784 0.017555 0.171930
H16   H     H_    0.742201 0.870732 0.071189 0.175089
H17   H     H_    0.257798 0.129267 0.928812 0.175089
H18   H     H_    0.629728 0.346272 0.013865 0.159106
H19   H     H_    0.370272 0.653728 0.986135 0.159106
H20   H     H_    0.368082 0.347582 0.987983 0.160198
H21   H     H_    0.631918 0.652418 0.012017 0.160198
H22   H     H_    0.129728 0.846272 0.013865 0.159106
H23   H     H_    0.922215 0.327942 0.383545 0.164598
H24   H     H_    0.870272 0.153728 0.986135 0.159106
H25   H     H_    0.868082 0.847582 0.987983 0.160197
H26   H     H_    0.131918 0.152418 0.012017 0.160198
H27   H     H_    0.612029 0.337936 0.777404 0.178143
H28   H     H_    0.387971 0.662064 0.222596 0.178143
H29   H     H_    0.388222 0.338217 0.222069 0.180211
H30   H     H_    0.611777 0.661783 0.777931 0.180211
H31   H     H_    0.112029 0.837936 0.777404 0.178143
H32   H     H_    0.887971 0.162064 0.222596 0.178143
H33   H     H_    0.888222 0.838217 0.222069 0.180211
H34   H     H_    0.077785 0.672058 0.616455 0.164598
H35   H     H_    0.111778 0.161783 0.777931 0.180211
H36   H     H_    0.745310 0.230228 0.782432 0.172452
H37   H     H_    0.254690 0.769772 0.217568 0.172452
H38   H     H_    0.255045 0.226444 0.216547 0.165641
H39   H     H_    0.744955 0.773556 0.783453 0.165641
H40   H     H_    0.245310 0.730228 0.782432 0.172452
H41   H     H_    0.754690 0.269772 0.217568 0.172452
H42   H     H_    0.755045 0.726444 0.216547 0.165641
H43   H     H_    0.244955 0.273556 0.783453 0.165641
H44   H     H_    0.654008 0.849598 0.407328 0.169623
H45   H     H_    0.345992 0.150402 0.592672 0.169623
H46   H     H_    0.422215 0.827942 0.383545 0.164598
H47   H     H_    0.577785 0.172058 0.616455 0.164598
H48   H     H_    0.078512 0.346626 0.383791 0.142463
I1    I     I_    0.713618 0.996420 0.653090 -0.255244
I2    I     I_    0.793323 0.399417 0.080605 -0.298991
I3    I     I_    0.833739 0.613385 0.009894 -0.296090
I4    I     I_    0.166261 0.386615 0.990105 -0.296090
I5    I     I_    0.286382 0.003580 0.346910 -0.255243
I6    I     I_    0.213618 0.496420 0.653090 -0.255244
I7    I     I_    0.786382 0.503580 0.346910 -0.255244
I8    I     I_    0.706677 0.100583 0.919395 -0.298990
I9    I     I_    0.293323 0.899417 0.080605 -0.298990
I10   I     I_    0.333739 0.113385 0.009895 -0.296090
I11   I     I_    0.666261 0.886615 0.990106 -0.296090
I12   I     I_    0.206677 0.600583 0.919395 -0.298990
O1    O     O_R   0.746490 0.236330 0.638080 -0.622920
O2    O     O_R   0.325830 0.813840 0.483730 -0.639600
O3    O     O_R   0.325830 0.186160 0.483730 -0.640801
O4    O     O_R   0.674170 0.813840 0.516270 -0.640801
O5    O     O_R   0.174170 0.686160 0.516270 -0.639600
O6    O     O_R   0.825830 0.313840 0.483730 -0.639600
O7    O     O_R   0.825830 0.686160 0.483730 -0.640801
O8    O     O_R   0.174170 0.313840 0.516270 -0.640801
O9    O     O_R   0.739960 0.127620 0.525000 -0.588336
O10   O     O_R   0.260040 0.872380 0.475000 -0.588336
O11   O     O_R   0.260040 0.127620 0.475000 -0.593318
O12   O     O_R   0.253510 0.763670 0.361920 -0.622920
O13   O     O_R   0.739960 0.872380 0.525000 -0.593318
O14   O     O_R   0.239960 0.627620 0.525000 -0.588336
O15   O     O_R   0.760040 0.372380 0.475000 -0.588336
O16   O     O_R   0.760040 0.627620 0.475000 -0.593318
O17   O     O_R   0.239960 0.372380 0.525000 -0.593318
O18   O     O_R   0.680700 0.294870 0.629350 -0.637912
O19   O     O_R   0.319300 0.705130 0.370650 -0.637912
O20   O     O_R   0.319300 0.294870 0.370650 -0.628629
O21   O     O_R   0.680700 0.705130 0.629350 -0.628629
O22   O     O_R   0.180700 0.794870 0.629350 -0.637912
O23   O     O_R   0.253510 0.236330 0.361920 -0.637398
O24   O     O_R   0.819300 0.205130 0.370650 -0.637912
O25   O     O_R   0.819300 0.794870 0.370650 -0.628629
O26   O     O_R   0.180700 0.205130 0.629350 -0.628629
O27   O     O_R   0.062020 0.072840 0.007170 -0.626001
O28   O     O_R   0.937980 0.927160 0.992830 -0.626001
O29   O     O_R   0.937980 0.072840 0.992830 -0.625512
O30   O     O_R   0.062020 0.927160 0.007170 -0.625512
O31   O     O_R   0.562020 0.572840 0.007170 -0.626001
O32   O     O_R   0.437980 0.427160 0.992830 -0.626001
O33   O     O_R   0.437980 0.572840 0.992830 -0.625512
O34   O     O_R   0.746490 0.763670 0.638080 -0.637398
O35   O     O_R   0.562020 0.427160 0.007170 -0.625512
O36   O     O_R   0.947860 0.073950 0.109290 -0.622205
O37   O     O_R   0.052140 0.926050 0.890710 -0.622205
O38   O     O_R   0.052140 0.073950 0.890710 -0.621599
O39   O     O_R   0.947860 0.926050 0.109290 -0.621599
O40   O     O_R   0.447860 0.573950 0.109290 -0.622205
O41   O     O_R   0.552140 0.426050 0.890710 -0.622205
O42   O     O_R   0.552140 0.573950 0.890710 -0.621599
O43   O     O_R   0.447860 0.426050 0.109290 -0.621599
O44   O     O_R   0.246490 0.736330 0.638080 -0.622920
O45   O     O_R   0.753510 0.263670 0.361920 -0.622920
O46   O     O_R   0.753510 0.736330 0.361920 -0.637398
O47   O     O_R   0.246490 0.263670 0.638080 -0.637398
O48   O     O_R   0.674170 0.186160 0.516270 -0.639600
Zn1   Zn    Zn3+2 0.792340 0.208750 0.507670 0.991174
Zn2   Zn    Zn3+2 0.494040 0.500000 0.919480 0.956209
Zn3   Zn    Zn3+2 0.005960 0.000000 0.080520 0.956209
Zn4   Zn    Zn3+2 0.994040 0.000000 0.919480 0.956209
Zn5   Zn    Zn3+2 0.207660 0.791250 0.492330 0.991174
Zn6   Zn    Zn3+2 0.207660 0.208750 0.492330 0.989446
Zn7   Zn    Zn3+2 0.792340 0.791250 0.507670 0.989446
Zn8   Zn    Zn3+2 0.292340 0.708750 0.507670 0.991174
Zn9   Zn    Zn3+2 0.707660 0.291250 0.492330 0.991174
Zn10  Zn    Zn3+2 0.707660 0.708750 0.492330 0.989446
Zn11  Zn    Zn3+2 0.292340 0.291250 0.507670 0.989446
Zn12  Zn    Zn3+2 0.505960 0.500000 0.080520 0.956210

loop_
_geom_bond_atom_site_label_1
_geom_bond_atom_site_label_2
_ccdc_geom_bond_type
C125  C134  A    
C2    H2    S    
C55   H47   S    
C99   C148  S    
C59   C130  S    
C65   C79   A    
C5    O32   A    
C123  C132  A    
C53   H45   S    
C5    O43   A    
C11   C47   A    
O12   Zn5   S    
C139  O10   A    
C61   O12   A    
C105  O45   A    
O41   Zn2   S    
O48   Zn9   S    
C51   H34   S    
O42   Zn2   S    
C25   C43   A    
C69   C78   A    
C28   C47   A    
C116  O46   A    
C75   I4    S    
C99   C108  A    
O36   Zn3   S    
C83   O34   A    
C11   C19   A    
C69   I10   S    
C33   C39   A    
C30   C141  S    
C124  C133  A    
C106  C114  A    
C127  O47   A    
C85   H18   S    
C63   C133  S    
C6    O40   A    
C5    C96   S    
C72   O23   A    
C29   C51   A    
C89   H22   S    
C61   C112  S    
C128  C136  A    
C16   C35   A    
C143  O15   A    
C90   C134  A    
C34   C145  S    
C75   C84   A    
C122  H38   S    
C10   C17   A    
C87   C131  A    
C80   H10   S    
C3    O30   A    
C68   C77   A    
O9    Zn1   S    
C31   C40   A    
C91   H25   S    
C142  O14   A    
C52   H44   S    
C20   C138  A    
C37   C42   A    
C126  H42   S    
O37   Zn4   S    
C67   I8    S    
C24   H4    S    
C26   C45   A    
C85   C129  A    
C3    O37   A    
C21   C43   A    
C85   C93   A    
C26   C34   A    
C22   C44   A    
C113  C122  A    
C87   H20   S    
C33   C137  S    
C78   H17   S    
C49   H12   S    
C141  O13   A    
C116  O25   A    
C30   C39   A    
C64   C73   A    
C8    C43   A    
C6    O33   A    
C50   H23   S    
C115  C124  A    
C48   H1    S    
C91   C100  A    
C108  H32   S    
C121  C130  A    
C88   C97   A    
C26   C48   A    
O25   Zn7   S    
C147  O28   A    
C24   C51   A    
C39   I1    S    
O22   Zn5   S    
O4    Zn10  S    
C100  C109  A    
C8    C16   A    
C1    C111  S    
C4    C97   S    
C73   I2    S    
C123  H39   S    
C38   C142  S    
C83   C114  S    
C105  C117  S    
C42   I7    S    
C92   C136  A    
C34   C41   A    
C28   C50   A    
C74   C82   A    
C56   H7    S    
C7    C93   S    
C60   C131  S    
C73   C81   A    
C71   C80   A    
O8    Zn6   S    
C84   H11   S    
C95   C103  A    
O19   Zn8   S    
C22   C53   A    
C64   C134  S    
C36   C42   A    
C139  O2    A    
O2    Zn8   S    
C46   H6    S    
C57   H8    S    
C54   C56   A    
C101  C146  S    
O28   Zn4   S    
C17   C24   A    
C89   C133  A    
C22   C31   A    
C11   C18   A    
C1    O1    A    
C120  C129  A    
C105  O24   A    
O7    Zn7   S    
C106  H30   S    
O35   Zn12  S    
C13   H3    S    
C38   C41   A    
C7    O35   A    
O33   Zn2   S    
C58   C81   A    
C10   C20   A    
C124  H40   S    
O44   Zn8   S    
C86   C130  A    
C83   O21   A    
C92   H26   S    
C70   I11   S    
C145  O17   A    
C72   C113  S    
C65   C74   A    
C148  O29   A    
O21   Zn10  S    
O5    Zn5   S    
C111  C120  A    
C121  H37   S    
C29   C38   A    
C9    C14   A    
C2    C49   A    
C62   C132  S    
C59   C68   A    
C145  O8    A    
C120  H36   S    
C140  O11   A    
O1    Zn1   S    
C104  H29   S    
C1    O18   A    
O34   Zn7   S    
C87   C96   A    
O29   Zn4   S    
O3    Zn11  S    
C64   C76   A    
O30   Zn3   S    
O6    Zn1   S    
C61   O19   A    
C74   I3    S    
C102  C111  A    
C101  C110  A    
C141  O4    A    
C107  C115  A    
C65   C135  S    
C92   C101  A    
C32   C139  S    
C143  O6    A    
C66   C136  S    
C114  C123  A    
C13   C18   A    
C66   C78   A    
C60   C69   A    
C71   I12   S    
O23   Zn6   S    
C7    O41   A    
C126  C135  A    
C12   C15   A    
O24   Zn1   S    
C96   C104  A    
C14   C16   A    
C97   C106  A    
C137  O9    A    
C90   C99   A    
C35   C52   A    
O20   Zn11  S    
C27   C49   A    
C94   O22   A    
C23   C54   A    
C63   C77   A    
C27   C47   A    
C77   H14   S    
C48   C138  A    
C146  O27   A    
O46   Zn10  S    
C9    C44   A    
C88   H21   S    
C37   C143  S    
C107  H31   S    
C2    C19   A    
C9    C15   A    
C93   C102  A    
C104  C113  A    
C108  C117  A    
O11   Zn6   S    
C86   H19   S    
C35   H5    S    
C142  O5    A    
C63   C71   A    
O13   Zn7   S    
C94   O44   A    
C110  C119  A    
C110  H35   S    
C144  O7    A    
O39   Zn3   S    
C94   C115  S    
C62   C70   A    
C59   C80   A    
O40   Zn12  S    
C82   H13   S    
C138  H48   S    
C27   C36   A    
C118  C126  A    
C21   C30   A    
C146  O38   A    
C100  C147  S    
C89   C98   A    
C128  H43   S    
O45   Zn9   S    
C23   C32   A    
C55   C57   A    
C102  H27   S    
C4    O42   A    
C112  C121  A    
C127  O26   A    
C25   C55   A    
C119  C128  A    
C14   C56   A    
O16   Zn10  S    
C60   C84   A    
C3    C98   S    
C122  C131  A    
C70   C79   A    
O47   Zn11  S    
C28   C37   A    
C79   H16   S    
C66   C75   A    
C46   C53   A    
C109  H33   S    
C103  H28   S    
C17   C19   A    
C4    O31   A    
C116  C118  S    
O31   Zn12  S    
C18   C20   A    
O15   Zn9   S    
C32   C40   A    
C62   C82   A    
C81   H9    S    
C54   H46   S    
C144  O16   A    
C137  O48   A    
O38   Zn4   S    
C86   C95   A    
C23   C44   A    
O18   Zn9   S    
C147  O39   A    
C13   C50   A    
C41   I6    S    
C58   C67   A    
O26   Zn6   S    
C91   C135  A    
C40   I5    S    
C109  C118  A    
O27   Zn3   S    
C6    C95   S    
C72   O20   A    
C10   C45   A    
C90   H24   S    
C68   I9    S    
C148  O36   A    
O10   Zn5   S    
C88   C132  A    
C103  C112  A    
C76   H15   S    
C125  H41   S    
C67   C76   A    
C58   C129  S    
C15   C46   A    
O32   Zn2   S    
C31   C140  S    
C36   C144  S    
C12   C57   A    
C117  C125  A    
O43   Zn12  S    
O17   Zn11  S    
C21   C52   A    
C29   C45   A    
C8    C12   A    
C140  O3    A    
C25   C33   A    
O14   Zn8   S    
C98   C107  A    
C119  C127  S    
