data_mof_unit_65355.cif
_audit_creation_date              2012-12-10T20:34:00-0500
_audit_creation_method            fapswitch 2.2
_symmetry_space_group_name_H-M    P1
_symmetry_Int_Tables_number       1
_space_group_crystal_system       triclinic
_cell_length_a                    21.718589
_cell_length_b                    21.690167
_cell_length_c                    21.295119
_cell_angle_alpha                 121.184005
_cell_angle_beta                  121.398277
_cell_angle_gamma                 89.328594
_cell_volume                      6852.87687625

loop_
_atom_site_label
_atom_site_type_symbol
_atom_type_description
_atom_site_fract_x
_atom_site_fract_y
_atom_site_fract_z
_atom_type_partial_charge
C1    C     C_R   0.085593 0.585816 0.671451 0.826877
C2    C     C_R   0.498961 0.732810 0.765066 0.560843
C3    C     C_R   0.494441 0.779489 0.736938 0.480284
C4    C     C_R   0.119534 0.499080 0.499267 0.981963
C5    C     C_R   0.428499 0.757765 0.652620 0.376474
C6    C     C_R   0.367435 0.688915 0.595969 0.502198
C7    C     C_R   0.372817 0.640673 0.622475 -0.124608
C8    C     C_1   0.136186 0.636768 0.773052 -0.159308
C9    C     C_1   0.178287 0.679048 0.857688 0.072733
C10   C     C_1   0.227983 0.728866 0.957612 0.099453
C11   C     C_1   0.270220 0.771099 0.042266 0.088994
C12   C     C_R   0.990895 0.218957 0.258877 0.657537
C13   C     C_1   0.320281 0.821037 0.142228 0.073817
C14   C     C_1   0.362821 0.863381 0.226895 -0.113918
C15   C     C_R   0.984824 0.472165 0.724883 0.133541
C16   C     C_R   0.914206 0.414168 0.328530 0.899207
C17   C     C_R   0.916876 0.461841 0.649519 0.572984
C18   C     C_R   0.893661 0.524795 0.657068 -0.265681
C19   C     C_R   0.940510 0.599330 0.741707 0.246744
C20   C     C_R   0.006913 0.608425 0.817172 -0.371485
C21   C     C_R   0.028692 0.545556 0.809237 0.501718
C22   C     C_R   0.755370 0.510870 0.572597 -0.067485
C23   C     C_R   0.248608 0.425192 0.434255 0.457889
C24   C     C_R   0.688164 0.505113 0.500775 -0.202744
C25   C     C_R   0.686143 0.501761 0.431659 0.074430
C26   C     C_R   0.749834 0.497240 0.431576 0.691525
C27   C     C_R   0.816285 0.502528 0.503091 -0.155330
C28   C     C_R   0.881259 0.501287 0.502021 0.916978
C29   C     C_R   0.820852 0.511739 0.575897 0.140976
C30   C     C_R   0.562257 0.433546 0.277174 0.602263
C31   C     C_R   0.503193 0.429928 0.202673 -0.253302
C32   C     C_R   0.499768 0.496511 0.208600 0.602998
C33   C     C_R   0.554727 0.569118 0.290884 0.224099
C34   C     C_R   0.311336 0.496032 0.497694 -0.314298
C35   C     C_R   0.617618 0.573503 0.367319 0.212957
C36   C     C_R   0.619917 0.504194 0.359554 -0.192658
C37   C     C_1   0.863474 0.363216 0.226887 -0.066226
C38   C     C_1   0.821387 0.320917 0.142234 0.092757
C39   C     C_1   0.771804 0.271031 0.042295 0.131152
C40   C     C_R   0.053046 0.240916 0.344870 -0.264846
C41   C     C_1   0.729702 0.228824 0.957647 0.211177
C42   C     C_1   0.679728 0.179009 0.857702 0.163054
C43   C     C_1   0.637160 0.136728 0.773054 -0.156496
C44   C     C_R   0.496176 0.621588 0.499949 0.923117
C45   C     C_R   0.310020 0.565550 0.559651 -0.009940
C46   C     C_R   0.378250 0.498310 0.499380 0.996536
C47   C     C_R   0.502078 0.378606 0.499723 1.081417
C48   C     C_R   0.621649 0.503351 0.500233 0.954462
C49   C     C_R   0.499645 0.120336 0.500495 0.975651
C50   C     C_R   0.414083 0.914252 0.328560 0.880116
C51   C     C_R   0.500769 0.880744 0.500940 0.890651
C52   C     C_R   0.117472 0.307509 0.403290 0.430519
C53   C     C_R   0.585911 0.085802 0.671432 0.823696
C54   C     C_R   0.279102 0.487001 0.212905 0.223702
C55   C     C_R   0.348733 0.549919 0.279511 0.605138
C56   C     C_R   0.245820 0.565094 0.557928 0.662348
C57   C     C_R   0.357147 0.618881 0.351946 -0.199187
C58   C     C_R   0.293056 0.626594 0.352144 -0.286408
C59   C     C_R   0.223205 0.564561 0.284973 0.730792
C60   C     C_R   0.216425 0.494636 0.216069 -0.349623
C61   C     C_R   0.435523 0.749450 0.428522 -0.176258
C62   C     C_R   0.501234 0.815509 0.501415 -0.115313
C63   C     C_R   0.563558 0.820102 0.575916 0.020366
C64   C     C_R   0.118530 0.353445 0.374240 -0.103189
C65   C     C_R   0.559702 0.756238 0.575434 0.695836
C66   C     C_R   0.495331 0.687929 0.499890 -0.236268
C67   C     C_R   0.184328 0.496285 0.497228 -0.299363
C68   C     C_R   0.431523 0.684750 0.426352 0.100323
C69   C     C_R   0.689656 0.912130 0.652275 -0.236157
C70   C     C_R   0.754521 0.979058 0.729239 0.552118
C71   C     C_R   0.762084 0.025174 0.810941 0.492075
C72   C     C_R   0.704659 0.004384 0.815611 0.518561
C73   C     C_R   0.639392 0.937950 0.738454 -0.245423
C74   C     C_R   0.631521 0.891605 0.656380 -0.084241
C75   C     C_R   0.517950 0.221560 0.256122 0.596057
C76   C     C_R   0.054626 0.330869 0.286628 0.259910
C77   C     C_R   0.493120 0.225303 0.306201 -0.338910
C78   C     C_R   0.185028 0.425722 0.436190 -0.050564
C79   C     C_R   0.546598 0.259463 0.400200 -0.141830
C80   C     C_R   0.626226 0.291486 0.445132 0.262568
C81   C     C_R   0.650190 0.287951 0.393652 0.403405
C82   C     C_R   0.596397 0.251984 0.299546 0.565316
C83   C     C_R   0.515865 0.189595 0.447013 0.681466
C84   C     C_R   0.496781 0.185383 0.498341 -0.301602
C85   C     C_R   0.474890 0.242972 0.546118 -0.096246
C86   C     C_R   0.477855 0.307057 0.546733 0.656007
C87   C     C_R   0.500147 0.312315 0.498419 -0.279990
C88   C     C_R   0.991731 0.263358 0.229867 -0.316030
C89   C     C_R   0.438137 0.663779 0.708283 -0.359687
C90   C     C_R   0.518730 0.253592 0.447776 -0.045516
C91   C     C_R   0.374828 0.204774 0.559388 0.365236
C92   C     C_R   0.356950 0.205219 0.614062 -0.388496
C93   C     C_R   0.414756 0.238842 0.706681 0.626371
C94   C     C_R   0.491714 0.272640 0.746269 0.371381
C95   C     C_R   0.510188 0.273045 0.692491 -0.377001
C96   C     C_R   0.452437 0.239659 0.599452 0.026418
F1    F     F_    0.929186 0.154234 0.203299 -0.548261
F2    F     F_    0.408732 0.543582 0.275199 -0.650190
F3    F     F_    0.162043 0.572143 0.286911 -0.564348
F4    F     F_    0.620239 0.760203 0.647451 -0.579978
F5    F     F_    0.810264 0.998911 0.724680 -0.537164
F6    F     F_    0.825122 0.089926 0.885653 -0.548804
F7    F     F_    0.712153 0.048588 0.894927 -0.557085
F8    F     F_    0.620571 0.246838 0.250268 -0.491228
F9    F     F_    0.465855 0.187422 0.164976 -0.520989
F10   F     F_    0.725548 0.317946 0.433323 -0.510760
F11   F     F_    0.532996 0.131946 0.397203 -0.605073
F12   F     F_    0.553717 0.846115 0.791808 -0.527325
F13   F     F_    0.458327 0.363973 0.593589 -0.616944
F14   F     F_    0.395438 0.238694 0.757818 -0.536030
F15   F     F_    0.243922 0.631903 0.617243 -0.609412
F16   F     F_    0.562568 0.754116 0.847115 -0.534266
F17   F     F_    0.423719 0.803469 0.625840 -0.586242
F18   F     F_    0.302553 0.669331 0.515868 -0.601071
F19   F     F_    0.093513 0.556936 0.883919 -0.571012
F20   F     F_    0.874042 0.390643 0.568058 -0.495200
F21   F     F_    0.748071 0.490238 0.363273 -0.625967
F22   F     F_    0.564541 0.367166 0.268006 -0.600246
F23   F     F_    0.441890 0.489365 0.132836 -0.509655
H1    H     H_    0.043322 0.664867 0.882423 0.244606
H2    H     H_    0.432224 0.199993 0.271375 0.249868
H3    H     H_    0.297929 0.179697 0.585192 0.250430
H4    H     H_    0.569480 0.299684 0.722843 0.231942
H5    H     H_    0.942595 0.244929 0.162753 0.237769
H6    H     H_    0.442443 0.627492 0.730033 0.248494
H7    H     H_    0.129141 0.444683 0.762743 0.363646
H8    H     H_    0.985920 0.694768 0.706492 0.352843
H9    H     H_    0.423205 0.638215 0.235937 0.377630
H10   H     H_    0.803514 0.710312 0.597630 0.443001
H11   H     H_    0.192114 0.318757 0.106784 0.386470
H12   H     H_    0.757220 0.515674 0.626871 0.208248
H13   H     H_    0.318523 0.375111 0.600552 0.409297
H14   H     H_    0.093892 0.510098 0.342715 0.411492
H15   H     H_    0.718999 0.432035 0.690073 0.397360
H16   H     H_    0.226477 0.066078 0.409603 0.358208
H17   H     H_    0.590956 0.414333 0.991321 0.402698
H18   H     H_    0.144586 0.239331 0.237799 0.386819
H19   H     H_    0.050666 0.205671 0.366013 0.236469
H20   H     H_    0.459917 0.374683 0.139128 0.263570
H21   H     H_    0.162184 0.446869 0.164980 0.259347
H22   H     H_    0.297457 0.680870 0.404520 0.275110
H23   H     H_    0.387026 0.748598 0.373344 0.160289
H24   H     H_    0.684650 0.876259 0.589608 0.255722
H25   H     H_    0.595065 0.922419 0.742519 0.277219
O1    O     O_R   0.063140 0.511430 0.626300 -0.605519
O2    O     O_R   0.448260 0.091600 0.499970 -0.617446
O3    O     O_R   0.488590 0.936860 0.373720 -0.563819
O4    O     O_R   0.063120 0.614850 0.626270 -0.585533
O5    O     O_R   0.385150 0.936860 0.373710 -0.593335
O6    O     O_R   0.551740 0.908400 0.500030 -0.600218
O7    O     O_R   0.448290 0.908400 0.500030 -0.595174
O8    O     O_R   0.614850 0.063140 0.626290 -0.593809
O9    O     O_R   0.511410 0.063140 0.626280 -0.589903
O10   O     O_R   0.091630 0.448290 0.500020 -0.612675
O11   O     O_R   0.091620 0.551710 0.499990 -0.542671
O12   O     O_R   0.535650 0.627270 0.571300 -0.583019
O13   O     O_R   0.936880 0.385150 0.373730 -0.609502
O14   O     O_R   0.936860 0.488570 0.373700 -0.554901
O15   O     O_R   0.908380 0.448290 0.500010 -0.557431
O16   O     O_R   0.908370 0.551710 0.499980 -0.563964
O17   O     O_R   0.464370 0.556010 0.428710 -0.607047
O18   O     O_2   0.982653 0.358594 0.740915 -0.127637
O19   O     O_2   0.986022 0.333012 0.616769 -0.186026
O20   O     O_3   0.111625 0.422900 0.784097 -0.402075
O21   O     O_2   0.841769 0.676064 0.724377 -0.203404
O22   O     O_2   0.978154 0.753557 0.851025 -0.223174
O23   O     O_R   0.372740 0.464390 0.428700 -0.578712
O24   O     O_3   0.932659 0.692629 0.685482 -0.509135
O25   O     O_2   0.563503 0.718287 0.383636 -0.276269
O26   O     O_2   0.594786 0.674510 0.276049 -0.157401
O27   O     O_3   0.451580 0.632211 0.209972 -0.418170
O28   O     O_2   0.715926 0.708834 0.446434 -0.167916
O29   O     O_2   0.661010 0.708770 0.521601 -0.268260
O30   O     O_3   0.771468 0.656753 0.541143 -0.506990
O31   O     O_2   0.275395 0.408648 0.064282 -0.108169
O32   O     O_2   0.336938 0.375023 0.170512 -0.263098
O33   O     O_3   0.187069 0.329444 0.064688 -0.448910
O34   O     O_R   0.444020 0.535650 0.571290 -0.638276
O35   O     O_2   0.183972 0.388622 0.583490 -0.265181
O36   O     O_2   0.191547 0.260626 0.508701 -0.219666
O37   O     O_3   0.280425 0.370817 0.544321 -0.498782
O38   O     O_2   0.122539 0.400148 0.252718 -0.268945
O39   O     O_2   0.982061 0.343047 0.147234 -0.211482
O40   O     O_3   0.044933 0.470189 0.309260 -0.534044
O41   O     O_2   0.684512 0.277858 0.582062 -0.243462
O42   O     O_2   0.776028 0.355880 0.594604 -0.151994
O43   O     O_3   0.681332 0.413091 0.625460 -0.607361
O44   O     O_2   0.285751 0.222926 0.429404 -0.110669
O45   O     O_R   0.464350 0.372770 0.428700 -0.607661
O46   O     O_2   0.319665 0.107722 0.381312 -0.288361
O47   O     O_3   0.217132 0.111199 0.410379 -0.464360
O48   O     O_2   0.558310 0.260124 0.883492 -0.242260
O49   O     O_2   0.642841 0.339006 0.887881 -0.307949
O50   O     O_3   0.550804 0.394516 0.926815 -0.439829
O51   O     O_2   0.245220 0.340571 0.284040 -0.278064
O52   O     O_2   0.327528 0.329793 0.408029 -0.224515
O53   O     O_3   0.181871 0.256403 0.301685 -0.481317
O54   O     O_R   0.535630 0.444040 0.571290 -0.566418
O55   O     O_R   0.555980 0.464390 0.428710 -0.626596
O56   O     O_R   0.627260 0.535660 0.571300 -0.583831
O57   O     O_R   0.551710 0.091600 0.499970 -0.535781
S1    S     S_3+6 0.014847 0.393366 0.714125 0.216639
S2    S     S_3+6 0.564269 0.315966 0.863522 0.099694
S3    S     S_3+6 0.251489 0.337025 0.355777 0.131887
S4    S     S_3+6 0.922401 0.683005 0.753241 0.085393
S5    S     S_3+6 0.542973 0.651489 0.292765 0.178989
S6    S     S_3+6 0.692081 0.664140 0.470199 0.126977
S7    S     S_3+6 0.271169 0.398652 0.126839 0.164954
S8    S     S_3+6 0.193871 0.331765 0.512458 0.107519
S9    S     S_3+6 0.051142 0.385503 0.245939 0.066264
S10   S     S_3+6 0.695045 0.333829 0.563956 0.092287
S11   S     S_3+6 0.299125 0.161081 0.442222 0.121519
Zn1   Zn    Zn3+2 0.000010 0.430940 0.500020 1.142897
Zn2   Zn    Zn3+2 0.999990 0.569060 0.499980 1.177630
Zn3   Zn    Zn3+2 0.452410 0.452440 0.404800 1.149335
Zn4   Zn    Zn3+2 0.547590 0.547610 0.595200 1.151570
Zn5   Zn    Zn3+2 0.569070 1.000000 0.500000 1.157018
Zn6   Zn    Zn3+2 0.430930 1.000000 0.500000 1.062697

loop_
_geom_bond_atom_site_label_1
_geom_bond_atom_site_label_2
_ccdc_geom_bond_type
C50   O3    A    
C66   C68   A    
C63   C65   A    
O19   S1    D    
C53   O9    A    
C93   C94   A    
O15   Zn1   S    
C22   C29   A    
C22   H12   S    
C27   C29   A    
C1    C8    S    
C59   F3    S    
C41   C42   S    
C46   O34   A    
C4    O10   A    
C95   C96   A    
C61   C68   A    
C26   F21   S    
O23   Zn3   S    
C88   H5    S    
O54   Zn4   S    
C81   C82   A    
C70   F5    S    
C39   C41   T    
C54   C60   A    
C85   C86   A    
O39   S9    D    
C67   C78   A    
C2    F16   S    
C26   C27   A    
C62   C63   A    
O18   S1    D    
C83   C84   A    
O55   Zn3   S    
C7    C45   S    
C49   C84   S    
O26   S5    D    
C2    C89   A    
C30   C31   A    
C85   C96   S    
C11   C13   S    
C76   S9    S    
C7    C89   A    
O38   S9    D    
O53   S3    S    
O37   S8    S    
C18   C19   A    
C73   C74   A    
O46   S11   D    
C6    F18   S    
C79   C90   S    
O45   Zn3   S    
C12   F1    S    
C91   C96   A    
C54   C55   A    
C1    O1    A    
C43   C53   S    
C35   C36   A    
C51   O6    A    
C8    C9    T    
C20   H1    S    
C40   H19   S    
O12   Zn4   S    
C53   O8    A    
O41   S10   D    
C47   O54   A    
C70   C71   A    
C34   C46   S    
O22   S4    D    
O52   S3    D    
C9    C10   S    
C76   C88   A    
C56   F15   S    
C21   F19   S    
C16   C37   S    
C72   C73   A    
C47   O45   A    
O17   Zn3   S    
C51   O7    A    
C59   C60   A    
C13   C14   T    
C69   C70   A    
C51   C62   S    
O31   S7    D    
O10   Zn1   S    
H7    O20   S    
C77   C79   A    
C38   C39   S    
C49   O57   A    
C33   S5    S    
C46   O23   A    
C12   C88   A    
C48   O55   A    
C16   O14   A    
C24   C48   S    
C86   F13   S    
C77   H2    S    
C84   C85   A    
C45   C56   A    
C52   C64   A    
C91   C92   A    
C34   C45   A    
C86   C87   A    
C91   S11   S    
C89   H6    S    
O51   S3    D    
C30   F22   S    
C25   C26   A    
C40   C52   A    
C28   O15   A    
O4    Zn2   S    
C44   O12   A    
C12   C40   A    
O11   Zn2   S    
C14   C50   S    
H17   O50   S    
C37   C38   T    
O3    Zn5   S    
H11   O33   S    
C92   H3    S    
H13   O37   S    
H14   O40   S    
C31   C32   A    
C23   C34   A    
O16   Zn2   S    
O8    Zn5   S    
C93   F14   S    
C17   C18   A    
C64   C76   A    
O7    Zn6   S    
C69   C74   A    
O29   S6    D    
C18   C29   S    
C24   C25   A    
O27   S5    S    
C75   C77   A    
H16   O47   S    
C44   C66   S    
O20   S1    S    
C60   H21   S    
C80   S10   S    
O1    Zn1   S    
C35   S6    S    
C63   C74   S    
C71   F6    S    
O43   S10   S    
C75   F9    S    
C94   C95   A    
C54   S7    S    
C55   C57   A    
C28   O16   A    
O30   S6    S    
C22   C24   A    
H10   O30   S    
C69   H24   S    
C42   C43   T    
C57   C68   S    
C31   H20   S    
O25   S5    D    
C15   S1    S    
O9    Zn6   S    
C95   H4    S    
C15   C17   A    
C83   C90   A    
O35   S8    D    
C81   F10   S    
C5    F17   S    
C16   O13   A    
O48   S2    D    
C64   C78   S    
H15   O43   S    
O28   S6    D    
C65   F4    S    
H18   O53   S    
C80   C81   A    
C3    C5    A    
H8    O24   S    
C4    C67   S    
C75   C82   A    
O40   S9    S    
C6    C7    A    
C72   F7    S    
C30   C36   A    
C3    F12   S    
O14   Zn2   S    
C56   C67   A    
O47   S11   S    
O13   Zn1   S    
O49   S2    D    
O33   S7    S    
O34   Zn4   S    
C23   S3    S    
C32   C33   A    
O32   S7    D    
C19   C20   A    
C52   S8    S    
C58   C59   A    
O57   Zn5   S    
C71   C72   A    
O44   S11   D    
C50   O5    A    
C57   C58   A    
C5    C6    A    
O50   S2    S    
C55   F2    S    
C92   C93   A    
C33   C35   A    
O6    Zn5   S    
C83   F11   S    
C49   O2    A    
C2    C3    A    
O5    Zn6   S    
C23   C78   A    
C61   C62   A    
O56   Zn4   S    
C10   C11   T    
C25   C36   S    
C79   C80   A    
O2    Zn6   S    
C61   H23   S    
C15   C21   A    
C4    O11   A    
C20   C21   A    
C48   O56   A    
H9    O27   S    
C65   C66   A    
C44   O17   A    
C87   C90   A    
O36   S8    D    
C19   S4    S    
C82   F8    S    
O24   S4    S    
C1    O4    A    
C94   S2    S    
C32   F23   S    
O42   S10   D    
O21   S4    D    
C58   H22   S    
C17   F20   S    
C47   C87   S    
C27   C28   S    
C73   H25   S    
