data_mof_unit_51477.cif
_audit_creation_date              2013-03-05T16:18:31-0500
_audit_creation_method            fapswitch 2.2
_symmetry_space_group_name_H-M    P1
_symmetry_Int_Tables_number       1
_space_group_crystal_system       triclinic
_cell_length_a                    8.295895
_cell_length_b                    18.788243
_cell_length_c                    23.021413
_cell_angle_alpha                 100.810783
_cell_angle_beta                  90.343656
_cell_angle_gamma                 91.701059
_cell_volume                      3522.75738084

loop_
_atom_site_label
_atom_site_type_symbol
_atom_site_description
_atom_site_fract_x
_atom_site_fract_y
_atom_site_fract_z
_atom_type_partial_charge
P1    P     P_3+3 0.935930 0.665430 0.555670 0.494740
O1    O     O_2   0.110690 0.676100 0.539200 -0.377676
O2    O     O_3   0.863220 0.586720 0.534720 -0.405627
O3    O     O_3   0.368310 0.629070 0.432760 -0.417053
O4    O     O_2   0.221404 0.753636 0.469333 -0.347303
O5    O     O_3   0.949304 0.682870 0.633079 -0.540314
O6    O     O_3   0.362884 0.742729 0.367487 -0.488410
H1    H     H_    0.350154 0.635683 0.323934 0.138045
C1    C     C_3   0.438010 0.705609 0.266823 -0.922055
H2    H     H_    0.315788 0.716594 0.251400 0.278465
H3    H     H_    0.517283 0.754683 0.268659 0.265730
P2    P     P_3+3 0.382700 0.439650 0.365620 0.480412
P3    P     P_3+3 0.951188 0.584349 0.323649 0.501382
O7    O     O_2   0.210480 0.460990 0.358130 -0.360588
O8    O     O_3   0.959520 0.592090 0.401630 -0.308141
O9    O     O_2   0.082447 0.532230 0.296789 -0.400691
O10   O     O_3   0.376544 0.345102 0.344977 -0.535475
O11   O     O_3   0.018991 0.666177 0.304324 -0.536407
C2    C     C_3   0.888904 0.708564 0.293445 0.853361
H4    H     H_    0.775613 0.676498 0.281334 -0.085745
C3    C     C_3   0.930434 0.743617 0.240353 -0.887895
H5    H     H_    0.040526 0.779146 0.249885 0.264546
H6    H     H_    0.952770 0.700799 0.201158 0.239879
C4    C     C_3   0.822084 0.366758 0.341091 0.392677
H7    H     H_    0.695136 0.377753 0.352802 0.106409
H8    H     H_    0.901479 0.415744 0.354831 0.110971
C5    C     C_3   0.831553 0.343971 0.274283 -0.874223
H9    H     H_    0.754491 0.294544 0.259083 0.290116
H10   H     H_    0.788954 0.387818 0.252467 0.214789
H11   H     H_    0.958210 0.332494 0.261196 0.255372
Ba1   Ba    Ba6+2 0.157800 0.534120 0.474430 1.575211
C6    C     C_3   0.980268 0.619468 0.654334 0.183094
H12   H     H_    0.083529 0.591320 0.630959 0.072805
H13   H     H_    0.873570 0.582289 0.647974 0.139550
C7    C     C_3   0.021259 0.639347 0.720432 -0.047951
H14   H     H_    0.135011 0.671583 0.726766 0.193262
H15   H     H_    0.040972 0.589893 0.738325 0.066272
C8    C     C_3   0.292467 0.313941 0.386826 0.243574
H16   H     H_    0.181223 0.343344 0.399891 0.081444
H17   H     H_    0.369623 0.314981 0.426632 0.113519
C9    C     C_3   0.244399 0.235772 0.358873 -0.080129
H18   H     H_    0.193364 0.233664 0.313794 0.154901
H19   H     H_    0.149084 0.215094 0.385353 0.080722
P4    P     P_3+3 0.874370 0.334570 0.444280 0.451721
O12   O     O_2   0.699610 0.323860 0.460780 -0.351346
O13   O     O_3   0.947090 0.413280 0.465240 -0.412631
O14   O     O_3   0.442000 0.370930 0.567190 -0.382154
O15   O     O_3   0.872860 0.309710 0.366955 -0.569095
P5    P     P_3+3 0.862100 0.408993 0.674347 0.495552
O16   O     O_3   0.359410 0.538600 0.570730 -0.400315
O17   O     O_3   0.850780 0.407910 0.598320 -0.384122
O18   O     O_2   0.713498 0.449895 0.701862 -0.333632
O19   O     O_3   0.826814 0.321190 0.687497 -0.508401
Ba2   Ba    Ba6+2 0.652390 0.465870 0.525520 1.593237
P6    P     P_3+3 0.377227 0.723521 0.438838 0.488561
C10   C     C_3   0.428648 0.685366 0.327620 0.481488
H20   H     H_    0.552090 0.674064 0.341810 0.026168
H21   H     H_    0.488080 0.660212 0.234876 0.245506
O20   O     O_3   0.450900 0.461390 0.429220 -0.415956
C11   C     C_3   0.432097 0.699303 0.643613 0.226308
H22   H     H_    0.553391 0.694640 0.625091 0.015089
H23   H     H_    0.334306 0.687980 0.610128 0.066049
C12   C     C_3   0.422221 0.779146 0.675072 0.062580
H24   H     H_    0.394549 0.811511 0.640503 0.005522
P7    P     P_3+3 0.416553 0.559037 0.646586 0.491738
O21   O     O_2   0.599830 0.538970 0.641850 -0.344708
O22   O     O_3   0.416246 0.651210 0.682681 -0.510801
H25   H     H_    0.828627 0.776234 0.229656 0.244682
C13   C     C_3   0.878441 0.271179 0.638494 0.300869
H26   H     H_    0.797420 0.271556 0.599984 0.130458
H27   H     H_    0.004009 0.283921 0.626447 0.005318
C14   C     C_3   0.870630 0.195196 0.653154 -0.105675
H28   H     H_    0.882029 0.154631 0.611780 0.071087
H29   H     H_    0.751928 0.184881 0.672638 0.158384
P8    P     P_3+3 0.423609 0.276896 0.560601 0.431377
C15   C     C_3   0.395572 0.297571 0.673443 0.394454
H30   H     H_    0.263264 0.293404 0.665260 0.061435
O23   O     O_2   0.555788 0.243443 0.518201 -0.390921
O24   O     O_3   0.477565 0.253404 0.627898 -0.538728
H31   H     H_    0.438824 0.354920 0.678019 0.123301
H32   H     H_    0.360466 0.304783 0.767299 0.241190
C16   C     C_3   0.429718 0.272543 0.731232 -0.776528
H33   H     H_    0.560169 0.279759 0.742524 0.264276
H34   H     H_    0.393507 0.214458 0.727311 0.283113
C17   C     C_R   0.991026 0.953001 0.531931 -0.007283
C18   C     C_R   0.064424 0.906990 0.566998 -0.007808
C19   C     C_R   0.218673 0.044770 0.540359 -0.190956
C20   C     C_R   0.057052 0.022799 0.525681 0.070648
C21   C     C_R   0.274318 0.115808 0.542187 -0.054263
C22   C     C_R   0.174330 0.167262 0.525193 0.019384
C23   C     C_R   0.021293 0.143779 0.500161 0.000723
C24   C     C_R   0.962828 0.071018 0.499902 0.050080
C25   C     C_R   0.224627 0.240803 0.530404 0.175012
C26   C     C_R   0.123558 0.289775 0.510645 -0.545229
C27   C     C_R   0.979735 0.266813 0.480288 0.236936
C28   C     C_R   0.928641 0.192408 0.474160 -0.091646
C29   C     C_R   0.839583 0.928857 0.504343 0.054837
C30   C     C_R   0.776510 0.857151 0.505749 0.071286
C31   C     C_R   0.867564 0.808461 0.531982 -0.059033
C32   C     C_R   0.006890 0.835749 0.563987 -0.058194
H35   H     H_    0.163031 0.345978 0.515288 0.184648
H36   H     H_    0.397703 0.129291 0.556341 0.163290
H37   H     H_    0.068147 0.803435 0.590907 0.179287
C33   C     C_R   0.791100 0.164117 0.441376 -0.005350
C34   C     C_R   0.733921 0.093525 0.441012 -0.152731
C35   C     C_R   0.812393 0.046877 0.472885 0.005162
C36   C     C_R   0.748969 0.976152 0.476014 0.080090
C37   C     C_R   0.593788 0.952024 0.453638 -0.171168
C38   C     C_R   0.623224 0.833916 0.480193 0.010511
C39   C     C_R   0.533167 0.882828 0.455542 -0.124419
C40   C     C_R   0.562881 0.762691 0.480631 0.148979
C41   C     C_R   0.652673 0.715549 0.508298 -0.320095
C42   C     C_R   0.811342 0.735296 0.529056 0.272487
H38   H     H_    0.724702 0.196059 0.415642 0.208146
H39   H     H_    0.412741 0.868827 0.438147 0.182879
H40   H     H_    0.306949 0.007290 0.548977 0.118891
H41   H     H_    0.629019 0.076352 0.413866 0.189304
H42   H     H_    0.512856 0.986195 0.435518 0.151699
H43   H     H_    0.221137 0.326162 0.058612 0.177084
H44   H     H_    0.145155 0.314575 0.954912 0.183264
C43   C     C_R   0.646538 0.522257 0.334164 -0.351578
C44   C     C_R   0.501278 0.496961 0.929085 -0.075082
C45   C     C_R   0.471415 0.482611 0.867672 0.605791
O25   O     O_2   0.573238 0.501767 0.835342 -0.529444
N1    N     N_R   0.331808 0.444606 0.844059 -0.160291
C46   C     C_R   0.259764 0.398062 0.877970 0.540619
O26   O     O_2   0.163193 0.350509 0.855641 -0.565588
C47   C     C_R   0.302322 0.403091 0.938515 -0.054687
C48   C     C_R   0.416698 0.456246 0.964769 -0.016438
C49   C     C_R   0.614571 0.550733 0.955464 -0.058902
C50   C     C_R   0.637956 0.565526 0.016794 -0.107657
C51   C     C_R   0.558284 0.523070 0.052822 -0.047963
C52   C     C_R   0.452825 0.466247 0.026241 -0.014081
C53   C     C_R   0.232586 0.356721 0.973639 -0.092798
C54   C     C_R   0.275923 0.363564 0.033438 -0.107130
C55   C     C_R   0.385202 0.418910 0.060632 -0.054814
C56   C     C_R   0.431816 0.426771 0.120871 0.533118
N2    N     N_R   0.525340 0.486684 0.148647 -0.161664
C57   C     C_R   0.581949 0.536228 0.114722 0.523791
C58   C     C_2   0.116081 0.429498 0.764435 -0.193999
C59   C     C_3   0.051095 0.454163 0.710130 0.180294
C60   C     C_1   0.311437 0.504631 0.694439 0.116063
C61   C     C_2   0.344623 0.510674 0.752590 0.302903
C62   C     C_2   0.264982 0.456098 0.786292 -0.045902
C63   C     C_R   0.719676 0.527558 0.233462 -0.273533
C64   C     C_R   0.755225 0.543073 0.294133 0.171833
C65   C     C_R   0.501934 0.485330 0.314351 0.234283
C66   C     C_R   0.458577 0.476599 0.254110 -0.208679
C67   C     C_R   0.567065 0.497214 0.212089 0.123998
O27   O     O_2   0.391729 0.379186 0.147890 -0.582433
O28   O     O_2   0.651168 0.592630 0.138308 -0.609795
C68   C     C_2   0.187281 0.464366 0.669401 -0.544934
H45   H     H_    0.722107 0.608995 0.035739 0.179267
H46   H     H_    0.812296 0.539061 0.203404 0.186458
H47   H     H_    0.680779 0.583363 0.928965 0.198529
H48   H     H_    0.033974 0.398582 0.786830 0.239202
H49   H     H_    0.340827 0.452992 0.240648 0.202341
H50   H     H_    0.199846 0.427122 0.627710 0.182950
N3    N     N_R   0.894649 0.680091 0.754152 0.305890
O29   O     O_R   0.833823 0.657166 0.799472 -0.271754
O30   O     O_R   0.866138 0.745555 0.746917 -0.277599
N4    N     N_R   0.382600 0.189137 0.355476 0.266246
O31   O     O_R   0.504714 0.199132 0.322399 -0.349601
O32   O     O_R   0.378858 0.133986 0.382204 -0.422141
N5    N     N_3   0.576866 0.805932 0.703029 -0.110166
H51   H     H_    0.661551 0.807657 0.669758 0.103029
H52   H     H_    0.563900 0.859778 0.724170 0.165170
N6    N     N_R   0.294783 0.788768 0.719175 0.270105
O33   O     O_R   0.164853 0.822039 0.709483 -0.359509
O34   O     O_R   0.320741 0.774405 0.771550 -0.266932
N7    N     N_R   0.999629 0.186699 0.694440 0.265601
O35   O     O_R   0.109585 0.139183 0.678669 -0.415533
O36   O     O_R   0.001949 0.224456 0.747957 -0.314436
N8    N     N_R   0.861545 0.763009 0.346469 0.227681
O37   O     O_R   0.846122 0.742116 0.396813 -0.425527
O38   O     O_R   0.856620 0.831843 0.344858 -0.393081
N9    N     N_3   0.579045 0.647016 0.514549 -0.156330
H53   H     H_    0.621935 0.627607 0.550445 0.150713
H54   H     H_    0.461191 0.656409 0.528176 0.144556
N10   N     N_3   0.179372 0.932693 0.613606 -0.183467
H55   H     H_    0.296314 0.921884 0.598577 0.095274
H56   H     H_    0.164112 0.987181 0.632171 0.184503
N11   N     N_R   0.377017 0.582458 0.786174 0.252196
O39   O     O_R   0.514513 0.615616 0.781193 -0.225967
O40   O     O_R   0.280503 0.609674 0.828376 -0.369325
N12   N     N_3   0.689650 0.536959 0.395287 -0.152377
H57   H     H_    0.602307 0.566533 0.419673 0.187969
H58   H     H_    0.716937 0.490016 0.410620 0.154293

loop_
_geom_bond_atom_site_label_1
_geom_bond_atom_site_label_2
_geom_bond_distance
_ccdc_geom_bond_type
O5    C6    1.399891 S    
N7    O35   1.300621 A    
N5    H51   1.046761 S    
C21   H36   1.080614 S    
C5    H10   1.107316 S    
C9    H18   1.111815 S    
C27   C28   1.429648 A    
C4    C5    1.520334 S    
O6    P6    1.750746 S    
O7    Ba1   2.813707 S    
C19   C20   1.411270 A    
O19   C13   1.403931 S    
C47   C48   1.404788 A    
H1    C10   1.111802 S    
H32   C16   1.106385 S    
C54   C55   1.410007 A    
C17   C18   1.434211 A    
N10   H55   1.044740 S    
C51   C57   1.411365 A    
N7    O36   1.300983 A    
C25   C26   1.398123 A    
P3    O11   1.756757 S    
C11   C12   1.543382 S    
O6    C10   1.404054 S    
P2    C65   1.857868 S    
C2    C3    1.529662 S    
C4    H8    1.110505 S    
C1    H21   1.109205 S    
N11   O40   1.301439 A    
C63   C64   1.400010 A    
C8    H16   1.103906 S    
O2    Ba2   2.799779 S    
C45   N1    1.394450 Am   
C35   C36   1.429191 A    
N1    C62   1.492808 S    
Ba1   O20   2.925221 S    
C61   C62   1.534376 S    
P1    Ba1   3.398856 S    
C10   H20   1.111507 S    
C11   H23   1.103800 S    
P1    O1    1.517794 D    
C60   C68   1.322291 D    
C13   H27   1.110373 S    
N8    O37   1.297401 A    
C41   C42   1.412656 A    
C38   C40   1.416629 A    
C43   N12   1.423567 S    
P2    O20   1.543605 S    
C65   C66   1.408813 A    
C26   H35   1.081847 S    
P4    O13   1.568296 S    
C51   C52   1.404528 A    
P7    O22   1.774809 S    
Ba1   O13   2.799053 S    
P5    C59   1.870932 S    
P2    O10   1.749747 S    
C52   C55   1.404411 A    
C36   C37   1.413500 A    
C15   O24   1.402248 S    
C49   H47   1.083499 S    
C18   C32   1.396791 A    
C1    H2    1.110104 S    
C44   C48   1.401123 A    
C43   C65   1.397788 A    
O3    Ba1   2.762181 S    
C66   H49   1.079851 S    
P6    C40   1.867813 S    
N6    O34   1.302080 A    
C23   C28   1.423090 A    
N5    H52   1.046088 S    
C30   C38   1.419687 A    
C3    H5    1.110995 S    
C5    H11   1.110938 S    
C9    H19   1.106425 S    
C34   H41   1.073864 S    
C26   C27   1.394436 A    
P1    C42   1.881854 S    
P3    C64   1.849378 S    
C18   N10   1.435211 S    
C33   C34   1.393758 A    
P8    O23   1.540731 D    
N10   H56   1.044475 S    
C29   C30   1.436867 A    
N4    O32   1.300291 A    
Ba2   O20   2.755585 S    
O1    Ba1   2.840551 S    
N2    C67   1.474293 S    
C58   C59   1.514057 S    
C68   H50   1.084117 S    
P1    O5    1.752665 S    
C4    O15   1.394276 S    
C14   N7    1.459102 S    
C20   C24   1.422028 A    
C45   O25   1.219434 D    
C4    H7    1.104495 S    
C11   O22   1.393507 S    
C8    C9    1.528971 S    
C14   H29   1.111327 S    
C15   C16   1.519663 S    
C23   C24   1.435848 A    
O11   C2    1.408611 S    
P5    O17   1.748472 S    
C32   H37   1.080099 S    
H43   C54   1.083163 S    
O3    P6    1.753023 S    
C11   H22   1.094718 S    
P1    O2    1.568238 S    
C7    H14   1.099958 S    
C61   N11   1.440057 S    
C13   C14   1.526965 S    
N11   O39   1.299437 A    
C6    C7    1.530893 S    
C47   C53   1.409788 A    
N3    O29   1.300265 A    
C50   H45   1.083273 S    
P5    O18   1.547437 D    
O13   Ba2   2.923845 S    
N3    O30   1.300050 A    
C1    C10   1.519490 S    
O16   Ba2   2.924378 S    
C66   C67   1.423435 A    
O2    Ba1   2.923149 S    
C1    H3    1.110592 S    
C37   H42   1.076895 S    
C19   H40   1.073687 S    
C58   H48   1.077137 S    
O14   Ba2   2.761435 S    
C33   H38   1.078720 S    
C63   H46   1.080990 S    
C24   C35   1.414677 A    
N6    O33   1.300695 A    
P2    O7    1.512850 D    
O12   Ba2   2.840937 S    
C16   H33   1.109877 S    
C16   H34   1.110231 S    
P3    O8    1.774474 S    
C3    H25   1.111005 S    
N1    C46   1.400731 Am   
C48   C52   1.421149 A    
C56   O27   1.220766 D    
C15   H31   1.111239 S    
Ba1   O16   2.756182 S    
N12   H58   1.039907 S    
C50   C51   1.408733 A    
C21   C22   1.400457 A    
P4    O12   1.518103 D    
P8    C25   1.846878 S    
C22   C25   1.414420 A    
N4    O31   1.301153 A    
C56   N2    1.396471 Am   
C17   C20   1.438577 A    
C28   C33   1.399028 A    
C12   N6    1.461724 S    
C46   C47   1.420936 A    
C40   C41   1.410733 A    
C7    H15   1.100696 S    
C15   H30   1.110522 S    
O4    P6    1.545758 D    
C58   C62   1.374930 D    
C14   H28   1.109082 S    
C31   C42   1.427777 A    
C37   C39   1.388468 A    
O8    Ba1   2.731096 S    
C53   C54   1.402095 A    
Ba2   O21   2.813946 S    
C34   C35   1.414120 A    
C31   C32   1.398060 A    
O17   Ba2   2.731551 S    
C6    H12   1.108502 S    
C2    H4    1.106467 S    
C3    H6    1.110986 S    
C49   C50   1.398107 A    
C44   C45   1.407749 A    
C2    N8    1.461726 S    
O14   P8    1.746666 S    
P2    Ba1   3.389837 S    
P4    C27   1.877524 S    
C38   C39   1.398580 A    
C8    H17   1.111475 S    
P7    C60   1.843896 S    
C22   C23   1.414633 A    
C46   O26   1.218422 D    
P5    O19   1.748843 S    
C57   O28   1.221393 D    
C43   C64   1.392658 A    
N9    H54   1.038569 S    
H44   C53   1.083088 S    
O10   C8    1.397438 S    
P7    O21   1.576834 D    
Ba1   Ba2   4.547862 S    
C13   H26   1.110536 S    
O16   P7    1.774687 S    
N8    O38   1.302561 A    
C7    N3    1.458236 S    
C17   C29   1.426916 A    
N2    C57   1.395763 Am   
N9    H53   1.029397 S    
C12   H24   1.115097 S    
C29   C36   1.425187 A    
P4    Ba2   3.399252 S    
C12   N5    1.464118 S    
C30   C31   1.419497 A    
P3    O9    1.539868 D    
C5    H9    1.110734 S    
C19   C21   1.392245 A    
C60   C61   1.348164 D    
C55   C56   1.416992 A    
N12   H57   1.029899 S    
C9    N4    1.457155 S    
P8    O24   1.747955 S    
C39   H39   1.080620 S    
C44   C49   1.406920 A    
C63   C67   1.419309 A    
P4    O15   1.753464 S    
C59   C68   1.503197 S    
C6    H13   1.102843 S    
C41   N9    1.440703 S    
