data_mof_unit_50360.cif
_audit_creation_date              2013-03-05T15:45:11-0500
_audit_creation_method            fapswitch 2.2
_symmetry_space_group_name_H-M    P1
_symmetry_Int_Tables_number       1
_space_group_crystal_system       triclinic
_cell_length_a                    11.556404
_cell_length_b                    11.552264
_cell_length_c                    19.580353
_cell_angle_alpha                 90.557291
_cell_angle_beta                  90.025939
_cell_angle_gamma                 59.959399
_cell_volume                      2262.7519533

loop_
_atom_site_label
_atom_site_type_symbol
_atom_site_description
_atom_site_fract_x
_atom_site_fract_y
_atom_site_fract_z
_atom_type_partial_charge
O1    O     O_R   0.267740 0.231990 0.575440 -0.504208
O2    O     O_R   0.527280 0.186680 0.570530 -0.495110
C1    C     C_R   0.640270 0.117264 0.599329 0.544530
O3    O     O_R   0.728090 0.003480 0.576380 -0.507796
O4    O     O_R   0.682970 0.789220 0.570490 -0.497335
C2    C     C_R   0.612220 0.746452 0.598722 0.543699
O5    O     O_R   0.499290 0.771920 0.575530 -0.505149
O6    O     O_R   0.285330 0.030900 0.569730 -0.492648
C3    C     C_R   0.241246 0.145261 0.598251 0.547617
O7    O     O_R   0.270980 0.227040 0.423900 -0.526891
O8    O     O_R   0.530280 0.182090 0.430050 -0.512355
C4    C     C_R   0.643462 0.109576 0.401131 0.562201
O9    O     O_R   0.731330 0.998530 0.424830 -0.492761
O10   O     O_R   0.685970 0.784630 0.430010 -0.482940
C5    C     C_R   0.616801 0.737940 0.403161 0.551310
O11   O     O_R   0.502530 0.766960 0.423990 -0.535072
O12   O     O_R   0.288330 0.026310 0.429250 -0.506672
C6    C     C_R   0.251792 0.137615 0.399277 0.550474
Cr1   Cr    Cr6+3 0.404720 0.198220 0.499960 1.024510
Cr2   Cr    Cr6+3 0.698290 0.897110 0.500380 1.032697
Cr3   Cr    Cr6+3 0.396970 0.904720 0.499610 1.022171
O13   O     O_3   0.499990 0.000020 0.499980 -0.256159
C7    C     C_1   0.670561 0.646171 0.860028 0.005431
C8    C     C_1   0.654545 0.683997 0.728436 -0.030643
C9    C     C_1   0.663461 0.666578 0.799651 -0.030499
C10   C     C_1   0.640925 0.704429 0.668064 0.004602
C11   C     C_1   0.126434 0.198991 0.859216 0.006204
C12   C     C_1   0.171608 0.170445 0.727718 -0.030648
C13   C     C_1   0.150021 0.182475 0.798903 -0.029983
C14   C     C_1   0.195524 0.161011 0.667436 0.003073
C15   C     C_1   0.678923 0.191353 0.860697 0.004483
C16   C     C_1   0.658462 0.167215 0.729050 -0.030521
C17   C     C_1   0.665890 0.180914 0.800313 -0.030112
C18   C     C_1   0.652709 0.149674 0.668702 0.004171
C19   C     C_R   0.527855 0.761605 0.290263 -0.115975
H1    H     H_    0.429388 0.831434 0.310097 0.149104
C20   C     C_R   0.541089 0.736493 0.221303 0.241322
C21   C     C_R   0.669610 0.656774 0.194450 0.025024
C22   C     C_R   0.782112 0.594166 0.237380 -0.202957
H2    H     H_    0.881021 0.526208 0.217225 0.160486
C23   C     C_R   0.766196 0.612404 0.307352 -0.178516
H3    H     H_    0.851823 0.562997 0.340726 0.122387
C24   C     C_R   0.639129 0.697827 0.333229 0.000592
C25   C     C_R   0.230643 0.249234 0.290697 -0.121736
H4    H     H_    0.269002 0.307191 0.315335 0.159076
C26   C     C_R   0.205984 0.264632 0.221240 0.083335
C27   C     C_R   0.156584 0.188535 0.189174 0.054344
C28   C     C_R   0.149436 0.086220 0.225233 0.270324
C29   C     C_R   0.179510 0.070369 0.294953 -0.149539
H5    H     H_    0.178569 0.991064 0.323375 0.115769
C30   C     C_R   0.212669 0.156121 0.328105 -0.052532
C31   C     C_R   0.707939 0.032879 0.281351 0.116108
C32   C     C_R   0.707487 0.061885 0.212796 -0.139796
H6    H     H_    0.747489 0.981109 0.175368 0.118676
C33   C     C_R   0.666798 0.191825 0.193040 0.002266
C34   C     C_R   0.614284 0.296595 0.241240 -0.156338
H7    H     H_    0.585106 0.397583 0.226575 0.126414
C35   C     C_R   0.608112 0.269751 0.309754 -0.185079
H8    H     H_    0.567294 0.351226 0.346687 0.119094
C36   C     C_R   0.658791 0.137572 0.330524 0.050527
O14   O     O_R   0.821500 0.119550 0.952820 -0.505814
O15   O     O_R   0.037130 0.162750 0.957360 -0.493680
C37   C     C_R   0.081481 0.231438 0.928509 0.544529
O16   O     O_R   0.056440 0.344950 0.951330 -0.507113
O17   O     O_R   0.797900 0.560570 0.957460 -0.494649
C38   C     C_R   0.684037 0.604206 0.929381 0.549593
O18   O     O_R   0.596140 0.579600 0.952720 -0.500640
O19   O     O_R   0.639070 0.321380 0.958660 -0.495848
C39   C     C_R   0.708565 0.206936 0.930031 0.543561
O20   O     O_R   0.821240 0.124490 0.104360 -0.514726
O21   O     O_R   0.036900 0.167320 0.097830 -0.444913
C40   C     C_R   0.086613 0.233940 0.124051 0.562419
O22   O     O_R   0.056190 0.349890 0.102870 -0.505139
O23   O     O_R   0.797670 0.565150 0.097930 -0.518436
C41   C     C_R   0.683931 0.610264 0.125602 0.578719
O24   O     O_R   0.595880 0.584540 0.104260 -0.488609
O25   O     O_R   0.638830 0.325960 0.099140 -0.511930
C42   C     C_R   0.706952 0.212302 0.126470 0.538776
Cr4   Cr    Cr6+3 0.926180 0.152240 0.028110 1.059627
Cr5   Cr    Cr6+3 0.921340 0.452070 0.027460 1.032341
Cr6   Cr    Cr6+3 0.626260 0.447120 0.028700 1.030879
O26   O     O_3   0.824590 0.350480 0.028090 -0.269664
O27   O     O_3   0.429144 0.789206 0.179961 -0.526695
C43   C     C_3   0.357138 0.722533 0.193628 -0.056191
H9    H     H_    0.307210 0.752320 0.244327 0.100659
H10   H     H_    0.421590 0.611955 0.191296 0.101998
H11   H     H_    0.279329 0.749900 0.154027 0.173696
N1    N     N_2   0.232361 0.353596 0.182605 -0.483401
H12   H     H_    0.300706 0.309395 0.143377 0.262566
C44   C     C_3   0.229367 0.467900 0.215482 -0.309663
H13   H     H_    0.223576 0.538761 0.175922 0.131939
H14   H     H_    0.321825 0.435763 0.245493 0.133992
H15   H     H_    0.139901 0.520898 0.249057 0.140969
O28   O     O_3   0.121813 0.998239 0.189775 -0.536648
C45   C     C_3   0.028088 0.976575 0.224758 -0.112231
H16   H     H_    0.986530 0.933656 0.187986 0.157144
H17   H     H_    0.944031 0.070960 0.246235 0.131180
H18   H     H_    0.077710 0.901491 0.265273 0.071758
N2    N     N_2   0.752778 0.898653 0.299949 -0.472346
H19   H     H_    0.720342 0.852292 0.266240 0.254670
C46   C     C_3   0.895204 0.818966 0.311713 -0.278297
H20   H     H_    0.949542 0.784187 0.262275 0.094888
H21   H     H_    0.916802 0.730123 0.342158 0.154927
H22   H     H_    0.932268 0.876463 0.341164 0.153755

loop_
_geom_bond_atom_site_label_1
_geom_bond_atom_site_label_2
_geom_bond_distance
_ccdc_geom_bond_type
C33   C34   1.402432 A    
O11   Cr3   2.055533 S    
C11   C13   1.203802 T    
O16   Cr5   2.054939 S    
C23   H3    1.083132 S    
C45   H16   1.107272 S    
C43   H11   1.108712 S    
O21   Cr4   1.936003 S    
Cr6   O26   1.984320 S    
C45   H18   1.107017 S    
C22   C23   1.382443 A    
O4    Cr2   1.929701 S    
C2    C10   1.428423 S    
O25   C42   1.268252 A    
C31   C32   1.386065 A    
C4    O9    1.264520 A    
O8    Cr1   1.933932 S    
C20   C21   1.397251 A    
C28   O28   1.388476 S    
O27   C43   1.415343 S    
O19   Cr6   1.938762 S    
C7    C38   1.428406 S    
C12   C13   1.409307 S    
C19   C20   1.370741 A    
C43   H10   1.111282 S    
O4    C2    1.276060 A    
O20   C42   1.269408 A    
C35   C36   1.398750 A    
C5    O11   1.255862 A    
C34   H7    1.081559 S    
C29   H5    1.081243 S    
C31   C36   1.415068 A    
N2    H19   1.028058 S    
O19   C39   1.276724 A    
C29   C30   1.384516 A    
C15   C17   1.204328 T    
C19   C24   1.402387 A    
C38   O18   1.270230 A    
O2    Cr1   1.935437 S    
C46   H21   1.107386 S    
O17   Cr5   1.930302 S    
O23   Cr5   1.936601 S    
Cr3   O13   1.985356 S    
C23   C24   1.388149 A    
C25   C26   1.384199 A    
C6    C30   1.449351 S    
O6    Cr3   1.937550 S    
C26   N1    1.431921 S    
C21   C41   1.424939 S    
C32   C33   1.388692 A    
O7    C6    1.252363 A    
O1    Cr1   2.053027 S    
O23   C41   1.265762 A    
C46   H20   1.110470 S    
O10   Cr2   1.938416 S    
O15   Cr4   1.933538 S    
Cr1   O13   1.982611 S    
O1    C3    1.270055 A    
C8    C9    1.407150 S    
Cr5   O26   1.985362 S    
C22   H2    1.083750 S    
C33   C42   1.444563 S    
O6    C3    1.276248 A    
C1    C18   1.431706 S    
C35   H8    1.083465 S    
C32   H6    1.084736 S    
O12   Cr3   1.928122 S    
C19   H1    1.082432 S    
O3    Cr2   2.056868 S    
C41   O24   1.264242 A    
O15   C37   1.275790 A    
C44   H14   1.109630 S    
C27   C28   1.420017 A    
O25   Cr6   1.927768 S    
O7    Cr1   2.051804 S    
O12   C6    1.283321 A    
C43   H9    1.109908 S    
C11   C37   1.430751 S    
C3    C14   1.430741 S    
C25   C30   1.405666 A    
C28   C29   1.399513 A    
N2    C46   1.447872 S    
N1    C44   1.448097 S    
O18   Cr6   2.046255 S    
C46   H22   1.111021 S    
Cr2   O13   1.984295 S    
C1    O3    1.270026 A    
C25   H4    1.080842 S    
C44   H15   1.111307 S    
O14   C39   1.269112 A    
C26   C27   1.408665 A    
O9    Cr2   2.046694 S    
O20   Cr4   2.050058 S    
C8    C10   1.202456 T    
C40   O22   1.276323 A    
O24   Cr6   2.056478 S    
Cr4   O26   1.982686 S    
O8    C4    1.275765 A    
C45   H17   1.113694 S    
C2    O5    1.270274 A    
C31   N2    1.418395 S    
C16   C17   1.410194 S    
C12   C14   1.203799 T    
O2    C1    1.275060 A    
C5    C24   1.422850 S    
O21   C40   1.273069 A    
O5    Cr3   2.046481 S    
C44   H13   1.109980 S    
C21   C22   1.410443 A    
O14   Cr4   2.055309 S    
O22   Cr5   2.047477 S    
C34   C35   1.389707 A    
C7    C9    1.202453 T    
O28   C45   1.407268 S    
C27   C40   1.463674 S    
C37   O16   1.269546 A    
C4    C36   1.453832 S    
C15   C39   1.431563 S    
N1    H12   1.031331 S    
O17   C38   1.276103 A    
O10   C5    1.277510 A    
C20   O27   1.385500 S    
C16   C18   1.204366 T    
