data_mof_unit_35762.cif
_audit_creation_date              2012-12-10T18:54:19-0500
_audit_creation_method            fapswitch 2.2
_symmetry_space_group_name_H-M    P1
_symmetry_Int_Tables_number       1
_space_group_crystal_system       triclinic
_cell_length_a                    10.685974
_cell_length_b                    9.929315
_cell_length_c                    23.493777
_cell_angle_alpha                 89.729279
_cell_angle_beta                  92.520555
_cell_angle_gamma                 89.847321
_cell_volume                      2490.34330798

loop_
_atom_site_label
_atom_site_type_symbol
_atom_type_description
_atom_site_fract_x
_atom_site_fract_y
_atom_site_fract_z
_atom_type_partial_charge
C1    C     C_R   0.260714 0.500010 0.499751 0.903218
C2    C     C_R   0.739294 0.500018 0.500351 0.917266
C3    C     C_R   0.515824 0.614773 0.234027 -0.071991
C4    C     C_R   0.467569 0.608457 0.764272 -0.076000
C5    C     C_R   0.519739 0.621635 0.294096 -0.093912
C6    C     C_R   0.453986 0.610741 0.704204 -0.111987
C7    C     C_R   0.504657 0.501532 0.326444 -0.154626
C8    C     C_R   0.499827 0.500373 0.672977 -0.142409
C9    C     C_R   0.489117 0.377801 0.298395 -0.286220
C10   C     C_R   0.555296 0.389924 0.701486 -0.249257
C11   C     C_R   0.483676 0.370660 0.239051 0.549560
C12   C     C_R   0.569512 0.387241 0.760649 0.552255
C13   C     C_R   0.498823 0.488407 0.207479 0.186396
C14   C     C_R   0.522881 0.494524 0.791761 0.175721
C15   C     C_R   0.070567 0.457236 0.549657 -0.112264
C16   C     C_R   0.929429 0.542638 0.450456 -0.090888
C17   C     C_R   0.940123 0.460415 0.550311 -0.013103
C18   C     C_R   0.059890 0.540133 0.449869 -0.003548
C19   C     C_R   0.872129 0.500766 0.500375 -0.145193
C20   C     C_R   0.127890 0.499356 0.499757 -0.135341
C21   C     C_R   0.576424 0.070594 0.538138 0.021851
C22   C     C_R   0.416276 0.928486 0.465654 0.016102
C23   C     C_R   0.422542 0.072353 0.462514 0.016804
C24   C     C_R   0.580819 0.926442 0.535651 -0.014849
C25   C     C_R   0.502044 0.500724 0.389241 0.930506
C26   C     C_R   0.497879 0.500077 0.610519 0.933133
C27   C     C_R   0.631128 0.497870 0.883743 0.659396
C28   C     C_R   0.393878 0.476155 0.115441 0.649693
C29   C     C_R   0.410830 0.459228 0.876677 0.576611
C30   C     C_R   0.617208 0.473519 0.123351 0.594779
C31   C     C_R   0.402007 0.469242 0.936091 -0.122961
C32   C     C_R   0.625397 0.478940 0.063609 -0.122632
C33   C     C_R   0.514979 0.480902 0.969780 -0.057327
C34   C     C_R   0.512008 0.479694 0.029763 -0.055782
C35   C     C_R   0.630941 0.493609 0.943500 -0.150444
C36   C     C_R   0.395323 0.479150 0.055842 -0.157394
C37   C     C_R   0.285433 0.470567 0.962773 -0.177478
C38   C     C_R   0.741427 0.485479 0.036590 -0.186286
C39   C     C_R   0.283209 0.485748 0.022010 0.541145
C40   C     C_R   0.742904 0.503509 0.977345 0.531839
H1    H     H_    0.482602 0.285603 0.322693 0.198466
H2    H     H_    0.587928 0.305060 0.677640 0.201347
N1    N     N_R   0.522180 0.482117 0.852338 -0.310911
N2    N     N_R   0.503352 0.477515 0.147110 -0.309873
N3    N     N_R   0.500000 0.857200 0.500000 -0.194066
N4    N     N_R   0.500000 0.142800 0.500000 -0.182944
O1    O     O_R   0.316770 0.614620 0.500000 -0.649825
O2    O     O_R   0.683230 0.385380 0.500000 -0.659471
O3    O     O_R   0.683230 0.614620 0.500000 -0.630719
O4    O     O_R   0.316770 0.385380 0.500000 -0.629964
O5    O     O_R   0.499970 0.614690 0.416160 -0.670280
O6    O     O_R   0.500030 0.385310 0.583840 -0.636462
O7    O     O_R   0.500030 0.614690 0.583840 -0.585935
O8    O     O_R   0.499970 0.385310 0.416160 -0.638440
O9    O     O_2   0.738532 0.516767 0.856703 -0.507654
O10   O     O_2   0.284607 0.471470 0.142112 -0.488749
O11   O     O_2   0.310222 0.427194 0.842805 -0.574950
O12   O     O_2   0.720723 0.465436 0.158136 -0.575031
Zn1   Zn    Zn3+2 0.500000 0.653120 0.500000 0.970902
Zn2   Zn    Zn3+2 0.500000 0.346880 0.500000 0.955350
C41   C     C_2   0.163509 0.466170 0.930280 0.614894
H3    H     H_    0.144852 0.533050 0.894243 0.069301
O13   O     O_2   0.082818 0.386915 0.943824 -0.433298
C42   C     C_2   0.863696 0.475547 0.068380 0.627090
H4    H     H_    0.888537 0.546531 0.101908 0.075679
O14   O     O_2   0.937710 0.386950 0.056931 -0.429780
O15   O     O_3   0.170337 0.512604 0.046389 -0.514551
C43   C     C_3   0.155916 0.653871 0.049316 -0.182479
H5    H     H_    0.149340 0.700034 0.006043 0.109034
H6    H     H_    0.233484 0.701261 0.075236 0.190007
H7    H     H_    0.067747 0.676885 0.070419 0.173015
O16   O     O_3   0.855830 0.528328 0.952673 -0.520044
C44   C     C_3   0.876250 0.668793 0.952756 -0.181525
H8    H     H_    0.886533 0.708487 0.996897 0.104759
H9    H     H_    0.799722 0.723661 0.928669 0.185680
H10   H     H_    0.964583 0.689769 0.931348 0.176868
C45   C     C_2   0.536290 0.738401 0.199213 0.495102
H11   H     H_    0.592387 0.820594 0.216588 0.109734
O17   O     O_2   0.489211 0.751277 0.151200 -0.593300
C46   C     C_2   0.418264 0.721102 0.798601 0.520891
H12   H     H_    0.335879 0.776944 0.783546 0.098546
O18   O     O_2   0.470167 0.754043 0.843723 -0.570227
C47   C     C_2   0.542365 0.753547 0.322268 0.392037
H13   H     H_    0.616898 0.763997 0.354803 0.124550
O19   O     O_2   0.476505 0.850901 0.309849 -0.571661
C48   C     C_2   0.388339 0.724829 0.674200 0.486822
H14   H     H_    0.321752 0.705186 0.639034 0.048940
O20   O     O_2   0.411179 0.841457 0.687118 -0.499966
O21   O     O_3   0.476546 0.248937 0.210095 -0.615952
C49   C     C_3   0.378470 0.168139 0.229419 -0.132832
H15   H     H_    0.293618 0.227821 0.239334 0.182808
H16   H     H_    0.411920 0.107409 0.266829 0.229665
H17   H     H_    0.350292 0.096503 0.195117 0.205468
O22   O     O_3   0.617263 0.274998 0.789626 -0.591897
C50   C     C_3   0.740080 0.247135 0.773060 -0.133146
H18   H     H_    0.797654 0.339935 0.769209 0.178507
H19   H     H_    0.738093 0.189824 0.732618 0.198515
H20   H     H_    0.787139 0.182671 0.806269 0.209283
C51   C     C_2   0.149224 0.419128 0.601371 0.451833
H21   H     H_    0.234549 0.474008 0.611862 0.013161
O23   O     O_2   0.122894 0.323108 0.631104 -0.553201
C52   C     C_2   0.850740 0.579384 0.398595 0.398920
H22   H     H_    0.766869 0.522216 0.387705 0.043641
O24   O     O_2   0.875392 0.676557 0.369189 -0.578418
C53   C     C_2   0.875116 0.431450 0.603860 0.371006
H23   H     H_    0.898319 0.342721 0.629176 0.136963
O25   O     O_2   0.795308 0.508270 0.620466 -0.568288
C54   C     C_2   0.124837 0.570529 0.396422 0.427098
H24   H     H_    0.099859 0.658521 0.370974 0.166480
O26   O     O_2   0.206382 0.495701 0.379957 -0.603555
C55   C     C_2   0.654068 0.142532 0.582248 0.381338
H25   H     H_    0.683175 0.244188 0.576178 0.128853
O27   O     O_2   0.684673 0.089373 0.627689 -0.566205
C56   C     C_2   0.313929 0.855846 0.434609 0.564316
H26   H     H_    0.331674 0.764762 0.411688 0.112691
O28   O     O_2   0.206302 0.897351 0.435152 -0.567188
C57   C     C_2   0.348929 0.145163 0.416932 0.493104
H27   H     H_    0.313014 0.244635 0.423154 0.155006
O29   O     O_2   0.328965 0.094193 0.370251 -0.574215
C58   C     C_2   0.676644 0.850069 0.569372 0.647438
H28   H     H_    0.766207 0.828548 0.551355 0.033093
O30   O     O_2   0.657657 0.814239 0.617975 -0.455580

loop_
_geom_bond_atom_site_label_1
_geom_bond_atom_site_label_2
_ccdc_geom_bond_type
C38   C40   A    
C10   H2    S    
C52   H22   S    
C8    C26   S    
C44   H8    S    
C50   H18   S    
C12   O22   S    
C56   H26   S    
C28   O10   S    
C50   H20   S    
O8    Zn2   S    
C45   H11   S    
C53   O25   D    
C24   N3    A    
C4    C46   S    
C17   C53   S    
C57   O29   D    
C5    C47   S    
C48   O20   D    
C54   H24   S    
C15   C17   A    
C41   O13   D    
O6    Zn2   S    
C33   C35   A    
C47   H13   S    
C43   H5    S    
C31   C33   A    
C32   C38   A    
C1    O4    A    
C18   C20   A    
C3    C13   A    
O16   C44   S    
C23   N4    A    
C29   N1    A    
C44   H9    S    
C30   N2    A    
C41   H3    S    
C21   C55   S    
C58   O30   D    
O2    Zn2   S    
C38   C42   S    
C45   O17   D    
O7    Zn1   S    
C15   C20   A    
C24   C58   S    
O15   C43   S    
C25   O8    A    
C46   O18   D    
C15   C51   S    
C5    C7    A    
C48   H14   S    
C1    O1    A    
C6    C8    A    
C2    O2    A    
C28   N2    A    
C31   C37   A    
C42   O14   D    
C25   O5    A    
C2    O3    A    
C26   O6    A    
C11   O21   S    
C49   H16   S    
C51   H21   S    
C29   C31   A    
C33   C34   A    
C55   O27   D    
C16   C18   A    
C52   O24   D    
C9    C11   A    
C10   C12   A    
C4    C6    A    
C51   O23   D    
C12   C14   A    
C44   H10   S    
O5    Zn1   S    
C3    C45   S    
C26   O7    A    
C6    C48   S    
C58   H28   S    
C49   H17   S    
C21   N4    A    
C16   C52   S    
C7    C9    A    
N3    Zn1   S    
C1    C20   S    
C37   C41   S    
C40   O16   S    
C55   H25   S    
N4    Zn2   S    
C2    C19   S    
C39   O15   S    
C36   C39   A    
C29   O11   S    
C46   H12   S    
C3    C5    A    
O3    Zn1   S    
C23   C57   S    
C56   O28   D    
C50   H19   S    
C53   H23   S    
C27   O9    S    
C9    H1    S    
C7    C25   S    
C47   O19   D    
C27   C35   A    
C42   H4    S    
C35   C40   A    
O4    Zn2   S    
C37   C39   A    
C57   H27   S    
C30   C32   A    
C11   C13   A    
C49   H15   S    
C43   H7    S    
C30   O12   S    
C17   C19   A    
C54   O26   D    
C34   C36   A    
C4    C14   A    
O22   C50   S    
C18   C54   S    
O1    Zn1   S    
C27   N1    A    
C22   C56   S    
C22   N3    A    
C28   C36   A    
C8    C10   A    
C21   C24   A    
C43   H6    S    
C22   C23   A    
O21   C49   S    
C13   N2    S    
C32   C34   A    
C14   N1    S    
C16   C19   A    
