data_mof_unit_37624.cif
_audit_creation_date              2012-12-11T14:43:36-0500
_audit_creation_method            fapswitch 2.2
_symmetry_space_group_name_H-M    P1
_symmetry_Int_Tables_number       1
_space_group_crystal_system       triclinic
_cell_length_a                    20.875555
_cell_length_b                    7.09711
_cell_length_c                    16.556571
_cell_angle_alpha                 90.000538
_cell_angle_beta                  93.191264
_cell_angle_gamma                 89.999301
_cell_volume                      2449.15326696

loop_
_atom_site_label
_atom_site_type_symbol
_atom_type_description
_atom_site_fract_x
_atom_site_fract_y
_atom_site_fract_z
_atom_type_partial_charge
O1    O     O_R   0.564840 0.505290 0.579830 -0.547763
O2    O     O_R   0.435160 0.005290 0.420170 -0.547766
O3    O     O_R   0.556720 0.179930 0.409350 -0.539276
O4    O     O_R   0.443280 0.679930 0.590650 -0.539280
C1    C     C_R   0.570702 0.345179 0.382164 0.702681
C2    C     C_R   0.429296 0.845183 0.617834 0.702674
O5    O     O_R   0.572280 0.175810 0.578530 -0.517930
O6    O     O_R   0.427720 0.675810 0.421470 -0.517927
O7    O     O_R   0.450830 0.001920 0.590540 -0.542091
O8    O     O_R   0.549170 0.501920 0.409460 -0.542088
C3    C     C_R   0.590218 0.345331 0.604552 0.737124
C4    C     C_R   0.409782 0.845331 0.395448 0.737131
O9    O     O_3   0.460130 0.338030 0.503750 -0.372639
O10   O     O_3   0.539870 0.838030 0.496250 -0.372637
V1    V     V_3+5 0.507400 0.064560 0.499310 1.480425
V2    V     V_3+5 0.492600 0.564560 0.500690 1.480423
C5    C     C_R   0.138723 0.904130 0.174353 -0.055886
C6    C     C_R   0.861277 0.404129 0.825648 -0.055872
C7    C     C_R   0.355579 0.864447 0.333716 -0.087003
C8    C     C_R   0.644421 0.364442 0.666285 -0.086989
C9    C     C_R   0.309733 0.037891 0.217100 -0.137619
C10   C     C_R   0.690262 0.537867 0.782910 -0.137721
C11   C     C_R   0.361776 0.993333 0.270193 -0.218480
C12   C     C_R   0.638221 0.493316 0.729814 -0.218515
C13   C     C_R   0.295469 0.779724 0.344198 0.301809
C14   C     C_R   0.704532 0.279725 0.655801 0.301811
C15   C     C_R   0.242325 0.821582 0.288611 0.028812
C16   C     C_R   0.757676 0.321581 0.711390 0.028824
C17   C     C_R   0.249846 0.953635 0.225492 0.116115
C18   C     C_R   0.750151 0.453621 0.774514 0.116117
C19   C     C_R   0.197917 0.997023 0.170310 -0.248526
C20   C     C_R   0.802080 0.497007 0.829698 -0.248629
C21   C     C_R   0.130528 0.776059 0.238015 0.358316
C22   C     C_R   0.869475 0.276067 0.761982 0.358353
C23   C     C_R   0.182189 0.734099 0.293674 -0.256014
C24   C     C_R   0.817814 0.234108 0.706323 -0.255999
H1    H     H_    0.204581 0.097137 0.122119 0.123479
H2    H     H_    0.795414 0.597109 0.877894 0.123508
H3    H     H_    0.316438 0.138909 0.169219 0.133226
H4    H     H_    0.683555 0.638871 0.830797 0.133252
H5    H     H_    0.174843 0.628479 0.339254 0.126987
H6    H     H_    0.825162 0.128498 0.660738 0.126986
H7    H     H_    0.407220 0.063112 0.262569 0.137423
H8    H     H_    0.592775 0.563088 0.737440 0.137429
C25   C     C_R   0.388249 0.885459 0.833788 -0.098916
C26   C     C_R   0.611747 0.385136 0.166198 -0.098873
H9    H     H_    0.474808 0.880489 0.770607 0.115445
H10   H     H_    0.525186 0.380148 0.229377 0.115429
H11   H     H_    0.415733 0.902291 0.890554 0.162524
H12   H     H_    0.584260 0.401823 0.109425 0.162543
C27   C     C_R   0.391146 0.855833 0.689472 -0.040464
C28   C     C_R   0.608851 0.355806 0.310525 -0.040460
C29   C     C_R   0.081430 0.893363 0.733864 0.372983
C30   C     C_R   0.918561 0.393506 0.266134 0.372977
C31   C     C_R   0.116989 0.897027 0.665693 -0.101246
C32   C     C_R   0.883001 0.397288 0.334302 -0.101267
C33   C     C_R   0.183337 0.896403 0.671663 -0.233743
C34   C     C_R   0.816653 0.396625 0.328329 -0.233732
C35   C     C_R   0.217969 0.886584 0.747226 0.079365
C36   C     C_R   0.782025 0.386639 0.252766 0.079376
C37   C     C_R   0.182693 0.892320 0.819381 -0.027582
C38   C     C_R   0.817302 0.392278 0.180612 -0.027601
C39   C     C_R   0.286780 0.873541 0.752137 0.074459
C40   C     C_R   0.713216 0.373523 0.247857 0.074453
C41   C     C_R   0.320424 0.877299 0.829171 0.076484
C42   C     C_R   0.679574 0.377072 0.170820 0.076495
C43   C     C_R   0.286257 0.874992 0.900183 -0.068512
C44   C     C_R   0.713744 0.374659 0.099809 -0.068523
C45   C     C_R   0.218518 0.880643 0.895192 -0.080794
C46   C     C_R   0.781482 0.380441 0.104802 -0.080808
C47   C     C_R   0.323858 0.856194 0.682604 -0.194225
C48   C     C_R   0.676139 0.356287 0.317396 -0.194206
C49   C     C_R   0.422857 0.874964 0.764916 -0.180124
C50   C     C_R   0.577139 0.374725 0.235072 -0.180124
C51   C     C_R   0.112965 0.902470 0.812027 -0.170977
C52   C     C_R   0.887029 0.402489 0.187968 -0.170995
H13   H     H_    0.302427 0.841375 0.622269 0.104963
H14   H     H_    0.697570 0.341627 0.377738 0.104944
H15   H     H_    0.205997 0.902917 0.614947 0.128344
H16   H     H_    0.793992 0.403230 0.385041 0.128350
H17   H     H_    0.092474 0.897492 0.606253 0.145158
H18   H     H_    0.907515 0.397864 0.393743 0.145158
O11   O     O_R   0.950790 0.256670 0.090520 -0.534888
O12   O     O_R   0.049210 0.756670 0.909480 -0.534867
O13   O     O_R   0.927720 0.590370 0.921470 -0.563733
O14   O     O_R   0.072280 0.090370 0.078530 -0.563751
C53   C     C_R   0.912551 0.421431 0.891825 0.754709
C54   C     C_R   0.087450 0.921431 0.108175 0.754719
O15   O     O_R   0.943270 0.586180 0.090640 -0.535119
O16   O     O_R   0.056730 0.086180 0.909360 -0.535145
O17   O     O_R   0.064850 0.759970 0.079840 -0.497084
O18   O     O_R   0.935150 0.259970 0.920160 -0.497091
C55   C     C_R   0.928752 0.416622 0.117488 0.677041
C56   C     C_R   0.071246 0.916619 0.882510 0.676986
O19   O     O_3   0.039850 0.428050 0.996240 -0.368005
O20   O     O_3   0.960150 0.928050 0.003760 -0.367987
V3    V     V_3+5 0.992610 0.701540 0.000700 1.545080
V4    V     V_3+5 0.007390 0.201540 0.999300 1.545008
O21   O     O_3   0.015676 0.880016 0.720232 -0.648402
H19   H     H_    0.995015 0.847181 0.770579 0.295055
O22   O     O_3   0.984315 0.380176 0.279767 -0.648395
H20   H     H_    0.004963 0.347038 0.229445 0.295028
C57   C     C_2   0.186842 0.866855 0.971567 0.346353
H21   H     H_    0.164766 0.991503 0.994677 0.010069
O23   O     O_2   0.187471 0.718827 0.009198 -0.515932
C58   C     C_2   0.813165 0.366656 0.028430 0.346356
H22   H     H_    0.835235 0.491312 0.005321 0.010027
O24   O     O_2   0.812551 0.218622 0.990803 -0.515938
O25   O     O_3   0.071236 0.693658 0.245042 -0.639784
H23   H     H_    0.071974 0.621456 0.296302 0.316100
O26   O     O_3   0.928768 0.193672 0.754954 -0.639827
H24   H     H_    0.928030 0.121448 0.703699 0.316061
O27   O     O_3   0.289982 0.663999 0.410491 -0.648443
H25   H     H_    0.247364 0.684543 0.432252 0.276380
O28   O     O_3   0.710021 0.164007 0.589505 -0.648441
H26   H     H_    0.752639 0.184555 0.567745 0.276388
C59   C     C_2   0.320589 0.863655 0.981674 0.429475
H27   H     H_    0.306902 0.956522 0.029849 0.035243
O29   O     O_2   0.361448 0.743608 0.996629 -0.520279
C60   C     C_2   0.679417 0.363086 0.018320 0.429455
H28   H     H_    0.693106 0.455803 0.970095 0.035373
O30   O     O_2   0.638558 0.243010 0.003423 -0.520323

loop_
_geom_bond_atom_site_label_1
_geom_bond_atom_site_label_2
_ccdc_geom_bond_type
C42   C44   A    
C39   C41   A    
O22   H20   S    
C15   C17   A    
C5    C54   S    
C33   H15   S    
C30   O22   S    
C24   H6    S    
O26   H24   S    
O1    C3    A    
C26   C50   A    
O2    C4    A    
C2    O7    A    
O19   V4    S    
O18   V4    S    
C29   O21   S    
O5    C3    A    
C5    C21   A    
O12   V3    S    
C36   C38   A    
C26   C42   A    
C28   C50   A    
C59   O29   D    
O14   C54   A    
C33   C35   A    
C58   H22   S    
C34   C36   A    
O28   H26   S    
O11   C55   A    
C11   H7    S    
C38   C46   A    
C25   C49   A    
C14   O28   S    
C48   H14   S    
C8    C12   A    
C41   C43   A    
O11   V4    S    
O20   V4    S    
C1    C28   S    
C20   H2    S    
C2    C27   S    
C31   H17   S    
C34   H16   S    
C58   O24   D    
O13   C53   A    
O6    V2    S    
C53   O18   A    
C22   O26   S    
C38   C52   A    
C29   C51   A    
C27   C47   A    
C23   H5    S    
C60   O30   D    
O16   C56   A    
C45   C57   S    
C30   C32   A    
C3    C8    S    
C35   C37   A    
H10   C50   S    
H9    C49   S    
O4    C2    A    
C46   C58   S    
O5    V1    S    
C15   C23   A    
C9    C17   A    
C37   C51   A    
C19   H1    S    
O15   V3    S    
C43   C45   A    
C40   C42   A    
O4    V2    S    
C7    C11   A    
C28   C48   A    
C13   O27   S    
C52   C55   S    
C43   C59   S    
O21   H19   S    
C9    H3    S    
C54   O17   A    
C25   H11   S    
O6    C4    A    
C10   H4    S    
O20   V3    S    
C57   O23   D    
O1    V2    S    
O12   C56   A    
O17   V3    S    
O2    V1    S    
C6    C22   A    
C30   C52   A    
C39   C47   A    
C31   C33   A    
C25   C41   A    
C5    C19   A    
C10   C12   A    
C6    C20   A    
C29   C31   A    
C47   H13   S    
O3    V1    S    
C60   H28   S    
O27   H25   S    
C37   C45   A    
C10   C18   A    
C14   C16   A    
C27   C49   A    
O3    C1    A    
O19   V3    S    
C32   H18   S    
C13   C15   A    
C26   H12   S    
C35   C39   A    
C6    C53   S    
C36   C40   A    
C9    C11   A    
O7    V1    S    
C1    O8    A    
C17   C19   A    
O8    V2    S    
O25   H23   S    
C44   C60   S    
C18   C20   A    
C8    C14   A    
C12   H8    S    
C4    C7    S    
C16   C18   A    
C21   C23   A    
C32   C34   A    
C22   C24   A    
C40   C48   A    
O15   C55   A    
O14   V4    S    
O13   V3    S    
C7    C13   A    
C21   O25   S    
C16   C24   A    
C44   C46   A    
O9    V2    S    
C57   H21   S    
O10   V1    S    
C59   H27   S    
O16   V4    S    
C51   C56   S    
