data_mof_unit_27002.cif
_audit_creation_date              2012-12-11T14:13:05-0500
_audit_creation_method            fapswitch 2.2
_symmetry_space_group_name_H-M    P1
_symmetry_Int_Tables_number       1
_space_group_crystal_system       triclinic
_cell_length_a                    11.467619
_cell_length_b                    18.605981
_cell_length_c                    10.073583
_cell_angle_alpha                 89.641002
_cell_angle_beta                  109.418757
_cell_angle_gamma                 89.74934
_cell_volume                      2027.00687227

loop_
_atom_site_label
_atom_site_type_symbol
_atom_type_description
_atom_site_fract_x
_atom_site_fract_y
_atom_site_fract_z
_atom_type_partial_charge
C1    C     C_R   0.073844 0.645986 0.142574 0.572354
C2    C     C_R   0.920944 0.355854 0.855611 0.603066
C3    C     C_R   0.927126 0.146160 0.858842 0.550497
C4    C     C_R   0.072703 0.853701 0.141830 0.577976
C5    C     C_R   0.389934 0.457485 0.493733 0.050253
C6    C     C_R   0.598045 0.535622 0.484406 0.023892
C7    C     C_R   0.567076 0.972503 0.416671 0.024484
C8    C     C_R   0.440993 0.025317 0.596074 0.017575
C9    C     C_2   0.354078 0.938532 0.007056 0.208613
C10   C     C_2   0.604935 0.068216 0.055507 0.231488
C11   C     C_2   0.601456 0.428381 0.071519 0.243198
C12   C     C_2   0.393577 0.565609 0.952989 0.244227
C13   C     C_2   0.461182 0.969279 0.012904 -0.142109
C14   C     C_2   0.490418 0.045882 0.037674 -0.113204
C15   C     C_2   0.486308 0.450239 0.056494 -0.160862
C16   C     C_2   0.459137 0.526301 0.066104 -0.155920
C17   C     C_2   0.016261 0.925002 0.125687 -0.051772
C18   C     C_2   0.982399 0.074440 0.879096 -0.086013
C19   C     C_2   0.957491 0.431222 0.864866 -0.062449
C20   C     C_2   0.019088 0.574416 0.126267 -0.062778
C21   C     C_2   0.984225 0.960574 0.003336 0.212503
C22   C     C_2   0.008049 0.039757 0.002534 0.205292
C23   C     C_2   0.003402 0.464534 0.988013 0.176326
C24   C     C_2   0.977997 0.542841 0.000425 0.155819
C25   C     C_R   0.470039 0.646339 0.442190 0.555131
C26   C     C_R   0.527481 0.351497 0.553686 0.554282
C27   C     C_R   0.564495 0.137482 0.626048 0.534892
C28   C     C_R   0.436763 0.862800 0.376470 0.534301
C29   C     C_R   0.372826 0.641608 0.973054 0.598269
C30   C     C_R   0.623753 0.355443 0.034941 0.583905
C31   C     C_R   0.624872 0.143913 0.033448 0.524465
C32   C     C_R   0.348690 0.860484 0.011910 0.595471
C33   C     C_R   0.495206 0.421638 0.482341 -0.007632
C34   C     C_R   0.493986 0.572401 0.499245 -0.002947
C35   C     C_R   0.458866 0.937800 0.424125 0.000154
C36   C     C_R   0.545520 0.061317 0.584061 -0.016403
C37   C     C_R   0.281531 0.419252 0.487753 0.024032
C38   C     C_R   0.708396 0.571705 0.490220 0.008488
C39   C     C_R   0.635026 0.948738 0.329226 -0.044972
C40   C     C_R   0.380960 0.047084 0.691919 -0.077906
C41   C     C_R   0.181659 0.453515 0.510076 -0.071839
C42   C     C_R   0.802286 0.536803 0.456176 -0.097521
C43   C     C_R   0.755760 0.970588 0.351542 -0.045553
C44   C     C_R   0.264649 0.021885 0.682222 -0.089822
C45   C     C_R   0.186966 0.526356 0.537749 -0.084503
C46   C     C_R   0.789366 0.465214 0.417223 -0.102759
C47   C     C_R   0.808354 0.020608 0.453705 -0.066012
C48   C     C_R   0.207982 0.972101 0.580911 -0.069648
C49   C     C_R   0.292461 0.564918 0.544036 -0.012156
C50   C     C_R   0.683974 0.428048 0.415841 -0.065468
C51   C     C_R   0.737778 0.049529 0.528561 -0.027325
C52   C     C_R   0.270820 0.945832 0.494886 -0.038245
C53   C     C_R   0.392853 0.532392 0.513364 0.021202
C54   C     C_R   0.591238 0.461355 0.458883 0.000600
C55   C     C_R   0.615316 0.029520 0.507239 0.037081
C56   C     C_R   0.390936 0.968307 0.505636 0.026624
Cr1   Cr    Cr6+3 0.187610 0.750000 0.979860 1.149281
Cr2   Cr    Cr6+3 0.812390 0.250000 0.020140 1.172419
Cr3   Cr    Cr6+3 0.245810 0.750000 0.341640 1.032579
Cr4   Cr    Cr6+3 0.754190 0.250000 0.658360 1.034145
Cr5   Cr    Cr6+3 0.485760 0.750000 0.219910 1.037552
Cr6   Cr    Cr6+3 0.514240 0.250000 0.780090 1.028467
H1    H     H_    0.100350 0.423302 0.506892 0.134237
H2    H     H_    0.884462 0.565729 0.458198 0.142323
H3    H     H_    0.809027 0.947634 0.291251 0.155219
H4    H     H_    0.216881 0.042849 0.749894 0.127008
H5    H     H_    0.111546 0.552607 0.560670 0.134898
H6    H     H_    0.860486 0.438548 0.386635 0.166513
H7    H     H_    0.903848 0.036222 0.476678 0.141122
H8    H     H_    0.115125 0.954218 0.567834 0.148942
H9    H     H_    0.271628 0.362862 0.460658 0.181685
H10   H     H_    0.724303 0.626881 0.524510 0.208485
H11   H     H_    0.598824 0.911028 0.245811 0.155052
H12   H     H_    0.421435 0.085265 0.772815 0.156119
H13   H     H_    0.296587 0.619115 0.582911 0.173263
H14   H     H_    0.674715 0.373259 0.378547 0.141663
H15   H     H_    0.782484 0.080965 0.615012 0.172767
H16   H     H_    0.220698 0.912478 0.412622 0.180442
H17   H     H_    0.419401 0.085767 0.030798 0.100967
H18   H     H_    0.534294 0.934244 0.003925 0.183027
H19   H     H_    0.501739 0.551681 0.167508 0.129660
H20   H     H_    0.409612 0.412889 0.021700 0.149729
H21   H     H_    0.968575 0.044467 0.783431 0.132442
H22   H     H_    0.034280 0.954101 0.223207 0.134943
H23   H     H_    0.045193 0.541978 0.221662 0.153416
H24   H     H_    0.919134 0.461834 0.768051 0.144675
O1    O     O_R   0.267710 0.668200 0.902110 -0.497515
O2    O     O_R   0.732290 0.331800 0.097890 -0.467827
O3    O     O_R   0.732290 0.168200 0.097890 -0.490841
O4    O     O_R   0.267710 0.831800 0.902110 -0.458362
O5    O     O_R   0.099480 0.674460 0.038850 -0.459100
O6    O     O_R   0.900520 0.325540 0.961150 -0.407837
O7    O     O_R   0.900520 0.174460 0.961150 -0.424654
O8    O     O_R   0.099480 0.825540 0.038850 -0.418741
O9    O     O_R   0.116720 0.669210 0.267660 -0.524780
O10   O     O_R   0.883280 0.330790 0.732340 -0.529868
O11   O     O_R   0.883280 0.169210 0.732340 -0.561059
O12   O     O_R   0.116720 0.830790 0.267660 -0.567202
O13   O     O_R   0.366710 0.675440 0.427590 -0.504679
O14   O     O_R   0.633290 0.324560 0.572410 -0.499253
O15   O     O_R   0.633290 0.175440 0.572410 -0.505161
O16   O     O_R   0.366710 0.824560 0.427590 -0.494178
O17   O     O_R   0.534870 0.669390 0.371760 -0.526864
O18   O     O_R   0.465130 0.330610 0.628240 -0.520598
O19   O     O_R   0.465130 0.169390 0.628240 -0.502941
O20   O     O_R   0.534870 0.830610 0.371760 -0.496714
O21   O     O_R   0.453080 0.674480 0.075160 -0.520765
O22   O     O_R   0.546920 0.325520 0.924840 -0.522368
O23   O     O_R   0.546920 0.174480 0.924840 -0.557549
O24   O     O_R   0.453080 0.825520 0.075160 -0.558176
O25   O     O_3   0.306390 0.750000 0.180470 -0.328237
O26   O     O_3   0.693610 0.250000 0.819530 -0.301235
O27   O     O_3   0.697798 0.018520 0.065196 -0.757783
H25   H     H_    0.772685 0.043838 0.062125 0.351824
O28   O     O_3   0.248545 0.975476 0.003827 -0.694208
H26   H     H_    0.256755 0.027190 0.988002 0.332844
O29   O     O_3   0.328641 0.535475 0.825355 -0.730762
H27   H     H_    0.356874 0.485675 0.819344 0.337442
O30   O     O_3   0.703136 0.473738 0.106688 -0.672180
H28   H     H_    0.682261 0.522415 0.130712 0.336938
S1    S     S_3+6 0.091251 0.086267 0.160973 -0.007828
O31   O     O_2   0.130664 0.159693 0.129589 -0.252474
O32   O     O_2   0.011800 0.093537 0.252542 -0.291666
O33   O     O_3   0.219002 0.038927 0.247793 -0.561057
H29   H     H_    0.283476 0.075146 0.290257 0.372365
S2    S     S_3+6 0.892530 0.915242 0.848219 0.017168
O34   O     O_2   0.960757 0.911051 0.744316 -0.264653
O35   O     O_2   0.859472 0.840443 0.880053 -0.223770
O36   O     O_3   0.760928 0.962051 0.777086 -0.570690
H30   H     H_    0.707456 0.948165 0.832454 0.369718
S3    S     S_3+6 0.879459 0.593145 0.855078 0.008300
O37   O     O_2   0.762091 0.551674 0.792518 -0.289632
O38   O     O_2   0.846998 0.665327 0.899864 -0.204309
O39   O     O_3   0.949727 0.604816 0.734245 -0.552606
H31   H     H_    0.039187 0.598433 0.785718 0.348117
S4    S     S_3+6 0.114729 0.417590 0.127430 -0.017521
O40   O     O_2   0.054100 0.393862 0.231267 -0.276841
O41   O     O_2   0.164568 0.352797 0.074993 -0.258667
O42   O     O_3   0.232703 0.473039 0.203957 -0.569899
H32   H     H_    0.247095 0.499249 0.125157 0.324657

loop_
_geom_bond_atom_site_label_1
_geom_bond_atom_site_label_2
_ccdc_geom_bond_type
C44   C48   A    
S2    O34   D    
C4    O12   A    
C12   C29   S    
Cr3   O13   S    
C44   H4    S    
C7    C55   A    
C19   H24   S    
C11   O30   S    
C8    C56   A    
Cr2   O6    S    
Cr6   O19   S    
C50   C54   A    
C32   O24   A    
C23   S4    S    
Cr2   O26   S    
C7    C39   A    
C5    C53   A    
Cr5   O17   S    
Cr2   O7    S    
C38   C42   A    
C5    C37   A    
C42   C46   A    
Cr6   O22   S    
C27   O19   A    
C15   C16   S    
C3    C18   S    
C8    C36   A    
C9    C13   D    
C47   H7    S    
S1    O33   S    
C9    C32   S    
C26   O18   A    
C11   C15   D    
C10   C31   S    
C25   O13   A    
C32   O4    A    
C20   C24   D    
C11   C30   S    
C28   O20   A    
C31   O3    A    
C5    C33   A    
C45   H5    S    
Cr3   O25   S    
C23   C24   S    
C6    C38   A    
C40   C44   A    
C43   H3    S    
C25   C34   S    
S3    O39   S    
C35   C56   A    
C13   H18   S    
C1    O5    A    
C21   C22   S    
Cr3   O9    S    
C6    C54   A    
S4    O42   S    
C52   H16   S    
Cr5   O24   S    
C15   H20   S    
Cr6   O18   S    
O42   H32   S    
C38   H10   S    
S1    O32   D    
Cr1   O4    S    
C9    O28   S    
C12   C16   D    
C28   C35   S    
S4    O41   D    
Cr4   O11   S    
C10   C14   D    
C25   O17   A    
C39   C43   A    
S2    O36   S    
S3    O38   D    
C27   O15   A    
C17   C21   D    
Cr1   O1    S    
C19   C23   D    
C51   H15   S    
C46   H6    S    
Cr4   O26   S    
C50   H14   S    
C3    O11   A    
C26   C33   S    
C45   C49   A    
C1    O9    A    
C20   H23   S    
C49   H13   S    
C18   H21   S    
C31   O23   A    
C3    O7    A    
C14   H17   S    
C2    O6    A    
Cr5   O20   S    
S1    O31   D    
C10   O27   S    
C4    O8    A    
C4    C17   S    
Cr4   O10   S    
Cr1   O8    S    
C37   H9    S    
C6    C34   A    
C41   H1    S    
C30   O2    A    
Cr4   O15   S    
Cr5   O25   S    
C42   H2    S    
C22   S1    S    
O27   H25   S    
C33   C54   A    
C1    C20   S    
S2    O35   D    
Cr1   O5    S    
C30   O22   A    
C2    C19   S    
C18   C22   D    
Cr3   O16   S    
C7    C35   A    
C48   H8    S    
S4    O40   D    
Cr4   O14   S    
Cr2   O2    S    
C47   C51   A    
O30   H28   S    
O39   H31   S    
C27   C36   S    
C46   C50   A    
C17   H22   S    
C2    O10   A    
O36   H30   S    
C36   C55   A    
O29   H27   S    
C24   S3    S    
Cr1   O25   S    
Cr6   O23   S    
C52   C56   A    
C49   C53   A    
C16   H19   S    
C40   H12   S    
C51   C55   A    
C39   H11   S    
C37   C41   A    
S3    O37   D    
Cr5   O21   S    
Cr2   O3    S    
C29   O1    A    
C12   O29   S    
C28   O16   A    
C48   C52   A    
Cr6   O26   S    
C34   C53   A    
Cr3   O12   S    
C41   C45   A    
C29   O21   A    
C8    C40   A    
C21   S2    S    
C13   C14   S    
C43   C47   A    
O28   H26   S    
C26   O14   A    
O33   H29   S    
