data_mof_unit_48411.cif
_audit_creation_date              2012-12-10T20:02:23-0500
_audit_creation_method            fapswitch 2.2
_symmetry_space_group_name_H-M    P1
_symmetry_Int_Tables_number       1
_space_group_crystal_system       triclinic
_cell_length_a                    18.322165
_cell_length_b                    18.378418
_cell_length_c                    18.38624
_cell_angle_alpha                 120.199337
_cell_angle_beta                  120.02431
_cell_angle_gamma                 89.919821
_cell_volume                      4366.10345554

loop_
_atom_site_label
_atom_site_type_symbol
_atom_type_description
_atom_site_fract_x
_atom_site_fract_y
_atom_site_fract_z
_atom_type_partial_charge
C1    C     C_R   0.140069 0.140522 0.780185 0.836486
C2    C     C_R   0.707183 0.778383 0.435264 0.099465
C3    C     C_R   0.834889 0.774320 0.747361 -0.126594
C4    C     C_R   0.859941 0.859672 0.219859 0.792043
C5    C     C_R   0.880882 0.768628 0.830934 -0.114565
C6    C     C_R   0.934251 0.714497 0.832350 -0.193151
C7    C     C_R   0.941558 0.665652 0.750035 -0.103015
C8    C     C_R   0.894769 0.669178 0.664548 0.473495
C9    C     C_R   0.840694 0.724733 0.663321 0.028319
C10   C     C_R   0.711397 0.776080 0.053041 0.010337
C11   C     C_R   0.804144 0.798192 0.108186 -0.036687
C12   C     C_R   0.630781 0.749445 0.263374 -0.278733
C13   C     C_R   0.841955 0.756910 0.053888 -0.202079
C14   C     C_R   0.788069 0.702987 0.946095 -0.229258
C15   C     C_R   0.695902 0.689912 0.891628 -0.058502
C16   C     C_R   0.859961 0.140106 0.500187 0.858660
C17   C     C_R   0.658128 0.722743 0.946624 0.009177
C18   C     C_3   0.596469 0.776746 0.942555 0.296683
C19   C     C_3   0.655909 0.835554 0.060101 -0.462269
C20   C     C_R   0.225512 0.777765 0.564406 0.103144
C21   C     C_R   0.196056 0.805135 0.499548 -0.081174
C22   C     C_R   0.222960 0.776811 0.432547 -0.208636
C23   C     C_R   0.576971 0.767074 0.191958 -0.254692
C24   C     C_R   0.277024 0.722625 0.432555 -0.182225
C25   C     C_R   0.305018 0.695965 0.499584 -0.076578
C26   C     C_R   0.277401 0.725757 0.564413 0.113137
C27   C     C_3   0.282006 0.723287 0.646323 -0.430452
C28   C     C_R   0.140028 0.860319 0.500028 0.805330
C29   C     C_3   0.222661 0.782761 0.646332 -0.400404
C30   C     C_R   0.219161 0.158938 0.945889 -0.090488
C31   C     C_R   0.191024 0.197797 0.892223 -0.207493
C32   C     C_R   0.207762 0.291453 0.948822 0.433466
C33   C     C_R   0.258959 0.342915 0.056164 -0.210651
C34   C     C_R   0.547021 0.840317 0.219926 0.339990
C35   C     C_R   0.297083 0.303638 0.108746 -0.194104
C36   C     C_R   0.271280 0.210479 0.052354 0.031198
C37   C     C_3   0.326442 0.150299 0.057273 0.263338
C38   C     C_3   0.269145 0.093745 0.939156 0.191084
C39   C     C_R   0.214045 0.285533 0.553007 0.088198
C40   C     C_R   0.142523 0.139917 0.502208 0.864053
C41   C     C_R   0.207203 0.195858 0.511006 -0.227816
C42   C     C_R   0.265994 0.164617 0.482183 0.432513
C43   C     C_R   0.315840 0.219257 0.478599 -0.273430
C44   C     C_R   0.311221 0.304907 0.507555 -0.150098
C45   C     C_R   0.656911 0.723111 0.436289 -0.167424
C46   C     C_R   0.265540 0.339203 0.552228 0.144265
C47   C     C_3   0.199700 0.386539 0.531181 -0.475526
C48   C     C_3   0.142904 0.327394 0.532250 -0.399567
C49   C     C_R   0.842340 0.289133 0.573818 0.106053
C50   C     C_R   0.804221 0.195969 0.505783 -0.087809
C51   C     C_R   0.710909 0.157045 0.446741 -0.139278
C52   C     C_R   0.859317 0.860561 0.500082 0.841135
C53   C     C_R   0.656857 0.210642 0.446965 -0.151702
C54   C     C_R   0.695601 0.303838 0.505869 -0.054034
C55   C     C_R   0.788601 0.341859 0.573086 -0.017522
C56   C     C_R   0.697981 0.700541 0.506072 -0.073739
C57   C     C_3   0.850172 0.410932 0.590310 -0.557070
C58   C     C_3   0.910226 0.353314 0.591612 0.712825
C59   C     C_R   0.360233 0.639947 0.500028 0.818229
C60   C     C_R   0.640019 0.359847 0.500197 0.815217
C61   C     C_R   0.640092 0.639722 0.780035 0.832863
C62   C     C_R   0.359465 0.359744 0.220021 0.830168
C63   C     C_R   0.360067 0.359955 0.500126 0.833383
C64   C     C_R   0.574454 0.898988 0.323702 0.274720
C65   C     C_R   0.640593 0.641369 0.501781 0.805840
C66   C     C_R   0.629403 0.880908 0.396386 0.426213
C67   C     C_R   0.792257 0.735214 0.577891 -0.027937
C68   C     C_R   0.656759 0.804994 0.365002 -0.065529
C69   C     C_R   0.842869 0.786017 0.572634 -0.230435
C70   C     C_R   0.801786 0.807018 0.501265 -0.035393
H1    H     H_    0.970172 0.710464 0.897435 0.169559
H2    H     H_    0.247953 0.655216 0.617252 0.209567
H3    H     H_    0.350772 0.757698 0.718702 0.237640
H4    H     H_    0.154373 0.749006 0.617282 0.219136
H5    H     H_    0.257152 0.851508 0.718727 0.237936
H6    H     H_    0.273413 0.414577 0.098047 0.206257
H7    H     H_    0.397469 0.183531 0.093431 0.039085
H8    H     H_    0.307109 0.094575 0.907511 0.101741
H9    H     H_    0.357314 0.194589 0.451872 0.217377
H10   H     H_    0.227122 0.458128 0.596655 0.225836
H11   H     H_    0.168327 0.373596 0.454221 0.200491
H12   H     H_    0.983549 0.624251 0.752356 0.198396
H13   H     H_    0.137760 0.364999 0.598418 0.259335
H14   H     H_    0.078418 0.280103 0.455953 0.201927
H15   H     H_    0.679436 0.085250 0.396988 0.205485
H16   H     H_    0.584951 0.178773 0.397586 0.203879
H17   H     H_    0.819834 0.415023 0.523377 0.222328
H18   H     H_    0.651218 0.691120 0.238887 0.179067
H19   H     H_    0.878493 0.475861 0.665693 0.196955
H20   H     H_    0.557261 0.721856 0.113644 0.200919
H21   H     H_    0.584629 0.699212 0.383083 0.186519
H22   H     H_    0.915089 0.810904 0.626733 0.192185
H23   H     H_    0.913275 0.768848 0.094263 0.185060
H24   H     H_    0.794361 0.817322 0.747836 0.145620
H25   H     H_    0.875476 0.806605 0.894931 0.151827
H26   H     H_    0.481823 0.948801 0.087989 0.411784
H27   H     H_    0.861661 0.619346 0.525860 0.333436
H28   H     H_    0.659716 0.852577 0.931137 0.340401
H29   H     H_    0.523672 0.987315 0.305769 0.385066
H30   H     H_    0.209854 0.327840 0.869285 0.357965
H31   H     H_    0.382494 0.127574 0.264975 0.385065
H32   H     H_    0.659304 0.927671 0.627768 0.381081
H33   H     H_    0.164466 0.008995 0.893887 0.385039
H34   H     H_    0.819063 0.674530 0.905886 0.175251
H35   H     H_    0.292397 0.981738 0.511053 0.382106
H36   H     H_    0.952416 0.366759 0.520067 0.349266
H37   H     H_    0.975903 0.467004 0.816698 0.341880
H38   H     H_    0.527869 0.738375 0.908135 0.178792
H39   H     H_    0.692756 0.905208 0.095937 0.210812
H40   H     H_    0.622512 0.829858 0.094185 0.231997
H41   H     H_    0.202408 0.796072 0.380202 0.198661
H42   H     H_    0.296455 0.701790 0.380168 0.195018
O1    O     O_3   0.000000 0.000000 0.500000 -0.517015
O2    O     O_R   0.384160 0.323450 0.268320 -0.580095
O3    O     O_R   0.384130 0.444860 0.560610 -0.645065
O4    O     O_R   0.115780 0.055050 0.731580 -0.615298
O5    O     O_R   0.555060 0.615780 0.439210 -0.638100
O6    O     O_R   0.384140 0.323430 0.439180 -0.622153
O7    O     O_R   0.676490 0.615760 0.560640 -0.643505
O8    O     O_R   0.676470 0.615740 0.731500 -0.652671
O9    O     O_R   0.384180 0.444900 0.268330 -0.654308
O10   O     O_R   0.384150 0.615750 0.560620 -0.636752
O11   O     O_R   0.555030 0.323430 0.439190 -0.620212
O12   O     O_R   0.823480 0.055090 0.439280 -0.654708
O13   O     O_R   0.823490 0.884220 0.268410 -0.641219
O14   O     O_R   0.944920 0.176520 0.560720 -0.577016
O15   O     O_R   0.115810 0.884200 0.439290 -0.628562
O16   O     O_R   0.115820 0.176530 0.560730 -0.627133
O17   O     O_R   0.944890 0.884180 0.560700 -0.645165
O18   O     O_R   0.115830 0.055100 0.439300 -0.570221
O19   O     O_R   0.823460 0.884190 0.439270 -0.638244
O20   O     O_2   0.444198 0.775340 0.018046 -0.317611
O21   O     O_2   0.391196 0.863546 0.122704 -0.203521
O22   O     O_3   0.524673 0.947315 0.147358 -0.589265
O23   O     O_R   0.115790 0.884180 0.560710 -0.639274
O24   O     O_3   0.903494 0.617225 0.584918 -0.774362
O25   O     O_3   0.596710 0.821631 0.899090 -0.735821
O26   O     O_3   0.547205 0.972351 0.356056 -0.675265
O27   O     O_3   0.178790 0.335289 0.902630 -0.654073
O28   O     O_2   0.223394 0.084439 0.091452 -0.277334
O29   O     O_2   0.326894 0.007654 0.065759 -0.208642
O30   O     O_3   0.393110 0.160597 0.240182 -0.512163
O31   O     O_2   0.764476 0.984761 0.597297 -0.339479
O32   O     O_2   0.633179 0.031988 0.547683 -0.179684
O33   O     O_3   0.621874 0.893666 0.551625 -0.553478
O34   O     O_R   0.115790 0.176500 0.731590 -0.607312
O35   O     O_3   0.216093 0.006394 0.888975 -0.657969
O36   O     O_2   0.202945 0.987213 0.343345 -0.260962
O37   O     O_2   0.365649 0.058688 0.457498 -0.249779
O38   O     O_3   0.286136 0.041591 0.534454 -0.566318
O39   O     O_3   0.916797 0.316383 0.508099 -0.783163
O40   O     O_2   0.073808 0.346844 0.704013 -0.210544
O41   O     O_2   0.063597 0.494012 0.747456 -0.320312
O42   O     O_3   0.002657 0.418982 0.803241 -0.498626
O43   O     O_R   0.944940 0.884220 0.268420 -0.642315
O44   O     O_3   0.499960 0.499960 0.499910 -0.500758
O45   O     O_R   0.384170 0.615770 0.439200 -0.641464
O46   O     O_R   0.676480 0.444870 0.560630 -0.639471
O47   O     O_R   0.555020 0.615730 0.731490 -0.624276
S1    S     S_3+6 0.472633 0.854192 0.122507 0.027151
S2    S     S_3+6 0.314510 0.097008 0.112190 0.092497
S3    S     S_3+6 0.664079 0.952377 0.526662 0.074334
S4    S     S_3+6 0.280660 0.059913 0.451217 0.060844
S5    S     S_3+6 0.016705 0.404845 0.713828 0.055854
Zn1   Zn    Zn3+2 0.869870 0.956630 0.413250 0.990967
Zn2   Zn    Zn3+2 0.043380 0.130130 0.586750 1.075955
Zn3   Zn    Zn3+2 0.043390 0.956630 0.413260 1.030181
Zn4   Zn    Zn3+2 0.043360 0.956610 0.586740 1.007431
Zn5   Zn    Zn3+2 0.630090 0.543330 0.586660 0.974247
Zn6   Zn    Zn3+2 0.456570 0.543320 0.586650 0.990176
Zn7   Zn    Zn3+2 0.456580 0.369830 0.413160 1.032430
Zn8   Zn    Zn3+2 0.456590 0.543350 0.413170 0.985903

loop_
_geom_bond_atom_site_label_1
_geom_bond_atom_site_label_2
_ccdc_geom_bond_type
C66   C68   A    
O29   S2    D    
O47   Zn6   S    
C27   C29   S    
C28   O23   A    
C11   C13   A    
C41   C42   A    
O22   S1    S    
C35   C36   A    
C24   H42   S    
C58   S5    S    
C51   H15   S    
O30   S2    S    
H33   O35   S    
C7    C8    A    
C39   C41   A    
C54   C60   S    
C53   C54   A    
O38   S4    S    
C12   C68   A    
C12   C23   A    
C30   C38   S    
C26   C27   S    
O20   S1    D    
C57   H19   S    
C4    O13   A    
C3    C9    A    
C52   O17   A    
O42   S5    S    
C36   C37   S    
C16   C50   S    
C62   O2    A    
C2    C68   S    
C61   O47   A    
O45   Zn8   S    
O1    Zn1   S    
C30   C31   A    
O8    Zn5   S    
C8    O24   S    
O33   S3    S    
C10   C17   A    
C43   H9    S    
C56   C65   S    
C40   O16   A    
O44   Zn5   S    
C1    C31   S    
C66   S3    S    
C18   C19   S    
C54   C55   A    
O18   Zn3   S    
C47   C48   S    
C45   C56   A    
O43   Zn3   S    
C8    C9    A    
O10   Zn6   S    
O23   Zn4   S    
H29   O26   S    
C53   H16   S    
O37   S4    D    
C1    O4    A    
C3    H24   S    
C69   H22   S    
O31   S3    D    
C27   H3    S    
C28   O15   A    
C63   O3    A    
C59   O10   A    
O34   Zn2   S    
C2    C45   A    
C13   C14   A    
C61   O8    A    
O16   Zn2   S    
O36   S4    D    
C1    O34   A    
C6    H1    S    
C47   H10   S    
O1    Zn4   S    
O3    Zn6   S    
C5    H25   S    
C44   C46   A    
C50   C51   A    
C20   C29   S    
C19   H39   S    
C44   C63   S    
C15   C61   S    
O2    Zn7   S    
C12   H18   S    
O41   S5    D    
C24   C25   A    
C32   O27   S    
O1    Zn2   S    
C63   O6    A    
C42   S4    S    
C64   O26   S    
C29   H4    S    
H28   O25   S    
O14   Zn2   S    
C25   C26   A    
C49   C55   A    
C37   H7    S    
O44   Zn8   S    
C49   C58   S    
C48   H14   S    
C13   H23   S    
C67   C69   A    
C64   C66   A    
C60   O11   A    
O13   Zn1   S    
C43   C44   A    
C9    C67   S    
C37   C38   S    
H35   O38   S    
H30   O27   S    
H31   O30   S    
C33   H6    S    
C14   H34   S    
C31   C32   A    
C10   C19   S    
C23   C34   A    
C4    O43   A    
C34   C64   A    
C17   C18   S    
C65   O7    A    
C23   H20   S    
C4    C11   S    
O40   S5    D    
O7    Zn5   S    
C39   C46   A    
C40   C41   S    
C21   C28   S    
C22   H41   S    
C55   C57   S    
C22   C24   A    
C42   C43   A    
C58   O39   S    
C37   S2    S    
C19   H40   S    
C15   C17   A    
C40   O18   A    
C46   C47   S    
H36   O39   S    
O17   Zn4   S    
O32   S3    D    
C52   O19   A    
C60   O46   A    
C3    C5    A    
O1    Zn3   S    
H26   O22   S    
O46   Zn5   S    
C6    C7    A    
C29   H5    S    
C56   C67   A    
C38   H8    S    
O44   Zn7   S    
C48   H13   S    
C30   C36   A    
O21   S1    D    
C32   C33   A    
O28   S2    D    
H32   O33   S    
C2    C70   A    
C59   O45   A    
O5    Zn8   S    
C57   C58   S    
C5    C6    A    
C20   C26   A    
O6    Zn7   S    
O44   Zn6   S    
C33   C35   A    
C35   C62   S    
C47   H11   S    
C16   O12   A    
C69   C70   A    
C45   H21   S    
C18   O25   S    
C18   H38   S    
C38   O35   S    
H37   O42   S    
C52   C70   S    
C10   C11   A    
O12   Zn1   S    
C57   H17   S    
C7    H12   S    
C20   C21   A    
O19   Zn1   S    
O15   Zn3   S    
C49   C50   A    
C65   O5    A    
C14   C15   A    
O4    Zn4   S    
C25   C59   S    
H27   O24   S    
C51   C53   A    
O9    Zn8   S    
C21   C22   A    
C16   O14   A    
C62   O9    A    
O11   Zn7   S    
C27   H2    S    
C39   C48   S    
C34   S1    S    
