data_mof_unit_50294.cif
_audit_creation_date              2012-12-11T15:48:55-0500
_audit_creation_method            fapswitch 2.2
_symmetry_space_group_name_H-M    P1
_symmetry_Int_Tables_number       1
_space_group_crystal_system       triclinic
_cell_length_a                    11.030703
_cell_length_b                    10.930848
_cell_length_c                    18.823398
_cell_angle_alpha                 90.461486
_cell_angle_beta                  90.138762
_cell_angle_gamma                 60.640509
_cell_volume                      1978.05308045

loop_
_atom_site_label
_atom_site_type_symbol
_atom_type_description
_atom_site_fract_x
_atom_site_fract_y
_atom_site_fract_z
_atom_type_partial_charge
C1    C     C_R   0.238936 0.647023 0.610104 0.545520
C2    C     C_R   0.569191 0.149094 0.711943 -0.181606
C3    C     C_R   0.569438 0.148370 0.785014 -0.163907
C4    C     C_R   0.653312 0.620661 0.601693 0.540447
C5    C     C_3   0.914441 0.117600 0.788002 -0.270358
C6    C     C_3   0.903672 0.123940 0.708128 -0.283072
C7    C     C_R   0.659915 0.180624 0.675533 0.012903
C8    C     C_R   0.175928 0.674009 0.833942 -0.000839
C9    C     C_R   0.152926 0.581237 0.792713 0.010432
C10   C     C_R   0.161724 0.579713 0.719538 -0.022004
C11   C     C_R   0.196661 0.782319 0.724478 -0.028187
C12   C     C_3   0.708533 0.529863 0.799088 -0.250944
C13   C     C_R   0.197924 0.774576 0.798786 -0.155473
C14   C     C_3   0.222136 0.425275 0.796207 -0.281967
C15   C     C_3   0.229835 0.423991 0.715688 -0.273697
C16   C     C_R   0.626429 0.230240 0.603055 0.538706
C17   C     C_R   0.190285 0.673952 0.683698 0.026203
C18   C     C_R   0.653127 0.657714 0.165184 0.017073
C19   C     C_R   0.748129 0.536876 0.202019 0.030251
C20   C     C_R   0.743177 0.530819 0.274577 0.038224
C21   C     C_R   0.531882 0.751682 0.277482 -0.162657
C22   C     C_R   0.536127 0.758676 0.202774 -0.171249
C23   C     C_3   0.702072 0.671876 0.813189 0.055699
C24   C     C_3   0.904519 0.457754 0.203134 -0.266335
C25   C     C_3   0.897142 0.453762 0.283064 -0.279323
C26   C     C_R   0.643037 0.641848 0.314417 0.018697
C27   C     C_R   0.636242 0.188767 0.168822 0.019606
C28   C     C_R   0.220829 0.648856 0.402006 0.556166
C29   C     C_R   0.518887 0.207368 0.206401 0.020806
C30   C     C_R   0.514819 0.219472 0.279088 0.033322
C31   C     C_R   0.730770 0.223269 0.278257 -0.153353
C32   C     C_R   0.733532 0.214549 0.204166 -0.154955
C33   C     C_3   0.449080 0.119516 0.208434 -0.269876
C34   C     C_3   0.673439 0.644482 0.677475 0.047487
C35   C     C_3   0.444443 0.134049 0.288400 -0.279582
C36   C     C_R   0.626714 0.213200 0.316574 0.021322
C37   C     C_R   0.117837 0.690388 0.188665 0.024336
C38   C     C_R   0.071728 0.810183 0.231504 0.046921
C39   C     C_R   0.084922 0.801489 0.303778 0.015104
C40   C     C_R   0.638757 0.619473 0.390509 0.546400
C41   C     C_R   0.173199 0.551154 0.294570 -0.164378
C42   C     C_R   0.159815 0.561027 0.220857 -0.180029
C43   C     C_3   0.104373 0.927318 0.227347 -0.264015
C44   C     C_3   0.114890 0.921361 0.307344 -0.273822
C45   C     C_3   0.793480 0.676259 0.688874 -0.251508
C46   C     C_R   0.148446 0.670048 0.335663 0.017629
C47   C     C_R   0.700434 0.101805 0.896275 0.540369
C48   C     C_R   0.724358 0.687568 0.888641 0.544736
C49   C     C_R   0.118359 0.706464 0.905765 0.540450
C50   C     C_R   0.673410 0.110768 0.102517 0.547038
C51   C     C_R   0.695855 0.688319 0.096928 0.543599
C52   C     C_R   0.611381 0.238783 0.392323 0.548249
C53   C     C_R   0.089057 0.712063 0.113915 0.547601
C54   C     C_3   0.560648 0.791104 0.787551 -0.237388
C55   C     C_3   0.539892 0.764121 0.710172 -0.244201
C56   C     C_3   0.705830 0.508734 0.718641 -0.213794
C57   C     C_3   0.818673 0.678464 0.769463 -0.217030
C58   C     C_3   0.201306 0.908140 0.692132 -0.387821
C59   C     C_R   0.673448 0.159516 0.824652 0.020071
C60   C     C_R   0.760827 0.195068 0.788556 -0.008071
C61   C     C_R   0.752063 0.206930 0.714684 0.007435
Cr1   Cr    Cr6+3 0.392960 0.397920 0.502240 1.003117
Cr2   Cr    Cr6+3 0.398340 0.708480 0.501250 0.993908
Cr3   Cr    Cr6+3 0.708670 0.393570 0.496460 1.003207
Cr4   Cr    Cr6+3 0.937650 0.938540 0.007610 1.005431
Cr5   Cr    Cr6+3 0.625330 0.937370 0.994520 0.999511
Cr6   Cr    Cr6+3 0.937940 0.625230 0.001190 1.003794
H1    H     H_    0.558535 0.893380 0.791860 0.139673
H2    H     H_    0.474057 0.797537 0.820612 0.118114
H3    H     H_    0.207451 0.853781 0.829457 0.132805
H4    H     H_    0.151558 0.388032 0.816705 0.134439
H5    H     H_    0.324811 0.380159 0.822892 0.144232
H6    H     H_    0.336798 0.378337 0.694762 0.179436
H7    H     H_    0.162836 0.387283 0.689513 0.125821
H8    H     H_    0.445721 0.834454 0.306197 0.120917
H9    H     H_    0.454381 0.847702 0.175488 0.116013
H10   H     H_    0.950835 0.521836 0.185178 0.177878
H11   H     H_    0.948230 0.352402 0.177702 0.122910
H12   H     H_    0.809072 0.422300 0.701784 0.144388
H13   H     H_    0.938171 0.346098 0.304040 0.130775
H14   H     H_    0.935904 0.518057 0.310684 0.145726
H15   H     H_    0.811968 0.232798 0.305448 0.129225
H16   H     H_    0.818440 0.214130 0.175410 0.119269
H17   H     H_    0.519730 0.010728 0.190391 0.169253
H18   H     H_    0.344525 0.172275 0.183297 0.128610
H19   H     H_    0.337139 0.196458 0.309718 0.132272
H20   H     H_    0.510959 0.033492 0.316190 0.139974
H21   H     H_    0.217153 0.448170 0.318041 0.141721
H22   H     H_    0.187924 0.467599 0.189261 0.121862
H23   H     H_    0.890059 0.595108 0.662431 0.128095
H24   H     H_    0.016278 0.025580 0.207600 0.140873
H25   H     H_    0.502971 0.862413 0.679238 0.115698
H26   H     H_    0.205400 0.895399 0.200547 0.137056
H27   H     H_    0.220759 0.892950 0.325661 0.161494
H28   H     H_    0.029971 0.015141 0.334096 0.128259
H29   H     H_    0.825823 0.773907 0.783545 0.124023
H30   H     H_    0.766346 0.779715 0.665420 0.119805
H31   H     H_    0.805191 0.441866 0.821427 0.134467
H32   H     H_    0.618496 0.528160 0.824718 0.118677
H33   H     H_    0.625080 0.478797 0.706287 0.128938
H34   H     H_    0.492659 0.131575 0.684290 0.128786
H35   H     H_    0.918937 0.584830 0.782559 0.145218
H36   H     H_    0.295902 0.884020 0.663348 0.153964
H37   H     H_    0.126227 0.954094 0.648495 0.147090
H38   H     H_    0.185521 0.989453 0.732366 0.107497
H39   H     H_    0.464859 0.724693 0.710476 0.149487
H40   H     H_    0.492945 0.127352 0.809506 0.138859
H41   H     H_    0.957065 0.010039 0.809127 0.174148
H42   H     H_    0.959755 0.180357 0.810777 0.122483
H43   H     H_    0.949959 0.182946 0.682740 0.128628
H44   H     H_    0.926998 0.021802 0.683737 0.144815
O1    O     O_R   0.507380 0.255700 0.581440 -0.536106
O2    O     O_R   0.837170 0.593410 0.915250 -0.530613
O3    O     O_R   0.065200 0.635530 0.931570 -0.497583
O4    O     O_R   0.280320 0.527350 0.578930 -0.506631
O5    O     O_R   0.068260 0.828890 0.091840 -0.520740
O6    O     O_R   0.798870 0.057410 0.079340 -0.508168
O7    O     O_R   0.584930 0.080350 0.076780 -0.523195
O8    O     O_R   0.626960 0.809650 0.067060 -0.506552
O9    O     O_R   0.816040 0.596610 0.076510 -0.526131
O10   O     O_R   0.045610 0.638500 0.081060 -0.514057
O11   O     O_3   0.833640 0.833710 0.001100 -0.250077
O12   O     O_R   0.524480 0.695810 0.424040 -0.508687
O13   O     O_R   0.260510 0.739590 0.584590 -0.537452
O14   O     O_R   0.532300 0.695080 0.573820 -0.513533
O15   O     O_R   0.744840 0.503500 0.576370 -0.527364
O16   O     O_R   0.699120 0.276560 0.571960 -0.500807
O17   O     O_R   0.498940 0.256500 0.419860 -0.520105
O18   O     O_R   0.272500 0.528080 0.429150 -0.510768
O19   O     O_R   0.252060 0.740380 0.423010 -0.526313
O20   O     O_R   0.736390 0.504290 0.414790 -0.519367
O21   O     O_R   0.691300 0.277290 0.422170 -0.511238
O22   O     O_3   0.499990 0.499990 0.499980 -0.252238
O23   O     O_R   0.089400 0.825690 0.930570 -0.534373
O24   O     O_R   0.818460 0.054440 0.929850 -0.504323
O25   O     O_R   0.606060 0.077150 0.915510 -0.536701
O26   O     O_R   0.646550 0.806680 0.917570 -0.510876

loop_
_geom_bond_atom_site_label_1
_geom_bond_atom_site_label_2
_ccdc_geom_bond_type
C59   C60   A    
C49   O23   A    
C34   C56   S    
C8    C13   A    
C47   O25   A    
C27   C29   A    
C25   H13   S    
C14   H4    S    
C2    C7    A    
C22   H9    S    
C21   C26   A    
Cr2   O13   S    
C52   O17   A    
C6    C61   S    
C57   H35   S    
Cr5   O26   S    
C12   C23   S    
C28   C46   S    
C29   C30   A    
C31   H15   S    
C20   C26   A    
C4    O14   A    
Cr2   O22   S    
Cr1   O22   S    
Cr6   O3    S    
C18   C19   A    
C10   C15   S    
C31   C36   A    
C38   C39   A    
C35   H19   S    
C54   H1    S    
C13   H3    S    
C10   C17   A    
C50   O6    A    
C29   C33   S    
C28   O18   A    
C41   C42   A    
Cr2   O19   S    
C37   C42   A    
C32   H16   S    
C33   H18   S    
C7    C61   A    
C12   H32   S    
C43   H26   S    
C54   C55   S    
C35   H20   S    
C6    H44   S    
Cr3   O21   S    
C8    C9    A    
C57   H29   S    
C51   O8    A    
C41   C46   A    
Cr5   O11   S    
C11   C58   S    
C9    C10   A    
C12   H31   S    
Cr4   O23   S    
C36   C52   S    
C27   C50   S    
C37   C53   S    
C49   O3    A    
C34   C55   S    
C50   O7    A    
C21   C22   A    
C25   H14   S    
C6    H43   S    
Cr1   O18   S    
Cr6   O10   S    
C16   O16   A    
C18   C51   S    
C4    C34   S    
C55   H39   S    
C52   O21   A    
C24   C25   S    
C2    H34   S    
C3    H40   S    
C43   H24   S    
C60   C61   A    
C9    C14   S    
C37   C38   A    
C31   C32   A    
Cr3   O20   S    
Cr3   O16   S    
C45   C57   S    
C51   O9    A    
C34   C45   S    
C12   C56   S    
Cr4   O11   S    
C45   H23   S    
C56   H12   S    
Cr4   O24   S    
C39   C46   A    
Cr5   O25   S    
C48   O26   A    
C24   H11   S    
C7    C16   S    
C15   H6    S    
C55   H25   S    
Cr3   O15   S    
Cr5   O8    S    
C43   C44   S    
Cr5   O7    S    
Cr4   O5    S    
Cr2   O14   S    
C58   H37   S    
C56   H33   S    
Cr6   O11   S    
C16   O1    A    
C23   C54   S    
Cr6   O9    S    
C23   C57   S    
C41   H21   S    
Cr3   O22   S    
C11   C17   A    
C23   C48   S    
C5    C60   S    
C47   O24   A    
C27   C32   A    
C18   C22   A    
C14   H5    S    
C40   O20   A    
Cr2   O12   S    
C53   O5    A    
C39   C44   S    
C30   C36   A    
C30   C35   S    
C21   H8    S    
C1    C17   S    
C4    O15   A    
C42   H22   S    
C58   H38   S    
C19   C20   A    
C2    C3    A    
Cr6   O2    S    
C1    O13   A    
Cr1   O4    S    
C44   H28   S    
C45   H30   S    
Cr1   O17   S    
C11   C13   A    
C26   C40   S    
C5    C6    S    
C54   H2    S    
C5    H42   S    
C40   O12   A    
C33   C35   S    
C19   C24   S    
C28   O19   A    
C33   H17   S    
C44   H27   S    
C47   C59   S    
C24   H10   S    
C38   C43   S    
C15   H7    S    
Cr1   O1    S    
C20   C25   S    
Cr4   O6    S    
C14   C15   S    
C53   O10   A    
C58   H36   S    
C1    O4    A    
C8    C49   S    
C48   O2    A    
C5    H41   S    
C3    C59   A    
