data_mof_unit_27846.cif
_audit_creation_date              2012-12-11T17:39:30-0500
_audit_creation_method            fapswitch 2.2
_symmetry_space_group_name_H-M    P1
_symmetry_Int_Tables_number       1
_space_group_crystal_system       triclinic
_cell_length_a                    15.110627
_cell_length_b                    15.169295
_cell_length_c                    15.023201
_cell_angle_alpha                 108.531309
_cell_angle_beta                  110.646126
_cell_angle_gamma                 109.821176
_cell_volume                      2630.87938442

loop_
_atom_site_label
_atom_site_type_symbol
_atom_type_description
_atom_site_fract_x
_atom_site_fract_y
_atom_site_fract_z
_atom_type_partial_charge
C1    C     C_R   0.911443 0.976512 0.722910 -0.128552
C2    C     C_R   0.909115 0.698395 0.496727 -0.149341
C3    C     C_R   0.731042 0.779466 0.185806 -0.137838
C4    C     C_R   0.093597 0.314291 0.556865 -0.213552
C5    C     C_R   0.263902 0.949780 0.540142 -0.139781
C6    C     C_R   0.690549 0.677673 0.174581 0.130673
C7    C     C_R   0.296710 0.974898 0.471589 0.055905
C8    C     C_R   0.001370 0.694898 0.550873 0.051494
C9    C     C_R   0.995730 0.025577 0.179613 0.092717
C10   C     C_R   0.489703 0.598374 0.336798 -0.114123
C11   C     C_R   0.474679 0.683456 0.333583 -0.155568
C12   C     C_R   0.002307 0.324286 0.539863 -0.117403
C13   C     C_R   0.454204 0.741772 0.409766 0.121906
C14   C     C_R   0.443494 0.709320 0.485266 -0.164418
C15   C     C_R   0.455212 0.621868 0.485714 -0.109872
C16   C     C_R   0.303584 0.206629 0.798451 -0.149412
C17   C     C_R   0.479070 0.566917 0.411997 -0.083188
C18   C     C_R   0.371897 0.858521 0.430796 -0.254247
C19   C     C_R   0.374198 0.955632 0.446935 0.048495
C20   C     C_R   0.451881 0.034092 0.441090 0.079294
C21   C     C_R   0.524361 0.012388 0.418106 -0.155259
C22   C     C_R   0.529575 0.920737 0.412136 0.027465
C23   C     C_R   0.366676 0.297740 0.799825 0.136027
C24   C     C_R   0.451297 0.840501 0.415684 0.038234
C25   C     C_R   0.468310 0.184762 0.398312 0.566408
C26   C     C_R   0.490143 0.291417 0.431023 -0.264483
C27   C     C_R   0.517236 0.358551 0.536485 -0.160708
C28   C     C_R   0.693237 0.985047 0.394870 -0.016004
C29   C     C_R   0.523489 0.320481 0.610391 -0.105592
C30   C     C_R   0.501180 0.214775 0.578919 -0.213720
C31   C     C_R   0.471779 0.145546 0.472405 -0.011143
C32   C     C_R   0.814838 0.171143 0.183487 -0.114554
C33   C     C_R   0.887901 0.265841 0.284839 -0.143732
C34   C     C_R   0.631878 0.928184 0.427040 -0.009129
C35   C     C_R   0.847596 0.316061 0.342508 0.145688
C36   C     C_R   0.733506 0.272945 0.295194 -0.102371
C37   C     C_R   0.660910 0.177523 0.194507 -0.083049
C38   C     C_R   0.701472 0.126336 0.139013 -0.110317
C39   C     C_R   0.923489 0.505928 0.461843 -0.251276
C40   C     C_R   0.302758 0.297484 0.707797 -0.113387
C41   C     C_R   0.998796 0.603282 0.559039 0.072387
C42   C     C_R   0.074296 0.610393 0.653033 0.012331
C43   C     C_R   0.072471 0.515917 0.645051 -0.232930
C44   C     C_R   0.998255 0.418774 0.546084 0.080738
C45   C     C_R   0.728481 0.687185 0.277238 -0.145026
C46   C     C_R   0.923707 0.413659 0.452636 0.001559
C47   C     C_R   0.266055 0.743723 0.814050 -0.172145
C48   C     C_R   0.342722 0.843505 0.909914 -0.111125
C49   C     C_R   0.309405 0.914636 0.950061 -0.086892
C50   C     C_R   0.199037 0.885306 0.895381 -0.140165
C51   C     C_R   0.121670 0.784558 0.801560 -0.135835
C52   C     C_R   0.696714 0.905221 0.495489 -0.130172
C53   C     C_R   0.154766 0.713719 0.758241 0.120267
C54   C     C_2   0.536660 0.464244 0.880821 -0.149056
C55   C     C_2   0.482812 0.372589 0.879014 -0.197762
C56   C     C_R   0.256077 0.036421 0.443082 -0.121320
C57   C     C_2   0.624979 0.560272 0.985527 -0.106181
C58   C     C_2   0.613807 0.578417 0.072871 -0.209555
C59   C     C_R   0.412585 0.258012 0.112124 -0.187713
C60   C     C_R   0.309200 0.182657 0.083947 -0.113477
C61   C     C_R   0.221866 0.203301 0.056905 0.162981
C62   C     C_R   0.240221 0.299991 0.055327 -0.150510
C63   C     C_R   0.343697 0.374540 0.081993 -0.106169
C64   C     C_R   0.911299 0.222010 0.477200 0.544604
C65   C     C_R   0.430111 0.354073 0.112074 -0.107255
C66   C     C_R   0.097802 0.078739 0.091301 0.559927
C67   C     C_R   0.092761 0.788142 0.585320 -0.124182
C68   C     C_R   0.995548 0.034918 0.085136 -0.129737
C69   C     C_R   0.900977 0.015259 0.996745 -0.035381
C70   C     C_R   0.914350 0.054866 0.928070 -0.231616
C71   C     C_R   0.014253 0.093933 0.932316 -0.008195
C72   C     C_R   0.110162 0.123604 0.025643 -0.146297
C73   C     C_R   0.762057 0.824851 0.926795 -0.158115
C74   C     C_R   0.652829 0.741719 0.870571 -0.132778
C75   C     C_R   0.567674 0.763859 0.841353 -0.084880
C76   C     C_R   0.094679 0.065880 0.811269 -0.149486
C77   C     C_R   0.591409 0.868921 0.866148 -0.129985
C78   C     C_R   0.906559 0.981765 0.190917 -0.164804
C79   C     C_R   0.700308 0.951943 0.920436 -0.196381
C80   C     C_R   0.787004 0.931244 0.953241 0.156622
C81   C     C_R   0.007075 0.054794 0.825715 0.098658
C82   C     C_3   0.161182 0.967704 0.123652 -0.270274
C83   C     C_R   0.088999 0.078601 0.283474 -0.115814
H1    H     H_    0.827306 0.944155 0.702983 0.100096
H2    H     H_    0.511438 0.558068 0.282108 0.108729
H3    H     H_    0.482994 0.706280 0.274338 0.116760
H4    H     H_    0.177977 0.378151 0.598782 0.130673
H5    H     H_    0.429209 0.753433 0.545884 0.110663
H6    H     H_    0.447882 0.598039 0.544645 0.105924
H7    H     H_    0.309838 0.798192 0.432924 0.132852
H8    H     H_    0.586893 0.075968 0.419638 0.164766
H9    H     H_    0.486784 0.322603 0.375052 0.125352
H10   H     H_    0.534501 0.440584 0.561388 0.121044
H11   H     H_    0.546624 0.373244 0.692542 0.124452
H12   H     H_    0.265309 0.068424 0.390344 0.127356
H13   H     H_    0.507083 0.186798 0.637607 0.142090
H14   H     H_    0.644571 0.052033 0.061659 0.106962
H15   H     H_    0.334044 0.175317 0.850138 0.104373
H16   H     H_    0.846511 0.132453 0.140183 0.121483
H17   H     H_    0.975499 0.298949 0.319218 0.113554
H18   H     H_    0.700998 0.311171 0.338213 0.098743
H19   H     H_    0.573242 0.142547 0.159967 0.095544
H20   H     H_    0.868537 0.502793 0.389317 0.131888
H21   H     H_    0.128530 0.517537 0.715561 0.135018
H22   H     H_    0.293924 0.690961 0.782311 0.104454
H23   H     H_    0.177847 0.814852 0.637845 0.104982
H24   H     H_    0.428223 0.866277 0.952356 0.108101
H25   H     H_    0.369209 0.992421 0.023297 0.102562
H26   H     H_    0.172886 0.940551 0.924697 0.113621
H27   H     H_    0.662645 0.002459 0.329612 0.143291
H28   H     H_    0.036366 0.762995 0.761257 0.114465
H29   H     H_    0.504631 0.476025 0.811434 0.112424
H30   H     H_    0.519188 0.361749 0.948450 0.141072
H31   H     H_    0.692242 0.620847 0.989053 0.126434
H32   H     H_    0.544115 0.521142 0.068808 0.132891
H33   H     H_    0.511194 0.412354 0.136167 0.090877
H34   H     H_    0.821917 0.953006 0.136215 0.118379
H35   H     H_    0.479208 0.241743 0.133536 0.105766
H36   H     H_    0.297818 0.107618 0.080951 0.149583
H37   H     H_    0.174423 0.317571 0.033392 0.120374
H38   H     H_    0.357221 0.448775 0.080654 0.110201
H39   H     H_    0.330647 0.347729 0.675023 0.084402
H40   H     H_    0.841980 0.037019 0.858661 0.137105
H41   H     H_    0.826896 0.805783 0.946542 0.112176
H42   H     H_    0.633918 0.659607 0.847184 0.100918
H43   H     H_    0.483243 0.699254 0.797674 0.091952
H44   H     H_    0.525324 0.885710 0.841330 0.107194
H45   H     H_    0.170776 0.140518 0.313242 0.157140
H46   H     H_    0.717025 0.032094 0.935140 0.115554
H47   H     H_    0.672579 0.854746 0.529303 0.118572
H48   H     H_    0.180810 0.115761 0.869656 0.124285
H49   H     H_    0.708048 0.623317 0.297081 0.090908
H50   H     H_    0.450999 0.159410 0.256572 0.305897
H51   H     H_    0.099217 0.911344 0.034612 0.114597
H52   H     H_    0.132074 0.936959 0.171661 0.164153
H53   H     H_    0.237406 0.965313 0.138826 0.212202
H54   H     H_    0.806508 0.259177 0.494800 0.306837
H55   H     H_    0.825283 0.642905 0.469247 0.096850
H56   H     H_    0.710279 0.799334 0.121266 0.111049
H57   H     H_    0.284813 0.905632 0.579765 0.096299
H58   H     H_    0.490263 0.500611 0.413700 0.102396
N1    N     N_R   0.941940 0.944580 0.650780 -0.044073
N2    N     N_R   0.204460 0.150250 0.707090 -0.043722
N3    N     N_R   0.794270 0.003240 0.446420 -0.037485
N4    N     N_R   0.204920 0.207570 0.650770 -0.040856
N5    N     N_R   0.793810 0.945920 0.502740 -0.048491
N6    N     N_R   0.943620 0.152590 0.446420 -0.075875
N7    N     N_R   0.055110 0.000900 0.707100 -0.043913
N8    N     N_R   0.795080 0.792430 0.349230 -0.040629
N9    N     N_R   0.206190 0.054080 0.497260 -0.041937
N10   N     N_R   0.056380 0.847410 0.553580 -0.039790
N11   N     N_R   0.944890 0.999100 0.292900 -0.043487
N12   N     N_R   0.058060 0.055420 0.349220 -0.053276
N13   N     N_R   0.943200 0.791100 0.497260 -0.036098
N14   N     N_R   0.795540 0.849750 0.292910 -0.048807
N15   N     N_R   0.205730 0.996760 0.553580 -0.039867
N16   N     N_R   0.056800 0.208900 0.502740 -0.067052
Ni1   Ni    Ni4+2 0.869690 0.869690 0.500000 0.209464
Ni2   Ni    Ni4+2 0.130310 0.130310 0.500000 0.204869
Ni3   Ni    Ni4+2 0.129250 0.998840 0.629170 0.211566
Ni4   Ni    Ni4+2 0.870750 0.001160 0.370830 0.230489
O1    O     O_3   0.443772 0.117788 0.295303 -0.788846
O2    O     O_3   0.185971 0.076115 0.159444 -0.642236
O3    O     O_3   0.804998 0.194675 0.448487 -0.799378

loop_
_geom_bond_atom_site_label_1
_geom_bond_atom_site_label_2
_ccdc_geom_bond_type
C25   C31   A    
C56   H12   S    
C66   C68   A    
C63   C65   A    
C10   H2    S    
C82   H51   S    
C6    C45   A    
N3    Ni4   S    
C27   C29   A    
C41   C42   A    
C6    C58   S    
C35   C36   A    
C83   H45   S    
C64   O3    S    
C3    C6    A    
H50   O1    S    
C78   N11   A    
N2    Ni3   S    
C39   C41   A    
C4    H4    S    
C8    C67   A    
N14   Ni4   S    
C1    H1    S    
C26   C27   A    
C37   C38   A    
C40   N4    A    
C18   C24   A    
C21   C22   A    
C36   C37   A    
N13   Ni1   S    
C42   C53   S    
N7    Ni3   S    
C30   C31   A    
N4    Ni2   S    
C76   H48   S    
C74   H42   S    
C82   O2    S    
C11   H3    S    
C1    C81   A    
C23   C40   A    
C79   H46   S    
C60   H36   S    
C17   H58   S    
C18   C19   A    
C73   C74   A    
N10   N13   A    
C82   H52   S    
C43   H21   S    
C30   H13   S    
C1    N1    A    
C70   H40   S    
C66   C72   A    
C4    N16   A    
C68   C69   A    
C47   H22   S    
C51   H28   S    
C70   C71   A    
C28   N3    A    
C32   C38   A    
C4    C12   A    
C29   C30   A    
N8    Ni1   S    
C62   H37   S    
N11   Ni4   S    
C77   H44   S    
C47   C53   A    
C28   C34   A    
C59   C60   A    
N16   Ni2   S    
N9    N15   A    
C13   C14   A    
C61   C62   A    
C7    C56   A    
N1    Ni1   S    
C38   H14   S    
C63   H38   S    
C44   C46   A    
C49   H25   S    
C77   C79   A    
C22   C34   S    
C74   C75   A    
C67   N10   A    
C2    H55   S    
N1    N7    A    
N15   Ni3   S    
C16   N2    A    
C8    C41   S    
N3    N5    A    
N9    Ni2   S    
C5    C7    A    
C55   H30   S    
C28   H27   S    
C25   C26   A    
C50   H26   S    
C13   C24   S    
C36   H18   S    
C51   C53   A    
C18   H7    S    
N12   Ni2   S    
C43   C44   A    
C62   C63   A    
C15   H6    S    
C47   C48   A    
C25   O1    S    
C73   H41   S    
C78   H34   S    
C3    N14   A    
C50   C51   A    
C54   H29   S    
N11   N12   A    
C39   H20   S    
C75   C77   A    
C9    C83   A    
C39   C46   A    
N5    Ni1   S    
C61   C72   S    
C48   C49   A    
C16   C23   A    
C7    C19   S    
C64   N6    A    
N6    Ni4   S    
C58   H32   S    
C65   H33   S    
C22   C24   A    
C27   H10   S    
C3    H56   S    
C42   C43   A    
C56   N9    A    
N6    N16   A    
C5    H57   S    
C21   H8    S    
N2    N4    A    
C54   C55   D    
C52   N5    A    
C2    C8    A    
C76   C81   A    
H54   O3    S    
C67   H23   S    
C23   C55   S    
C57   H31   S    
C83   N12   A    
C59   H35   S    
C5    N15   A    
C40   H39   S    
C34   C52   A    
C32   H16   S    
C75   H43   S    
C52   H47   S    
C32   C33   A    
C33   H17   S    
C19   C20   A    
N8    N14   A    
C9    C68   S    
C14   H5    S    
C71   C72   A    
C12   C44   S    
N10   Ni3   S    
C11   C13   A    
C16   H15   S    
C57   C58   D    
C37   H19   S    
C12   C64   A    
C33   C35   A    
C73   C80   A    
C29   H11   S    
C66   O2    S    
C45   N8    A    
C9    C78   A    
C82   H53   S    
C69   C70   A    
C10   C11   A    
C79   C80   A    
C48   H24   S    
C20   C21   A    
C76   N7    A    
C45   H49   S    
C2    N13   A    
C49   C50   A    
C14   C15   A    
C60   C61   A    
C69   C80   S    
C10   C17   A    
C15   C17   A    
C35   C46   S    
C26   H9    S    
C54   C57   S    
C59   C65   A    
C71   C81   S    
C20   C31   S    
