data_mof_unit_39992.cif
_audit_creation_date              2012-12-10T19:25:52-0500
_audit_creation_method            fapswitch 2.2
_symmetry_space_group_name_H-M    P1
_symmetry_Int_Tables_number       1
_space_group_crystal_system       triclinic
_cell_length_a                    9.768363
_cell_length_b                    10.531664
_cell_length_c                    16.831029
_cell_angle_alpha                 89.045012
_cell_angle_beta                  84.07889
_cell_angle_gamma                 89.398759
_cell_volume                      1721.98357558

loop_
_atom_site_label
_atom_site_type_symbol
_atom_type_description
_atom_site_fract_x
_atom_site_fract_y
_atom_site_fract_z
_atom_type_partial_charge
C1    C     C_R   0.500290 0.742094 0.494521 0.872441
C2    C     C_R   0.500093 0.257549 0.503858 0.879453
C3    C     C_3   0.432333 0.968804 0.436547 0.058170
C4    C     C_3   0.568686 0.030286 0.559760 0.050019
C5    C     C_3   0.563306 0.050339 0.430480 -0.232254
C6    C     C_3   0.437708 0.949208 0.566017 -0.229238
C7    C     C_3   0.501696 0.122325 0.504057 -0.037266
C8    C     C_3   0.499483 0.877087 0.492327 -0.035567
C9    C     C_3   0.369786 0.043128 0.509804 -0.165065
C10   C     C_3   0.630859 0.956168 0.486427 -0.172453
C11   C     C_3   0.945677 0.599728 0.533150 0.502948
C12   C     C_3   0.054217 0.400391 0.467054 0.487796
C13   C     C_3   0.054878 0.598053 0.461315 -0.184785
C14   C     C_3   0.945149 0.402140 0.538741 -0.214188
C15   C     C_3   0.036003 0.502834 0.572203 -0.188927
C16   C     C_3   0.963912 0.497038 0.428009 -0.174093
C17   C     C_R   0.479728 0.494405 0.652964 0.842533
C18   C     C_R   0.520146 0.499746 0.346597 0.844360
C19   C     C_R   0.467384 0.453416 0.736590 -0.077528
C20   C     C_R   0.529847 0.488996 0.259399 -0.092691
C21   C     C_R   0.573700 0.374746 0.760365 -0.189645
C22   C     C_R   0.411354 0.445138 0.227706 -0.189083
C23   C     C_R   0.567752 0.326355 0.837341 -0.127328
C24   C     C_R   0.409479 0.430335 0.146682 -0.134975
C25   C     C_R   0.454705 0.354028 0.891357 0.165123
C26   C     C_R   0.526816 0.456254 0.095250 0.158726
C27   C     C_R   0.343836 0.425099 0.867723 -0.160833
C28   C     C_R   0.645513 0.499752 0.124872 -0.153390
C29   C     C_R   0.349104 0.477762 0.790608 0.011488
C30   C     C_R   0.649861 0.516590 0.206912 -0.023398
C31   C     C_2   0.472683 0.346532 0.975556 0.218005
C32   C     C_2   0.521244 0.449716 0.009494 0.228568
H1    H     H_    0.663526 0.351805 0.719658 0.169175
H2    H     H_    0.318380 0.421478 0.265594 0.200576
H3    H     H_    0.071610 0.504709 0.632443 0.174270
H4    H     H_    0.927366 0.485031 0.368717 0.188803
H5    H     H_    0.259986 0.450403 0.912164 0.143925
H6    H     H_    0.734480 0.522821 0.083338 0.169883
H7    H     H_    0.315478 0.400159 0.123929 0.160467
H8    H     H_    0.655858 0.275659 0.856628 0.148411
H9    H     H_    0.615386 0.095326 0.375463 0.157944
H10   H     H_    0.385450 0.902916 0.620296 0.131473
H11   H     H_    0.263455 0.081107 0.522031 0.180970
H12   H     H_    0.737581 0.918690 0.475003 0.187326
H13   H     H_    0.105725 0.681491 0.430298 0.149565
H14   H     H_    0.893787 0.322035 0.572307 0.148831
N1    N     N_3   0.136700 0.499970 0.500060 -0.108742
N2    N     N_3   0.863300 0.500030 0.499940 -0.110980
O1    O     O_R   0.383390 0.686040 0.500000 -0.621637
O2    O     O_R   0.616610 0.313960 0.500000 -0.630057
O3    O     O_R   0.616650 0.686050 0.499970 -0.567797
O4    O     O_R   0.383350 0.313950 0.500030 -0.568269
O5    O     O_R   0.369590 0.500020 0.615820 -0.618802
O6    O     O_R   0.630410 0.499980 0.384180 -0.617005
O7    O     O_R   0.602840 0.500020 0.615790 -0.585449
O8    O     O_R   0.397160 0.499980 0.384210 -0.595319
Zn1   Zn    Zn3+2 0.344250 0.499990 0.500020 0.989360
Zn2   Zn    Zn3+2 0.655750 0.500010 0.499980 0.989882
Cl1   Cl    Cl    0.869866 0.737023 0.580193 -0.665870
Cl2   Cl    Cl    0.130173 0.266585 0.416557 -0.686206
C33   C     C_R   0.779640 0.566850 0.232302 0.120913
C34   C     C_R   0.779659 0.676424 0.278786 -0.083409
C35   C     C_R   0.903822 0.729200 0.295876 -0.155737
C36   C     C_R   0.028950 0.674245 0.265452 -0.144643
C37   C     C_R   0.030124 0.566605 0.218316 -0.124310
C38   C     C_R   0.906421 0.512531 0.202176 -0.165616
H15   H     H_    0.683868 0.720357 0.302029 0.099093
H16   H     H_    0.902773 0.811650 0.333429 0.131114
H17   H     H_    0.125252 0.712176 0.280098 0.152158
H18   H     H_    0.126791 0.524284 0.194944 0.138676
H19   H     H_    0.909500 0.428650 0.165634 0.142782
C39   C     C_R   0.236508 0.566523 0.772756 0.131661
C40   C     C_R   0.266037 0.689933 0.742963 -0.095185
C41   C     C_R   0.159187 0.776529 0.733202 -0.141738
C42   C     C_R   0.022468 0.741279 0.753549 -0.036239
C43   C     C_R   0.991910 0.619019 0.783037 -0.113784
C44   C     C_R   0.098220 0.532076 0.792877 -0.217350
H20   H     H_    0.371582 0.720119 0.729188 0.120091
H21   H     H_    0.182133 0.871777 0.711079 0.125193
H22   H     H_    0.940150 0.808847 0.746618 0.180502
H23   H     H_    0.885857 0.591712 0.798569 0.180331
H24   H     H_    0.072733 0.437954 0.816413 0.139346
Cl3   Cl    Cl    0.572876 0.587835 0.952580 -0.652053
Cl4   Cl    Cl    0.439337 0.200525 0.026693 -0.654076
C45   C     C_R   0.362643 0.942789 0.362887 0.111483
C46   C     C_R   0.221415 0.967338 0.361266 -0.086827
C47   C     C_R   0.162816 0.966201 0.288931 -0.139039
C48   C     C_R   0.243198 0.934674 0.218349 -0.090865
C49   C     C_R   0.382487 0.904722 0.220025 -0.078703
C50   C     C_R   0.442319 0.910125 0.291816 -0.196425
H25   H     H_    0.157184 0.991106 0.415266 0.161636
H26   H     H_    0.054919 0.989431 0.287599 0.147986
H27   H     H_    0.197344 0.932786 0.162529 0.160713
H28   H     H_    0.444934 0.880640 0.165362 0.172297
H29   H     H_    0.551887 0.894943 0.291284 0.121819
C51   C     C_R   0.651797 0.056695 0.627966 0.123688
C52   C     C_R   0.596964 0.034321 0.707395 -0.135102
C53   C     C_R   0.680241 0.044977 0.769661 -0.107989
C54   C     C_R   0.818082 0.079624 0.753323 -0.154334
C55   C     C_R   0.873163 0.102644 0.674568 -0.149107
C56   C     C_R   0.790521 0.090805 0.612074 -0.101313
H30   H     H_    0.490661 0.007015 0.721405 0.123371
H31   H     H_    0.637735 0.026670 0.830687 0.169905
H32   H     H_    0.882268 0.088139 0.801638 0.140454
H33   H     H_    0.980273 0.128386 0.661820 0.134397
H34   H     H_    0.835518 0.105417 0.551107 0.142583

loop_
_geom_bond_atom_site_label_1
_geom_bond_atom_site_label_2
_ccdc_geom_bond_type
C25   C31   S    
C47   C48   A    
C26   C32   S    
C27   C29   A    
C1    C8    S    
C40   C41   A    
C2    C7    S    
C15   N1    S    
C16   N2    S    
C6    C9    S    
C52   C53   A    
C50   H29   S    
C14   H14   S    
C20   C30   A    
C45   C46   A    
C55   H33   S    
C34   C35   A    
C34   H15   S    
C19   C21   A    
C24   C26   A    
C46   H25   S    
C4    C7    S    
C3    C45   S    
C23   H8    S    
C24   H7    S    
O1    Zn1   S    
O8    Zn1   S    
C49   H28   S    
C2    O2    A    
C4    C51   S    
C11   C15   S    
C33   C38   A    
C31   C32   D    
C53   H31   S    
C40   H20   S    
C42   H22   S    
C17   O7    A    
C52   H30   S    
C18   O8    A    
C29   C39   S    
C54   H32   S    
C47   H26   S    
C11   N2    S    
C12   N1    S    
C11   Cl1   S    
C15   H3    S    
C22   H2    S    
C9    H11   S    
C41   C42   A    
C10   H12   S    
O2    Zn2   S    
C12   C16   S    
C43   C44   A    
C4    C6    S    
C3    C8    S    
C13   N1    S    
O5    Zn1   S    
C46   C47   A    
C6    C8    S    
C31   Cl4   S    
C42   C43   A    
C39   C44   A    
C3    C9    S    
N1    Zn1   S    
C38   H19   S    
C28   H6    S    
C51   C52   A    
O3    Zn2   S    
C36   H17   S    
C1    O3    A    
C2    O4    A    
C12   C14   S    
C37   C38   A    
C41   H21   S    
C21   C23   A    
C22   C24   A    
C13   C16   S    
C4    C10   S    
C19   C29   A    
C17   O5    A    
C5    C7    S    
O6    Zn2   S    
C56   H34   S    
C7    C9    S    
C32   Cl3   S    
C5    H9    S    
C48   H27   S    
C20   C22   A    
C39   C40   A    
C3    C5    S    
C43   H23   S    
C14   N2    S    
C45   C50   A    
N2    Zn2   S    
C25   C27   A    
C35   H16   S    
C26   C28   A    
C54   C55   A    
C36   C37   A    
C28   C30   A    
C5    C10   S    
C16   H4    S    
C13   H13   S    
C11   C13   S    
O7    Zn2   S    
C44   H24   S    
C27   H5    S    
C55   C56   A    
C17   C19   S    
C18   C20   S    
C23   C25   A    
C33   C34   A    
O4    Zn1   S    
C18   O6    A    
C35   C36   A    
C12   Cl2   S    
C21   H1    S    
C48   C49   A    
C8    C10   S    
C53   C54   A    
C6    H10   S    
C30   C33   S    
C14   C15   S    
C49   C50   A    
C51   C56   A    
C1    O1    A    
C37   H18   S    
