data_mof_unit_16470.cif
_audit_creation_date              2012-12-11T16:25:29-0500
_audit_creation_method            fapswitch 2.2
_symmetry_space_group_name_H-M    P1
_symmetry_Int_Tables_number       1
_space_group_crystal_system       triclinic
_cell_length_a                    20.55068
_cell_length_b                    7.273436
_cell_length_c                    13.30414
_cell_angle_alpha                 89.999958
_cell_angle_beta                  103.604238
_cell_angle_gamma                 90.000017
_cell_volume                      1932.83015036

loop_
_atom_site_label
_atom_site_type_symbol
_atom_type_description
_atom_site_fract_x
_atom_site_fract_y
_atom_site_fract_z
_atom_type_partial_charge
O1    O     O_R   0.449520 0.506760 0.599710 -0.552284
O2    O     O_R   0.550480 0.006760 0.400290 -0.552284
O3    O     O_R   0.587930 0.180200 0.595790 -0.533182
O4    O     O_R   0.412070 0.680200 0.404210 -0.533182
C1    C     C_R   0.614428 0.345436 0.618907 0.720257
C2    C     C_R   0.385572 0.845436 0.381093 0.720255
O5    O     O_R   0.452350 0.177380 0.611700 -0.513028
O6    O     O_R   0.547650 0.677380 0.388300 -0.513029
O7    O     O_R   0.413930 0.001760 0.416320 -0.549549
O8    O     O_R   0.586070 0.501760 0.583680 -0.549549
C3    C     C_R   0.432582 0.345080 0.633588 0.704752
C4    C     C_R   0.567418 0.845080 0.366412 0.704751
O9    O     O_3   0.487550 0.337460 0.435880 -0.382223
O10   O     O_3   0.512450 0.837460 0.564120 -0.382223
V1    V     V_3+5 0.502310 0.064670 0.511900 1.480415
V2    V     V_3+5 0.497690 0.564670 0.488100 1.480415
C5    C     C_R   0.618595 0.961642 0.117960 -0.073636
C6    C     C_R   0.381406 0.461638 0.882041 -0.073635
H1    H     H_    0.704813 0.005554 0.994863 0.127468
H2    H     H_    0.295187 0.505547 0.005138 0.127468
C7    C     C_R   0.609113 0.857091 0.288585 -0.124779
C8    C     C_R   0.390887 0.357090 0.711415 -0.124780
C9    C     C_R   0.934002 0.823096 0.321643 -0.177221
C10   C     C_R   0.065998 0.323099 0.678357 -0.177221
C11   C     C_R   0.900088 0.816792 0.400305 -0.124996
C12   C     C_R   0.099912 0.316796 0.599695 -0.124996
C13   C     C_R   0.830791 0.837816 0.378072 -0.106386
C14   C     C_R   0.169209 0.337818 0.621929 -0.106386
C15   C     C_R   0.792714 0.860858 0.275282 0.078515
C16   C     C_R   0.207286 0.360858 0.724718 0.078515
C17   C     C_R   0.829000 0.883364 0.196819 0.047002
C18   C     C_R   0.171000 0.383363 0.803181 0.047002
C19   C     C_R   0.720520 0.872086 0.248263 0.079203
C20   C     C_R   0.279480 0.372085 0.751738 0.079204
C21   C     C_R   0.688760 0.937373 0.147224 0.070215
C22   C     C_R   0.311240 0.437370 0.852777 0.070215
C23   C     C_R   0.727044 0.965234 0.073654 -0.202573
C24   C     C_R   0.272956 0.465229 0.926346 -0.202573
C25   C     C_R   0.794918 0.932988 0.096878 -0.203902
C26   C     C_R   0.205082 0.432984 0.903123 -0.203902
C27   C     C_R   0.678378 0.816993 0.315417 -0.086862
C28   C     C_R   0.321622 0.316993 0.684583 -0.086863
C29   C     C_R   0.579480 0.919813 0.188584 0.023517
C30   C     C_R   0.420520 0.419810 0.811417 0.023518
C31   C     C_R   0.899304 0.858809 0.220079 -0.072231
C32   C     C_R   0.100696 0.358810 0.779921 -0.072230
H3    H     H_    0.987752 0.805260 0.340629 0.100734
H4    H     H_    0.012248 0.305265 0.659370 0.100735
H5    H     H_    0.808731 0.843175 0.443764 0.116334
H6    H     H_    0.191270 0.343178 0.556236 0.116334
H7    H     H_    0.927778 0.797232 0.479515 0.122389
H8    H     H_    0.072222 0.297238 0.520485 0.122389
H9    H     H_    0.820700 0.952138 0.035432 0.136268
H10   H     H_    0.179300 0.452133 0.964569 0.136267
H11   H     H_    0.109118 0.672087 0.472532 0.117486
H12   H     H_    0.890882 0.172084 0.527469 0.117486
C33   C     C_R   0.228630 0.928186 0.037495 -0.229563
C34   C     C_R   0.771370 0.428188 0.962505 -0.229563
C35   C     C_R   0.281997 0.984410 0.996936 -0.001195
C36   C     C_R   0.718003 0.484414 0.003063 -0.001194
C37   C     C_R   0.341471 0.038869 0.064667 -0.093793
C38   C     C_R   0.658529 0.538873 0.935333 -0.093795
C39   C     C_R   0.351442 0.008289 0.171064 -0.130858
C40   C     C_R   0.648559 0.508292 0.828935 -0.130858
C41   C     C_R   0.301869 0.922344 0.211498 0.061715
C42   C     C_R   0.698131 0.422346 0.788502 0.061716
C43   C     C_R   0.237015 0.902616 0.145139 0.068444
C44   C     C_R   0.762985 0.402618 0.854861 0.068444
C45   C     C_R   0.315234 0.856484 0.315127 -0.183487
C46   C     C_R   0.684766 0.356484 0.684873 -0.183487
C47   C     C_R   0.260401 0.797984 0.355134 0.047170
C48   C     C_R   0.739599 0.297983 0.644866 0.047170
C49   C     C_R   0.193795 0.801792 0.291605 0.067555
C50   C     C_R   0.806205 0.301791 0.708395 0.067555
C51   C     C_R   0.182218 0.854012 0.186272 -0.162298
C52   C     C_R   0.817782 0.354012 0.813728 -0.162298
C53   C     C_R   0.270094 0.744097 0.459593 -0.108138
C54   C     C_R   0.729906 0.244095 0.540408 -0.108138
C55   C     C_R   0.215823 0.701692 0.501259 -0.058132
C56   C     C_R   0.784177 0.201690 0.498742 -0.058133
C57   C     C_R   0.151037 0.705536 0.439545 -0.131732
C58   C     C_R   0.848963 0.205533 0.560455 -0.131732
C59   C     C_R   0.139976 0.753290 0.335502 -0.142072
C60   C     C_R   0.860024 0.253289 0.664499 -0.142072
H13   H     H_    0.181467 0.896921 0.983957 0.108216
H14   H     H_    0.818532 0.396923 0.016043 0.108216
H15   H     H_    0.380325 0.101534 0.034051 0.170147
H16   H     H_    0.619676 0.601540 0.965947 0.170147
H17   H     H_    0.398194 0.050853 0.221401 0.137613
H18   H     H_    0.601806 0.550855 0.778598 0.137614
H19   H     H_    0.319325 0.741058 0.511366 0.117598
H20   H     H_    0.680675 0.241057 0.488634 0.117598
H21   H     H_    0.224254 0.669189 0.582603 0.132536
H22   H     H_    0.775746 0.169186 0.417397 0.132536
H23   H     H_    0.088941 0.753487 0.289984 0.089885
H24   H     H_    0.911059 0.253485 0.710016 0.089886
O11   O     O_R   0.913760 0.203480 0.916370 -0.537630
O12   O     O_R   0.086240 0.703480 0.083630 -0.537630
O13   O     O_R   0.047590 0.535230 0.888250 -0.540883
O14   O     O_R   0.952410 0.035230 0.111750 -0.540882
C61   C     C_R   0.062638 0.368090 0.860631 0.672789
C62   C     C_R   0.937362 0.868090 0.139369 0.672789
O15   O     O_R   0.912020 0.532880 0.904260 -0.534760
O16   O     O_R   0.087980 0.032880 0.095740 -0.534760
O17   O     O_R   0.949590 0.708460 0.099750 -0.537165
O18   O     O_R   0.050410 0.208460 0.900250 -0.537165
C63   C     C_R   0.886740 0.364035 0.881065 0.684445
C64   C     C_R   0.113260 0.864035 0.118935 0.684444
O19   O     O_3   0.012370 0.375360 0.064120 -0.377490
O20   O     O_3   0.987630 0.875360 0.935880 -0.377490
V3    V     V_3+5 0.997700 0.648160 0.988110 1.418397
V4    V     V_3+5 0.002300 0.148160 0.011890 1.418397
C65   C     C_2   0.506335 0.932142 0.155591 0.398113
H25   H     H_    0.483872 0.050900 0.112381 0.080516
O21   O     O_2   0.471586 0.805937 0.173439 -0.536887
C66   C     C_2   0.493665 0.432139 0.844410 0.398113
H26   H     H_    0.516128 0.550894 0.887622 0.080516
O22   O     O_2   0.528415 0.305936 0.826560 -0.536887
C67   C     C_2   0.275405 0.981059 0.884047 0.396456
H27   H     H_    0.226565 0.963191 0.831856 0.067561
O23   O     O_2   0.324752 0.991805 0.848131 -0.506625
C68   C     C_2   0.724594 0.481063 0.115952 0.396456
H28   H     H_    0.773434 0.463195 0.168144 0.067562
O24   O     O_2   0.675248 0.491809 0.151868 -0.506625
C69   C     C_2   0.586022 0.031246 0.012838 0.379813
H29   H     H_    0.606801 0.149748 0.982097 0.115657
O25   O     O_2   0.537199 0.954216 0.959302 -0.511492
C70   C     C_2   0.413978 0.531240 0.987163 0.379809
H30   H     H_    0.393199 0.649740 0.017905 0.115658
O26   O     O_2   0.462802 0.454209 0.040698 -0.511494
C71   C     C_2   0.701092 0.687372 0.402457 0.389144
H31   H     H_    0.684370 0.702253 0.473564 0.017442
O27   O     O_2   0.736292 0.556550 0.392976 -0.518714
C72   C     C_2   0.298907 0.187373 0.597543 0.389144
H32   H     H_    0.315630 0.202254 0.526436 0.017442
O28   O     O_2   0.263707 0.056552 0.607023 -0.518715

loop_
_geom_bond_atom_site_label_1
_geom_bond_atom_site_label_2
_ccdc_geom_bond_type
C2    C45   S    
C42   C44   A    
C39   C41   A    
C9    C31   A    
C13   C15   A    
O1    C3    A    
C40   H18   S    
O2    C4    A    
C70   H30   S    
C2    O7    A    
C5    C29   A    
O18   V4    S    
O5    C3    A    
C25   H9    S    
C50   C52   A    
O15   V3    S    
C21   C23   A    
C10   C12   A    
C55   H21   S    
C12   H8    S    
C54   C56   A    
C33   C35   A    
C34   C36   A    
C15   C19   A    
O12   C64   A    
C66   H26   S    
C62   O17   A    
C36   C38   A    
C60   H24   S    
C45   C47   A    
O20   V3    S    
C58   C60   A    
C48   C54   A    
C37   H15   S    
C71   O27   D    
C6    C70   S    
C7    C29   A    
C14   H6    S    
C8    C30   A    
C66   O22   D    
C14   C16   A    
C41   C43   A    
C20   C28   A    
C38   C40   A    
H11   C57   S    
H1    C23   S    
O16   C64   A    
C53   C55   A    
O17   V3    S    
C59   H23   S    
C51   C64   S    
O6    V2    S    
C24   C26   A    
C49   C51   A    
C33   C43   A    
C34   H14   S    
C57   C59   A    
C67   O23   D    
C32   C61   S    
C35   C37   A    
C9    H3    S    
C16   C20   A    
C10   H4    S    
C48   C50   A    
O19   V4    S    
C27   C71   S    
O11   V4    S    
C72   O28   D    
C54   H20   S    
C38   H16   S    
C4    C7    S    
C40   C42   A    
O4    V2    S    
C11   H7    S    
C1    C46   S    
C69   O25   D    
C6    C30   A    
H2    C24   S    
O6    C4    A    
O13   V3    S    
C39   H17   S    
O14   C62   A    
O1    V2    S    
C36   C68   S    
O2    V1    S    
C7    C27   A    
C56   C58   A    
O13   C61   A    
O14   V4    S    
C52   C63   S    
C26   H10   S    
C69   H29   S    
O4    C2    A    
C11   C13   A    
C56   H22   S    
C71   H31   S    
C47   C53   A    
O3    V1    S    
O16   V4    S    
C65   H25   S    
C34   C44   A    
C61   O18   A    
C53   H19   S    
C35   C67   S    
O12   V3    S    
C18   C32   A    
C37   C39   A    
C50   C60   A    
O3    C1    A    
C70   O26   D    
C46   C48   A    
C67   H27   S    
C55   C57   A    
H12   C58   S    
C72   H32   S    
C44   C52   A    
C42   C46   A    
C3    C8    S    
C12   C14   A    
C28   C72   S    
C19   C27   A    
C22   C24   A    
O7    V1    S    
C10   C32   A    
C1    O8    A    
C23   C25   A    
O8    V2    S    
C29   C65   S    
C16   C18   A    
C5    C69   S    
C8    C28   A    
C6    C22   A    
C41   C45   A    
O5    V1    S    
C19   C21   A    
C33   H13   S    
C20   C22   A    
C18   C26   A    
C31   C62   S    
O11   C63   A    
C9    C11   A    
C43   C51   A    
C30   C66   S    
C15   C17   A    
C17   C31   A    
O9    V2    S    
C47   C49   A    
C17   C25   A    
O10   V1    S    
O15   C63   A    
C5    C21   A    
C68   H28   S    
C68   O24   D    
C49   C59   A    
C13   H5    S    
C65   O21   D    
