data_mof_unit_16066.cif
_audit_creation_date              2012-12-11T15:12:24-0500
_audit_creation_method            fapswitch 2.2
_symmetry_space_group_name_H-M    P1
_symmetry_Int_Tables_number       1
_space_group_crystal_system       triclinic
_cell_length_a                    8.402789
_cell_length_b                    17.286639
_cell_length_c                    19.1153
_cell_angle_alpha                 93.499214
_cell_angle_beta                  94.366329
_cell_angle_gamma                 96.085058
_cell_volume                      2746.25887517

loop_
_atom_site_label
_atom_site_type_symbol
_atom_type_description
_atom_site_fract_x
_atom_site_fract_y
_atom_site_fract_z
_atom_type_partial_charge
Ba1   Ba    Ba6+2 0.157360 0.537160 0.466280 1.629693
Ba2   Ba    Ba6+2 0.652820 0.462830 0.533660 1.629472
C1    C     C_3   0.418389 0.760159 0.212720 -0.415582
C2    C     C_R   0.859825 0.748419 0.514093 0.068131
C3    C     C_R   0.908373 0.828671 0.529928 -0.125756
C4    C     C_3   0.883175 0.741344 0.249631 0.568611
C5    C     C_R   0.807923 0.885058 0.508260 -0.001816
C6    C     C_R   0.652724 0.859913 0.476102 -0.150606
C7    C     C_R   0.604804 0.780012 0.459686 0.024214
C8    C     C_R   0.888409 0.175001 0.489209 -0.138532
C9    C     C_R   0.949522 0.254581 0.491911 0.034006
C10   C     C_R   0.193787 0.224497 0.557112 -0.025864
C11   C     C_R   0.134065 0.144978 0.552363 -0.138300
C12   C     C_3   0.402707 0.722460 0.282071 0.370280
C13   C     C_R   0.979330 0.119871 0.520202 0.014106
C14   C     C_1   0.916804 0.037329 0.517547 -0.010216
C15   C     C_1   0.866749 0.968191 0.514688 -0.009835
C16   C     C_3   0.879246 0.783380 0.179406 0.147571
C17   C     C_R   0.098593 0.278811 0.528952 -0.269103
C18   C     C_R   0.619122 0.522036 0.294689 -0.218914
C19   C     C_R   0.463494 0.488623 0.274420 0.067759
C20   C     C_R   0.408488 0.481031 0.202781 -0.124559
C21   C     C_R   0.509348 0.508314 0.151751 -0.011289
C22   C     C_R   0.665562 0.544481 0.173963 -0.162568
C23   C     C_3   0.522820 0.712110 0.685409 0.375039
C24   C     C_R   0.718523 0.553223 0.246062 0.012773
C25   C     C_R   0.402010 0.559011 0.036442 0.207120
C26   C     C_R   0.339582 0.543005 0.965686 -0.080917
C27   C     C_R   0.337946 0.468897 0.931370 0.026458
C28   C     C_3   0.685518 0.289528 0.317452 0.502685
C29   C     C_R   0.388041 0.408065 0.970003 -0.099441
C30   C     C_R   0.441616 0.421708 0.041494 -0.119190
C31   C     C_R   0.451650 0.496955 0.075440 0.027474
C32   C     C_R   0.136273 0.421522 0.827630 -0.016224
C33   C     C_R   0.090805 0.418734 0.754539 -0.006646
C34   C     C_3   0.523606 0.779413 0.742189 -0.345512
C35   C     C_R   0.351733 0.484731 0.732794 0.098887
C36   C     C_R   0.398203 0.490665 0.806303 -0.003909
C37   C     C_R   0.291675 0.457288 0.853827 0.008438
C38   C     C_R   0.201771 0.446018 0.708179 -0.292619
C39   C     C_3   0.690984 0.202651 0.298467 -0.396867
C40   C     C_3   0.040013 0.615907 0.675058 0.299249
C41   C     C_3   0.081415 0.631895 0.754124 -0.396490
C42   C     C_3   0.264780 0.305015 0.383939 0.327244
C43   C     C_3   0.244146 0.216474 0.368194 -0.037951
C44   C     C_3   0.155532 0.181441 0.243745 -0.203529
C45   C     C_3   0.880621 0.242496 0.685825 0.390928
C46   C     C_3   0.695356 0.702103 0.673524 -0.245759
C47   C     C_3   0.435523 0.734794 0.618176 -0.273989
C48   C     C_3   0.505374 0.233674 0.831506 -0.343888
C49   C     C_3   0.819103 0.854947 0.323725 -0.322020
C50   C     C_3   0.669477 0.643564 0.444695 -0.267531
C51   C     C_3   0.555257 0.536652 0.836178 -0.327964
C52   C     C_3   0.455087 0.700316 0.026143 -0.280578
C53   C     C_3   0.015921 0.389284 0.876428 -0.383701
C54   C     C_3   0.025379 0.843521 0.174113 -0.338053
C55   C     C_3   0.978686 0.689541 0.090015 -0.189342
C56   C     C_3   0.850108 0.159528 0.707742 -0.377440
C57   C     C_3   0.781476 0.348764 0.210652 -0.183573
C58   C     C_3   0.351705 0.193788 0.712196 0.326935
C59   C     C_3   0.342406 0.226138 0.788290 -0.180313
C60   C     C_R   0.713629 0.725568 0.474119 -0.201630
H1    H     H_    0.303358 0.673578 0.275466 0.097817
H2    H     H_    0.148750 0.324845 0.396364 0.029845
H3    H     H_    0.354696 0.319146 0.429852 0.020295
H4    H     H_    0.322054 0.733265 0.173612 0.107903
H5    H     H_    0.218862 0.188132 0.417114 0.018082
H6    H     H_    0.358099 0.196287 0.351838 0.068076
H7    H     H_    0.517185 0.698087 0.296355 -0.066289
H8    H     H_    0.534609 0.751013 0.192148 0.064943
H9    H     H_    0.587518 0.765441 0.792140 0.104808
H10   H     H_    0.583705 0.834868 0.725355 0.071604
H11   H     H_    0.398883 0.788872 0.753167 0.105528
H12   H     H_    0.708822 0.171581 0.346769 0.065031
H13   H     H_    0.412029 0.823898 0.218684 0.141237
H14   H     H_    0.775093 0.817993 0.178349 0.030109
H15   H     H_    0.826022 0.244478 0.631240 0.074542
H16   H     H_    0.012647 0.258339 0.687481 -0.093376
H17   H     H_    0.718924 0.140950 0.704723 0.133827
H18   H     H_    0.906966 0.119374 0.672236 0.068640
H19   H     H_    0.902341 0.156159 0.762510 0.099352
H20   H     H_    0.229341 0.190662 0.685929 -0.071237
H21   H     H_    0.386015 0.133194 0.712457 0.008081
H22   H     H_    0.297356 0.284560 0.787561 0.093773
H23   H     H_    0.575982 0.177012 0.269594 0.067276
H24   H     H_    0.254858 0.186354 0.814049 0.055812
H25   H     H_    0.770550 0.156015 0.463395 0.072148
H26   H     H_    0.572240 0.902203 0.461157 0.080809
H27   H     H_    0.207921 0.102906 0.573688 0.053483
H28   H     H_    0.023783 0.847002 0.558636 0.075364
H29   H     H_    0.145327 0.339797 0.532023 0.065196
H30   H     H_    0.295201 0.588674 0.935838 0.068290
H31   H     H_    0.759960 0.712831 0.253920 -0.134044
H32   H     H_    0.289606 0.451988 0.186628 0.080501
H33   H     H_    0.385047 0.350026 0.944743 0.074398
H34   H     H_    0.790350 0.193502 0.265094 0.128606
H35   H     H_    0.477730 0.373476 0.070383 0.070557
H36   H     H_    0.746353 0.563314 0.135417 0.069053
H37   H     H_    0.164087 0.445056 0.652670 0.052856
H38   H     H_    0.666230 0.519737 0.348429 0.056221
H39   H     H_    0.583844 0.295112 0.349615 0.047961
H40   H     H_    0.031579 0.148611 0.329144 0.189101
H41   H     H_    0.223857 0.130035 0.238916 0.086442
H42   H     H_    0.229041 0.233693 0.228197 0.139312
H43   H     H_    0.045077 0.170958 0.207151 0.084463
H44   H     H_    0.762698 0.758989 0.664088 0.054131
H45   H     H_    0.142187 0.593182 0.650651 0.034715
H46   H     H_    0.752818 0.678363 0.720395 0.102294
H47   H     H_    0.697958 0.662099 0.626383 0.083248
H48   H     H_    0.429791 0.687239 0.576262 0.116242
H49   H     H_    0.313872 0.747968 0.629543 0.140498
H50   H     H_    0.498703 0.788127 0.599106 0.027893
H51   H     H_    0.488474 0.242570 0.888192 0.084663
H52   H     H_    0.565590 0.179962 0.823692 0.117989
H53   H     H_    0.583781 0.284738 0.816200 0.191044
H54   H     H_    0.963346 0.771049 0.355146 0.219594
H55   H     H_    0.867776 0.893403 0.370830 0.138254
H56   H     H_    0.933892 0.571489 0.666437 0.077917
H57   H     H_    0.698815 0.825901 0.332026 0.115458
H58   H     H_    0.807448 0.893329 0.279790 0.107127
H59   H     H_    0.760949 0.607461 0.438865 0.161446
H60   H     H_    0.586126 0.612102 0.478375 0.146529
H61   H     H_    0.632361 0.644691 0.388286 0.032144
H62   H     H_    0.623154 0.500389 0.871108 0.111469
H63   H     H_    0.635652 0.556197 0.796361 0.147614
H64   H     H_    0.530837 0.590176 0.866563 0.084337
H65   H     H_    0.464195 0.643343 0.118624 0.190528
H66   H     H_    0.482016 0.755274 0.059923 0.113429
H67   H     H_    0.180328 0.679896 0.764694 0.150633
H68   H     H_    0.354988 0.708788 0.987189 0.114306
H69   H     H_    0.563701 0.689726 0.999225 0.118906
H70   H     H_    0.063863 0.392426 0.932180 0.109353
H71   H     H_    0.909931 0.422507 0.873987 0.125796
H72   H     H_    0.976847 0.326961 0.860402 0.119276
H73   H     H_    0.026051 0.894301 0.212388 0.104248
H74   H     H_    0.137002 0.817510 0.184935 0.136811
H75   H     H_    0.022532 0.865808 0.120793 0.099908
H76   H     H_    0.741411 0.693907 0.115970 0.178194
H77   H     H_    0.081169 0.731824 0.079900 0.114860
H78   H     H_    0.118677 0.579415 0.777951 0.059873
H79   H     H_    0.020389 0.646587 0.126016 0.145995
H80   H     H_    0.934425 0.657792 0.038927 0.087128
H81   H     H_    0.544076 0.308997 0.226212 0.165670
H82   H     H_    0.736269 0.379377 0.164936 0.081142
H83   H     H_    0.829647 0.294981 0.190391 0.087796
H84   H     H_    0.879072 0.388575 0.240614 0.167891
H85   H     H_    0.976093 0.648800 0.780442 0.091329
N1    N     N_2   0.111998 0.193130 0.315113 -0.406476
N2    N     N_2   0.927961 0.797059 0.310117 -0.416053
N3    N     N_2   0.409839 0.636179 0.068518 -0.438041
N4    N     N_2   0.848961 0.728566 0.117524 -0.434420
N5    N     N_2   0.651235 0.329766 0.254313 -0.441982
O1    O     O_2   0.143190 0.684560 0.534150 -0.453298
O2    O     O_2   0.761549 0.438742 0.750303 -0.488115
O3    O     O_3   0.809904 0.292741 0.731684 -0.577467
O4    O     O_3   0.882350 0.590230 0.535560 -0.510004
O5    O     O_3   0.431150 0.462160 0.416880 -0.496652
O6    O     O_2   0.634060 0.535220 0.669530 -0.479082
O7    O     O_3   0.440085 0.645851 0.711741 -0.651387
O8    O     O_2   0.525363 0.225652 0.547659 -0.494358
O9    O     O_3   0.469111 0.240924 0.679975 -0.557035
O10   O     O_3   0.372640 0.639320 0.408320 -0.498513
O11   O     O_2   0.268753 0.774795 0.457564 -0.470370
O12   O     O_3   0.317066 0.340552 0.324786 -0.651927
O13   O     O_3   0.007351 0.685916 0.646670 -0.644881
O14   O     O_3   0.369317 0.779143 0.333439 -0.588816
O15   O     O_2   0.176230 0.464730 0.330450 -0.431331
O16   O     O_3   0.952380 0.601530 0.373300 -0.484830
O17   O     O_2   0.039059 0.542589 0.250978 -0.484648
O18   O     O_3   0.996960 0.686623 0.248555 -0.610055
O19   O     O_2   0.667110 0.315390 0.465830 -0.490500
O20   O     O_3   0.927950 0.409760 0.464380 -0.456771
O21   O     O_3   0.437660 0.360670 0.591630 -0.445357
O22   O     O_3   0.833366 0.323026 0.352243 -0.610937
O23   O     O_3   0.379150 0.537830 0.583060 -0.484035
O24   O     O_3   0.857920 0.398470 0.626650 -0.476508
P1    P     P_3+3 0.970290 0.672580 0.555000 0.960092
P2    P     P_3+3 0.347000 0.441860 0.341200 0.996356
P3    P     P_3+3 0.922469 0.597240 0.279990 0.942721
P4    P     P_3+3 0.840010 0.327410 0.444950 0.991259
P5    P     P_3+3 0.881058 0.388484 0.716893 0.962435
P6    P     P_3+3 0.402566 0.743178 0.416396 0.962520
P7    P     P_3+3 0.452823 0.551088 0.672518 0.939020
P8    P     P_3+3 0.402111 0.259382 0.593870 0.966319

loop_
_geom_bond_atom_site_label_1
_geom_bond_atom_site_label_2
_ccdc_geom_bond_type
O2    P5    D    
C43   N1    S    
O13   P1    S    
O14   P6    S    
C2    P1    S    
C46   H44   S    
C38   H37   S    
C5    C6    A    
C52   N3    S    
C10   P8    S    
C57   N5    S    
C25   C31   A    
C52   H69   S    
C9    C17   A    
C45   O3    S    
C55   H80   S    
C22   H36   S    
C26   C27   A    
C22   C24   A    
O10   P6    S    
C35   C38   A    
C8    C13   A    
Ba2   O21   S    
C4    O18   S    
C36   C37   A    
C32   C33   A    
C50   H61   S    
C39   H34   S    
Ba1   O15   S    
C13   C14   S    
C35   P7    S    
C44   H43   S    
C2    C60   A    
O17   P3    D    
C30   H35   S    
C10   C17   A    
C48   H53   S    
O4    P1    S    
C7    P6    S    
Ba2   O24   S    
C39   H12   S    
C4    N2    S    
C50   H60   S    
C44   N1    S    
O21   P8    S    
C6    C7    A    
C21   C31   S    
C23   O7    S    
C49   H57   S    
C21   C22   A    
C28   C39   S    
C12   O14   S    
C1    H13   S    
O6    P7    D    
C3    H28   S    
C34   H9    S    
C16   C54   S    
Ba2   O19   S    
C47   H49   S    
C55   N4    S    
H40   N1    S    
O20   P4    S    
C46   H47   S    
C12   H7    S    
C32   C53   S    
C19   C20   A    
O11   P6    D    
C20   H32   S    
C42   H3    S    
Ba2   P4    S    
C52   H68   S    
H54   N2    S    
C54   H74   S    
C58   O9    S    
O24   P5    S    
C4    C16   S    
O1    P1    D    
C8    H25   S    
C32   C37   A    
C41   H67   S    
C1    H8    S    
C41   H85   S    
C34   H11   S    
C56   H19   S    
C3    C5    A    
C44   H42   S    
C14   C15   T    
Ba1   O16   S    
C5    C15   S    
C53   H71   S    
C52   H66   S    
C51   H62   S    
C42   H2    S    
C7    C60   A    
C58   C59   S    
C6    H26   S    
Ba1   O4    S    
C24   P3    S    
C35   C36   A    
Ba2   O23   S    
Ba1   P2    S    
C28   N5    S    
C29   C30   A    
C18   H38   S    
Ba2   O6    S    
C4    H31   S    
C27   C37   S    
C43   H6    S    
O3    P5    S    
C49   H58   S    
C41   H78   S    
C26   H30   S    
C18   C19   A    
Ba1   O1    S    
C23   C46   S    
C1    C12   S    
C51   H63   S    
C56   H17   S    
C47   H50   S    
C57   H83   S    
C19   P2    S    
C57   H82   S    
C25   N3    S    
C8    C9    A    
C11   C13   A    
C50   H59   S    
C49   H55   S    
C51   H64   S    
O19   P4    D    
C1    H4    S    
C40   C41   S    
C45   H15   S    
C16   N4    S    
O16   P3    S    
O22   P4    S    
C54   H73   S    
O12   P2    S    
C42   C43   S    
O23   P7    S    
C40   H45   S    
Ba1   O23   S    
C16   H14   S    
C11   H27   S    
C40   H56   S    
C2    C3    A    
C59   H22   S    
Ba1   O10   S    
C40   O13   S    
C43   H5    S    
C56   H18   S    
H76   N4    S    
C33   P5    S    
C53   H72   S    
C39   H23   S    
C44   H41   S    
Ba1   O20   S    
C55   H79   S    
O18   P3    S    
C48   H51   S    
O7    P7    S    
C30   C31   A    
C58   H20   S    
O9    P8    S    
Ba1   O5    S    
C33   C38   A    
H65   N3    S    
C50   C60   S    
C45   C56   S    
C54   H75   S    
C46   H46   S    
C36   C51   S    
C18   C24   A    
Ba2   O5    S    
C29   H33   S    
C12   H1    S    
Ba1   Ba2   S    
C28   H39   S    
C58   H21   S    
O8    P8    D    
O5    P2    S    
C23   C47   S    
C55   H77   S    
C17   H29   S    
C59   H24   S    
C23   C34   S    
C57   H84   S    
O15   P2    D    
C10   C11   A    
C49   N2    S    
C27   C29   A    
C53   H70   S    
C25   C26   A    
C48   C59   S    
C20   C21   A    
C9    P4    S    
C42   O12   S    
C45   H16   S    
C48   H52   S    
Ba1   P1    S    
C28   O22   S    
H81   N5    S    
Ba2   O4    S    
C34   H10   S    
Ba2   O20   S    
C47   H48   S    
