data_mof_unit_39156.cif
_audit_creation_date              2012-10-26T21:08:11-0400
_audit_creation_method            fapswitch 2.2
_symmetry_space_group_name_H-M    P1
_symmetry_Int_Tables_number       1
_space_group_crystal_system       triclinic
_cell_length_a                    15.857895
_cell_length_b                    10.849228
_cell_length_c                    9.599629
_cell_angle_alpha                 89.052891
_cell_angle_beta                  89.886056
_cell_angle_gamma                 92.918738
_cell_volume                      1649.202522

loop_
_atom_site_label
_atom_site_type_symbol
_atom_type_description
_atom_site_fract_x
_atom_site_fract_y
_atom_site_fract_z
_atom_type_partial_charge
C1    C     C_R   0.494700 0.262542 0.501262 0.544149
C2    C     C_R   0.334893 0.045927 0.794293 -0.132706
C3    C     C_R   0.334779 0.918035 0.792969 -0.130983
C4    C     C_R   0.339919 0.499731 0.500120 0.533765
C5    C     C_R   0.382978 0.859352 0.695045 -0.104263
C6    C     C_R   0.435734 0.928174 0.599395 -0.018283
C7    C     C_R   0.436096 0.059002 0.601587 0.013824
C8    C     C_R   0.486056 0.128356 0.502598 -0.052296
C9    C     C_R   0.525787 0.069339 0.395039 -0.135801
C10   C     C_R   0.520437 0.942274 0.385571 0.238841
C11   C     C_R   0.483721 0.870512 0.495695 -0.000746
C12   C     C_3   0.082857 0.501708 0.500562 0.009638
C13   C     C_R   0.617281 0.656772 0.140860 -0.055489
C14   C     C_R   0.676256 0.731267 0.067380 -0.147692
C15   C     C_R   0.675398 0.733087 0.923827 -0.168992
C16   C     C_R   0.494685 0.737126 0.498796 0.551297
C17   C     C_R   0.616224 0.659391 0.852992 -0.080284
C18   C     C_R   0.557383 0.577794 0.923645 0.152141
C19   C     C_R   0.557636 0.577153 0.073179 0.142459
C20   C     C_R   0.445208 0.426319 0.075494 -0.004159
C21   C     C_R   0.445228 0.426384 0.927665 -0.003705
C22   C     C_R   0.660077 0.500492 0.499893 0.544514
C23   C     C_3   0.972819 0.512312 0.628112 0.323333
C24   C     C_3   0.968459 0.395425 0.445921 -0.135059
C25   C     C_3   0.028420 0.491181 0.368474 -0.117424
C26   C     C_1   0.250157 0.500446 0.500432 -0.039861
C27   C     C_1   0.749879 0.501260 0.499576 -0.017462
C28   C     C_3   0.024499 0.405133 0.578004 -0.095686
C29   C     C_3   0.499339 0.904012 0.156691 -0.106388
C30   C     C_3   0.002599 0.530961 0.861501 -0.123613
C31   C     C_3   0.917278 0.501984 0.498746 0.069889
C32   C     C_3   0.031889 0.609110 0.553195 -0.096732
C33   C     C_3   0.975750 0.597758 0.421299 -0.139530
C34   C     C_1   0.174567 0.501109 0.500572 -0.067136
C35   C     C_1   0.825504 0.501778 0.499232 -0.018849
C36   C     C_R   0.383453 0.115926 0.698029 -0.096646
Cu1   Cu    Cu3+1 0.499990 0.499990 0.640660 0.916149
Cu2   Cu    Cu3+1 0.500010 0.500010 0.359340 0.932786
H1    H     H_    0.052993 0.482461 0.260894 0.108284
H2    H     H_    0.941110 0.308605 0.401177 0.113639
H3    H     H_    0.954333 0.675808 0.356471 0.108764
H4    H     H_    0.059045 0.696193 0.597592 0.099031
H5    H     H_    0.045648 0.326713 0.642512 0.098565
H6    H     H_    0.561085 0.122245 0.315539 0.152279
H7    H     H_    0.376259 0.214160 0.697417 0.129503
H8    H     H_    0.295318 0.091124 0.867717 0.099239
H9    H     H_    0.492642 0.003067 0.129238 0.110545
H10   H     H_    0.436261 0.857773 0.178362 0.125553
H11   H     H_    0.525410 0.860585 0.063463 0.151060
H12   H     H_    0.295046 0.863846 0.865326 0.104676
H13   H     H_    0.045363 0.614085 0.842992 0.105930
H14   H     H_    0.039084 0.446091 0.863411 0.106606
H15   H     H_    0.973849 0.539543 0.966126 0.141822
H16   H     H_    0.374781 0.760140 0.692334 0.152088
H17   H     H_    0.400299 0.365834 0.131902 0.112828
H18   H     H_    0.619295 0.668946 0.250222 0.212277
H19   H     H_    0.721144 0.791007 0.122519 0.139640
H20   H     H_    0.720009 0.793660 0.866640 0.130712
H21   H     H_    0.619284 0.671293 0.743147 0.187638
H22   H     H_    0.400114 0.366323 0.874002 0.100865
N1    N     N_R   0.500800 0.501210 0.147910 -0.246030
N2    N     N_R   0.500830 0.501290 0.852040 -0.241750
O1    O     O_R   0.499990 0.319640 0.618810 -0.495808
O2    O     O_3   0.937440 0.523259 0.762050 -0.555976
O3    O     O_R   0.500000 0.319660 0.381240 -0.504584
O4    O     O_R   0.379070 0.499980 0.618770 -0.516319
O5    O     O_R   0.379080 0.500000 0.381190 -0.500233
O6    O     O_R   0.500000 0.680340 0.618760 -0.544740
O7    O     O_R   0.500010 0.680360 0.381190 -0.477773
O8    O     O_R   0.620920 0.500000 0.618810 -0.500255
O9    O     O_R   0.620930 0.500020 0.381230 -0.518784
O10   O     O_3   0.554848 0.888907 0.270240 -0.572293

loop_
_geom_bond_atom_site_label_1
_geom_bond_atom_site_label_2
_ccdc_geom_bond_type
C30   H13   S    
C30   O2    S    
C1    C8    S    
C7    C36   A    
Cu1   N2    S    
C7    C8    A    
C29   H11   S    
C2    H8    S    
C29   H9    S    
C5    C6    A    
Cu1   O6    S    
C18   C19   A    
C20   N1    A    
C26   C34   T    
C8    C9    A    
C1    O3    A    
C31   C33   S    
C16   O6    A    
C9    C10   A    
Cu2   N1    S    
Cu2   O7    S    
C13   H18   S    
Cu1   O8    S    
C12   C32   S    
C20   H17   S    
C1    O1    A    
Cu1   O1    S    
C3    H12   S    
C30   H15   S    
C13   C19   A    
C29   H10   S    
C5    H16   S    
C24   C25   S    
C21   H22   S    
C6    C11   A    
C18   N2    A    
C27   C35   T    
C23   C31   S    
Cu1   Cu2   S    
C11   C16   S    
Cu2   O3    S    
Cu1   O4    S    
C17   C18   A    
C36   H7    S    
C23   C28   S    
Cu2   O5    S    
C21   N2    A    
C17   H21   S    
C23   O2    S    
C12   C28   S    
C22   C27   S    
C15   H20   S    
C31   C35   S    
C12   C34   S    
C22   O9    A    
C2    C36   A    
C15   C17   A    
C14   H19   S    
C30   H14   S    
Cu2   O9    S    
C9    H6    S    
C16   O7    A    
C24   C28   S    
C23   C32   S    
C3    C5    A    
C4    O5    A    
C4    C26   S    
C6    C7    A    
C28   H5    S    
C12   C25   S    
C33   H3    S    
C32   C33   S    
C29   O10   S    
C2    C3    A    
C24   C31   S    
C25   H1    S    
C4    O4    A    
C19   N1    A    
C24   H2    S    
C10   C11   A    
C20   C21   A    
C32   H4    S    
C14   C15   A    
C13   C14   A    
C22   O8    A    
C25   C33   S    
C10   O10   S    
