data_mof_unit_55813.cif
_audit_creation_date              2012-12-10T17:17:28-0500
_audit_creation_method            fapswitch 2.2
_symmetry_space_group_name_H-M    P1
_symmetry_Int_Tables_number       1
_space_group_crystal_system       triclinic
_cell_length_a                    10.262223
_cell_length_b                    10.627421
_cell_length_c                    12.515514
_cell_angle_alpha                 91.555511
_cell_angle_beta                  110.788147
_cell_angle_gamma                 95.83923
_cell_volume                      1266.53365289

loop_
_atom_site_label
_atom_site_type_symbol
_atom_type_description
_atom_site_fract_x
_atom_site_fract_y
_atom_site_fract_z
_atom_type_partial_charge
C1    C     C_R   0.047483 0.732936 0.486416 0.873561
C2    C     C_R   0.442247 0.579472 0.986171 -0.070414
C3    C     C_R   0.369707 0.592125 0.869868 -0.108336
C4    C     C_R   0.579360 0.545016 0.018604 0.097838
C5    C     C_R   0.651601 0.554897 0.941182 -0.037496
C6    C     C_R   0.587770 0.601337 0.834169 -0.228059
C7    C     C_R   0.448226 0.626796 0.799978 0.291267
C8    C     C_R   0.640808 0.489542 0.121538 0.190803
C9    C     C_R   0.857156 0.489445 0.084759 0.625395
C10   C     C_R   0.222283 0.578041 0.830337 -0.310412
C11   C     C_2   0.062045 0.865480 0.459753 0.022401
C12   C     C_R   0.139013 0.529616 0.711469 0.967835
C13   C     C_2   0.945984 0.925431 0.431561 -0.214693
C14   C     C_2   0.905388 0.130845 0.488202 0.264465
C15   C     C_2   0.951173 0.060566 0.421371 0.484282
C16   C     C_2   0.431616 0.519658 0.487901 0.056666
C17   C     C_2   0.573195 0.472848 0.511355 0.202143
C18   C     C_R   0.945397 0.266481 0.501847 0.848067
C19   C     C_R   0.862571 0.483211 0.286057 0.885977
C20   C     C_R   0.787238 0.520235 0.973012 -0.232317
C21   C     C_R   0.786174 0.482156 0.162323 -0.292555
C22   C     C_R   0.157023 0.609313 0.907260 0.532629
C23   C     C_R   0.236327 0.633106 0.024271 0.096358
C24   C     C_R   0.377463 0.610079 0.064903 0.498451
H1    H     H_    0.845354 0.876250 0.426139 0.180180
H2    H     H_    0.428167 0.620259 0.499431 0.028645
H3    H     H_    0.670689 0.647570 0.548006 0.159762
H4    H     H_    0.647572 0.621917 0.779306 0.154358
H5    H     H_    0.839170 0.519339 0.912020 0.251096
N1    N     N_2   0.313640 0.446500 0.454900 0.176277
N2    N     N_2   0.686360 0.553430 0.545150 -0.231307
O1    O     O_R   0.936910 0.692950 0.509080 -0.615595
O2    O     O_R   0.138320 0.658600 0.480130 -0.616555
O3    O     O_R   0.002900 0.525670 0.675280 -0.542399
O4    O     O_R   0.204310 0.491320 0.646330 -0.602567
O5    O     O_R   0.861680 0.341400 0.519870 -0.622100
O6    O     O_R   0.063090 0.307050 0.490920 -0.515594
O7    O     O_R   0.795690 0.508680 0.353670 -0.627774
O8    O     O_R   0.997100 0.474330 0.324720 -0.525165
Zn1   Zn    Zn3+2 0.865520 0.522940 0.519330 0.979439
Zn2   Zn    Zn3+2 0.134480 0.477060 0.480670 1.099303
F1    F     F_    0.992234 0.464687 0.115896 -0.626888
F2    F     F_    0.832099 0.076503 0.550311 -0.685686
N3    N     N_2   0.196768 0.929512 0.472519 -0.303720
H6    H     H_    0.216564 0.025145 0.496538 0.292480
C25   C     C_3   0.263372 0.888316 0.395455 -0.649485
H7    H     H_    0.265695 0.962883 0.335449 0.256800
H8    H     H_    0.207448 0.799149 0.344490 0.233167
H9    H     H_    0.372803 0.872239 0.446042 0.229582
N4    N     N_2   0.585093 0.340320 0.516207 -0.226723
H10   H     H_    0.668577 0.315382 0.583549 0.268550
C26   C     C_3   0.552013 0.266099 0.409060 -0.538796
H11   H     H_    0.638853 0.279974 0.376414 0.204999
H12   H     H_    0.455855 0.292029 0.342554 0.255308
H13   H     H_    0.534435 0.164011 0.422921 0.242406
F3    F     F_    0.319910 0.321719 0.453557 -0.538251
N5    N     N_2   0.551128 0.414074 0.165534 -0.264883
H14   H     H_    0.563490 0.434090 0.249390 0.288521
C27   C     C_3   0.529143 0.280648 0.129376 -0.802976
H15   H     H_    0.443213 0.232272 0.152979 0.251851
H16   H     H_    0.626646 0.236341 0.171293 0.238059
H17   H     H_    0.497866 0.267684 0.034788 0.262060
F4    F     F_    0.018883 0.623921 0.867973 -0.668805
F5    F     F_    0.454502 0.634052 0.178272 -0.688593
N6    N     N_2   0.172468 0.674859 0.100865 -0.218436
H18   H     H_    0.222167 0.655988 0.185159 0.281188
C28   C     C_3   0.136580 0.803284 0.088904 -0.689279
H19   H     H_    0.075061 0.822511 0.143483 0.238246
H20   H     H_    0.070947 0.817518 0.999142 0.284140
H21   H     H_    0.233635 0.871707 0.116041 0.224308
N7    N     N_2   0.397638 0.708438 0.709340 -0.286554
H22   H     H_    0.461879 0.723328 0.662604 0.209618
C29   C     C_3   0.363865 0.827987 0.745072 -0.750309
H23   H     H_    0.348164 0.894050 0.676024 0.251603
H24   H     H_    0.451374 0.873130 0.821987 0.243234
H25   H     H_    0.265777 0.813811 0.763844 0.240492
F6    F     F_    0.016200 0.114052 0.352816 -0.631092

loop_
_geom_bond_atom_site_label_1
_geom_bond_atom_site_label_2
_ccdc_geom_bond_type
C17   N4    S    
N4    C26   S    
C23   C24   A    
C18   O5    A    
N1    Zn2   S    
C6    C7    A    
C19   O7    A    
C8    N5    S    
C29   H24   S    
C29   H23   S    
C14   C18   S    
C9    C20   A    
C2    C4    A    
C1    C11   S    
C26   H13   S    
C4    C8    A    
C28   H21   S    
O2    Zn2   S    
C23   N6    S    
O1    Zn1   S    
C2    C3    A    
C9    F1    S    
C1    O2    A    
C27   H15   S    
C24   F5    S    
C5    C20   A    
C10   C22   A    
C12   O4    A    
O7    Zn1   S    
C11   C13   D    
C25   H9    S    
C9    C21   A    
N5    H14   S    
C15   F6    S    
C10   C12   S    
O3    Zn1   S    
C4    C5    A    
C19   O8    A    
C19   C21   S    
C18   O6    A    
N3    C25   S    
N4    H10   S    
C3    C7    A    
C20   H5    S    
C13   C15   S    
O6    Zn2   S    
C5    C6    A    
O4    Zn2   S    
C29   H25   S    
C25   H8    S    
N5    C27   S    
N3    H6    S    
C27   H16   S    
C16   N1    D    
H3    N2    S    
C28   H19   S    
C11   N3    S    
O5    Zn1   S    
C7    N7    S    
N7    H22   S    
C26   H11   S    
C13   H1    S    
O8    Zn2   S    
N6    H18   S    
C25   H7    S    
N7    C29   S    
C3    C10   A    
C22   C23   A    
C16   C17   S    
C27   H17   S    
C2    C24   A    
C12   O3    A    
C28   H20   S    
N2    Zn1   S    
C14   C15   D    
N1    F3    S    
C1    O1    A    
C6    H4    S    
C17   N2    D    
C22   F4    S    
C26   H12   S    
C14   F2    S    
N6    C28   S    
C16   H2    S    
C8    C21   A    
