data_mof_unit_52699.cif
_audit_creation_date              2012-12-10T17:22:06-0500
_audit_creation_method            fapswitch 2.2
_symmetry_space_group_name_H-M    P1
_symmetry_Int_Tables_number       1
_space_group_crystal_system       triclinic
_cell_length_a                    10.101599
_cell_length_b                    10.780778
_cell_length_c                    15.711926
_cell_angle_alpha                 90.333981
_cell_angle_beta                  83.549479
_cell_angle_gamma                 95.625035
_cell_volume                      1692.03449124

loop_
_atom_site_label
_atom_site_type_symbol
_atom_type_description
_atom_site_fract_x
_atom_site_fract_y
_atom_site_fract_z
_atom_type_partial_charge
C1    C     C_R   0.556382 0.732779 0.497246 0.942258
C2    C     C_3   0.351368 0.488515 0.058726 -0.482205
C3    C     C_3   0.496735 0.497413 0.083001 0.323935
C4    C     C_3   0.558607 0.379351 0.046172 -0.397928
C5    C     C_3   0.569947 0.381471 0.947745 -0.404629
C6    C     C_1   0.492849 0.498138 0.174736 -0.113100
C7    C     C_1   0.506933 0.493051 0.824987 -0.114903
C8    C     C_1   0.506752 0.495173 0.749728 -0.201111
C9    C     C_2   0.588923 0.865315 0.504666 -0.383733
C10   C     C_2   0.490513 0.934087 0.533007 -0.153204
C11   C     C_2   0.412984 0.135117 0.522240 -0.381348
C12   C     C_R   0.502234 0.498918 0.661367 0.907542
C13   C     C_2   0.513983 0.066929 0.530676 -0.153991
C14   C     C_2   0.926418 0.459654 0.523711 0.068552
C15   C     C_2   0.075217 0.472773 0.498244 -0.128003
C16   C     C_R   0.444015 0.267298 0.508372 0.939467
C17   C     C_R   0.497584 0.499850 0.338593 0.914478
C18   C     C_3   0.354626 0.497070 0.959919 -0.027906
C19   C     C_3   0.585899 0.613083 0.943655 -0.480464
C20   C     C_3   0.573491 0.621082 0.042808 -0.029946
C21   C     C_1   0.492777 0.499122 0.250095 -0.200523
C22   C     C_3   0.502540 0.493666 0.916664 0.324916
H1    H     H_    0.297393 0.565637 0.089040 0.151236
H2    H     H_    0.657474 0.368964 0.067655 0.159818
H3    H     H_    0.617053 0.108120 0.528763 0.187390
H4    H     H_    0.310221 0.093426 0.524023 0.148002
H5    H     H_    0.690505 0.906747 0.486004 0.149967
H6    H     H_    0.116378 0.614688 0.576261 0.161600
H7    H     H_    0.886474 0.454187 0.402973 0.159573
H8    H     H_    0.692133 0.612828 0.915831 0.185106
H9    H     H_    0.506777 0.695997 0.060337 0.120561
H10   H     H_    0.527938 0.291126 0.923821 0.159395
H11   H     H_    0.677680 0.389897 0.922005 0.168324
H12   H     H_    0.493860 0.294409 0.070164 0.161049
N1    N     N_2   0.842720 0.448890 0.465540 -0.216856
N2    N     N_2   0.157250 0.551040 0.534500 -0.204366
O1    O     O_R   0.431050 0.692470 0.506940 -0.608808
O2    O     O_R   0.651130 0.659650 0.484820 -0.609617
O3    O     O_R   0.389910 0.516410 0.633920 -0.611471
O4    O     O_R   0.609990 0.483590 0.611800 -0.642071
O5    O     O_R   0.348870 0.340350 0.515180 -0.617534
O6    O     O_R   0.568950 0.307530 0.493060 -0.611702
O7    O     O_R   0.390010 0.516410 0.388200 -0.609401
O8    O     O_R   0.610090 0.483590 0.366080 -0.610761
Zn1   Zn    Zn3+2 0.353060 0.521920 0.514770 0.924616
Zn2   Zn    Zn3+2 0.646940 0.478080 0.485230 0.918977
C23   C     C_3   0.242639 0.408639 0.924317 -0.405673
C24   C     C_3   0.262454 0.269087 0.923966 -0.311147
C25   C     C_3   0.133517 0.188768 0.910549 -0.923109
H13   H     H_    0.051714 0.207494 0.960932 0.260385
H14   H     H_    0.103257 0.207543 0.846485 0.267194
H15   H     H_    0.150342 0.088741 0.913912 0.249307
H16   H     H_    0.338427 0.249700 0.870155 0.218844
H17   H     H_    0.295771 0.240795 0.985272 0.219915
H18   H     H_    0.146352 0.423266 0.963137 0.202540
H19   H     H_    0.231829 0.437602 0.857820 0.201028
H20   H     H_    0.294617 0.400465 0.084313 0.187049
H21   H     H_    0.388598 0.893168 0.551554 0.187779
H22   H     H_    0.115850 0.409023 0.450825 0.156741
C26   C     C_3   0.873439 0.447861 0.617879 -0.309232
C27   C     C_3   0.971073 0.409279 0.679228 -0.391627
C28   C     C_3   0.898397 0.385142 0.769149 -0.934678
H23   H     H_    0.848505 0.468252 0.792540 0.262841
H24   H     H_    0.822138 0.303586 0.769043 0.264445
H25   H     H_    0.971293 0.366140 0.814002 0.258047
H26   H     H_    0.015344 0.323323 0.655628 0.234321
H27   H     H_    0.052838 0.484029 0.684955 0.232504
H28   H     H_    0.837530 0.538082 0.639811 0.211276
H29   H     H_    0.790664 0.371607 0.622900 0.236896
H30   H     H_    0.326379 0.591962 0.946602 0.123115
H31   H     H_    0.549373 0.697572 0.917323 0.148223
C29   C     C_3   0.707319 0.670781 0.077118 -0.400623
C30   C     C_3   0.817002 0.580786 0.071292 -0.308919
C31   C     C_3   0.953656 0.649490 0.081824 -0.926611
H32   H     H_    0.984010 0.717929 0.028954 0.259486
H33   H     H_    0.950518 0.698880 0.144164 0.268291
H34   H     H_    0.029760 0.581548 0.080044 0.244414
H35   H     H_    0.793543 0.510900 0.123767 0.220827
H36   H     H_    0.824247 0.532285 0.008717 0.218993
H37   H     H_    0.746380 0.757564 0.040875 0.202724
H38   H     H_    0.686281 0.698999 0.145110 0.193253

loop_
_geom_bond_atom_site_label_1
_geom_bond_atom_site_label_2
_ccdc_geom_bond_type
C18   H30   S    
C2    C18   S    
C11   C13   D    
C30   C31   S    
C19   H31   S    
C19   C20   S    
C3    C6    S    
C18   C23   S    
C2    H20   S    
C7    C8    T    
C24   H17   S    
C31   H33   S    
C10   H21   S    
C4    H2    S    
O6    Zn2   S    
C28   H24   S    
C27   H26   S    
C5    C22   S    
C25   H14   S    
C31   H34   S    
C5    H11   S    
C30   H35   S    
C9    C10   D    
C29   H38   S    
C1    O1    A    
O3    Zn1   S    
C5    H10   S    
C13   H3    S    
O8    Zn2   S    
C24   H16   S    
C4    H12   S    
C31   H32   S    
C3    C20   S    
C19   C22   S    
C1    C9    S    
C14   N1    D    
C29   C30   S    
C11   H4    S    
C6    C21   T    
C17   C21   S    
C26   C27   S    
C12   O4    A    
O4    Zn2   S    
C17   O7    A    
C28   H23   S    
C11   C16   S    
C27   H27   S    
C23   C24   S    
C8    C12   S    
C25   H15   S    
C30   H36   S    
N2    Zn1   S    
O7    Zn1   S    
H6    N2    S    
C1    O2    A    
C24   C25   S    
O1    Zn1   S    
C3    C4    S    
C16   O6    A    
C15   N2    D    
C9    H5    S    
C23   H18   S    
C28   H25   S    
C18   C22   S    
C15   H22   S    
C4    C5    S    
C10   C13   S    
C7    C22   S    
C14   C26   S    
H7    N1    S    
C12   O3    A    
C2    C3    S    
C17   O8    A    
C29   H37   S    
C19   H8    S    
C26   H29   S    
C27   C28   S    
O2    Zn2   S    
C26   H28   S    
C25   H13   S    
C2    H1    S    
O5    Zn1   S    
C14   C15   S    
C20   C29   S    
N1    Zn2   S    
C16   O5    A    
C23   H19   S    
C20   H9    S    
