data_mof_unit_55749.cif
_audit_creation_date              2012-12-11T17:41:23-0500
_audit_creation_method            fapswitch 2.2
_symmetry_space_group_name_H-M    P1
_symmetry_Int_Tables_number       1
_space_group_crystal_system       triclinic
_cell_length_a                    15.584306
_cell_length_b                    15.080129
_cell_length_c                    14.896551
_cell_angle_alpha                 109.726197
_cell_angle_beta                  121.56967
_cell_angle_gamma                 58.791929
_cell_volume                      2540.57121204

loop_
_atom_site_label
_atom_site_type_symbol
_atom_type_description
_atom_site_fract_x
_atom_site_fract_y
_atom_site_fract_z
_atom_type_partial_charge
C1    C     C_R   0.804012 0.937806 0.774166 -0.134353
C2    C     C_R   0.251279 0.002361 0.208095 -0.116776
C3    C     C_R   0.136930 0.274244 0.480287 0.149842
C4    C     C_R   0.787948 0.701108 0.433255 0.150157
C5    C     C_R   0.503901 0.323358 0.533508 0.047187
C6    C     C_R   0.503750 0.702423 0.572022 0.061848
C7    C     C_R   0.505223 0.038938 0.830450 0.047659
C8    C     C_R   0.499528 0.078624 0.206056 0.067213
C9    C     C_R   0.849765 0.783036 0.022716 -0.118299
C10   C     C_R   0.207055 0.395678 0.151007 -0.124822
C11   C     C_R   0.743199 0.857790 0.011474 -0.156532
C12   C     C_R   0.305158 0.322529 0.141135 -0.143322
C13   C     C_R   0.720399 0.963975 0.035091 0.100167
C14   C     C_R   0.301697 0.248853 0.052386 0.118159
C15   C     C_R   0.805868 0.994228 0.073503 -0.159979
C16   C     C_R   0.198102 0.250561 0.973320 -0.178393
C17   C     C_R   0.912409 0.919247 0.085668 -0.116799
C18   C     C_R   0.100187 0.324109 0.983450 -0.109086
C19   C     C_R   0.934352 0.813707 0.059835 -0.117821
C20   C     C_R   0.104658 0.396522 0.072211 -0.098059
C21   C     C_R   0.605273 0.068815 0.125773 -0.251535
C22   C     C_R   0.411777 0.151427 0.947113 -0.242006
C23   C     C_R   0.199616 0.274520 0.440506 -0.122185
C24   C     C_R   0.756188 0.710444 0.508759 -0.118851
C25   C     C_R   0.502956 0.115587 0.128939 0.044624
C26   C     C_R   0.510703 0.078907 0.937177 0.068139
C27   C     C_R   0.406379 0.170586 0.043153 0.032791
C28   C     C_R   0.610531 0.042511 0.030406 0.034495
C29   C     C_2   0.021912 0.347820 0.460983 -0.226719
C30   C     C_2   0.849944 0.603662 0.385692 -0.220652
C31   C     C_2   0.962159 0.418830 0.391549 -0.111167
C32   C     C_2   0.867161 0.512214 0.400923 -0.103466
C33   C     C_2   0.982993 0.956545 0.845365 -0.233295
C34   C     C_2   0.174002 0.867426 0.098684 -0.231072
C35   C     C_R   0.278587 0.872221 0.717747 -0.158969
C36   C     C_R   0.725224 0.222078 0.376834 -0.154296
C37   C     C_R   0.363451 0.779049 0.702092 -0.153091
C38   C     C_R   0.646850 0.298188 0.414456 -0.146563
C39   C     C_R   0.337724 0.703235 0.620165 0.120854
C40   C     C_R   0.681707 0.337968 0.521061 0.119228
C41   C     C_R   0.225614 0.721371 0.555747 -0.200890
C42   C     C_R   0.796014 0.301157 0.589222 -0.212834
C43   C     C_R   0.140805 0.814602 0.571431 -0.125558
C44   C     C_R   0.874236 0.224342 0.551689 -0.158919
C45   C     C_R   0.594737 0.228772 0.552786 -0.111151
C46   C     C_R   0.409636 0.782819 0.513932 -0.130010
C47   C     C_R   0.166535 0.890716 0.652101 0.111317
C48   C     C_R   0.839233 0.184337 0.444950 0.116325
C49   C     C_R   0.428363 0.510602 0.583149 -0.246184
C50   C     C_R   0.601897 0.519068 0.581778 -0.237098
C51   C     C_R   0.511075 0.420607 0.559607 0.065931
C52   C     C_R   0.512899 0.610378 0.592218 0.055703
C53   C     C_R   0.599438 0.424793 0.559485 0.021227
C54   C     C_R   0.427646 0.607435 0.599016 0.029021
C55   C     C_2   0.047607 0.883756 0.913636 -0.103235
C56   C     C_2   0.146379 0.891394 0.005724 -0.097889
C57   C     C_R   0.409846 0.048735 0.734587 -0.122474
C58   C     C_R   0.591469 0.020025 0.288303 -0.124928
C59   C     C_R   0.408641 0.306381 0.470129 -0.139838
C60   C     C_R   0.593768 0.714264 0.592956 -0.150670
C61   C     C_R   0.594978 0.978981 0.806213 -0.138924
C62   C     C_R   0.407829 0.091183 0.211097 -0.151592
C63   C     C_R   0.198237 0.184594 0.531430 -0.160004
C64   C     C_R   0.757155 0.800931 0.416616 -0.151713
C65   C     C_R   0.803202 0.029982 0.684492 -0.168624
C66   C     C_R   0.251070 0.909975 0.298383 -0.153996
C67   C     C_R   0.866641 0.976990 0.773549 0.158771
C68   C     C_R   0.225522 0.922947 0.197826 0.144615
H1    H     H_    0.833699 0.880425 0.823772 0.099384
H2    H     H_    0.242033 0.033280 0.146461 0.091781
H3    H     H_    0.142924 0.819102 0.101502 0.125823
H4    H     H_    0.012857 0.009268 0.848804 0.125695
H5    H     H_    0.016941 0.755440 0.069402 0.099856
H6    H     H_    0.028774 0.453256 0.079961 0.097261
H7    H     H_    0.867069 0.701316 0.003648 0.107726
H8    H     H_    0.210464 0.451711 0.219796 0.105136
H9    H     H_    0.678461 0.833380 0.984234 0.115371
H10   H     H_    0.383817 0.322980 0.202818 0.106913
H11   H     H_    0.790077 0.075616 0.094861 0.117162
H12   H     H_    0.193133 0.194087 0.904742 0.100642
H13   H     H_    0.977687 0.943549 0.116201 0.123437
H14   H     H_    0.020815 0.324699 0.922600 0.102866
H15   H     H_    0.682118 0.035851 0.194117 0.128345
H16   H     H_    0.337579 0.189897 0.879331 0.124674
H17   H     H_    0.825306 0.508309 0.438192 0.130367
H18   H     H_    0.993116 0.417711 0.340564 0.124900
H19   H     H_    0.892982 0.606491 0.348894 0.128380
H20   H     H_    0.989912 0.350143 0.511822 0.136046
H21   H     H_    0.172683 0.325398 0.385538 0.082046
H22   H     H_    0.768809 0.649110 0.542324 0.089127
H23   H     H_    0.300318 0.930097 0.780409 0.111376
H24   H     H_    0.697358 0.193627 0.294161 0.121049
H25   H     H_    0.449289 0.766618 0.752963 0.118062
H26   H     H_    0.559236 0.327368 0.360348 0.112796
H27   H     H_    0.203641 0.664632 0.491498 0.115902
H28   H     H_    0.824353 0.332279 0.671344 0.119683
H29   H     H_    0.054741 0.828140 0.520101 0.114784
H30   H     H_    0.961904 0.197155 0.605494 0.108523
H31   H     H_    0.363431 0.505339 0.586729 0.133354
H32   H     H_    0.666965 0.520987 0.575177 0.129417
H33   H     H_    0.681218 0.213116 0.600901 0.113256
H34   H     H_    0.323949 0.802369 0.490689 0.109759
H35   H     H_    0.324101 0.089941 0.722302 0.090377
H36   H     H_    0.676891 0.006281 0.319105 0.092469
H37   H     H_    0.323263 0.363676 0.437747 0.095863
H38   H     H_    0.679459 0.673622 0.647540 0.091529
H39   H     H_    0.680947 0.960742 0.855993 0.129920
H40   H     H_    0.321704 0.140119 0.166301 0.116998
H41   H     H_    0.167465 0.153561 0.558351 0.089872
H42   H     H_    0.769867 0.821802 0.363243 0.102306
H43   H     H_    0.833392 0.055986 0.651904 0.100671
H44   H     H_    0.241658 0.854102 0.318530 0.103230
H45   H     H_    0.178905 0.937920 0.001985 0.126523
H46   H     H_    0.018681 0.831231 0.912104 0.130652
N1    N     N_R   0.705410 0.966550 0.689210 -0.045420
N2    N     N_R   0.294590 0.033450 0.310790 -0.046323
N3    N     N_R   0.294590 0.188320 0.465660 -0.043036
N4    N     N_R   0.705410 0.811680 0.534340 -0.045377
N5    N     N_R   0.556610 0.157790 0.497330 -0.041202
N6    N     N_R   0.443390 0.842210 0.502670 -0.039388
N7    N     N_R   0.443390 0.997080 0.657540 -0.037080
N8    N     N_R   0.556610 0.002920 0.342460 -0.039286
N9    N     N_R   0.443390 0.203250 0.451380 -0.038261
N10   N     N_R   0.556610 0.796750 0.548620 -0.037209
N11   N     N_R   0.556610 0.951620 0.703500 -0.042176
N12   N     N_R   0.443390 0.048380 0.296500 -0.040869
N13   N     N_R   0.294590 0.131500 0.522480 -0.039483
N14   N     N_R   0.705410 0.868500 0.477520 -0.041833
N15   N     N_R   0.705410 0.023370 0.632390 -0.039683
N16   N     N_R   0.294590 0.976630 0.367610 -0.042677
Ni1   Ni    Ni4+2 0.629830 0.882720 0.617850 0.210081
Ni2   Ni    Ni4+2 0.370170 0.117280 0.382150 0.213129
Ni3   Ni    Ni4+2 0.629830 0.013030 0.487540 0.215664
Ni4   Ni    Ni4+2 0.370170 0.986970 0.512460 0.214809
N17   N     N_3   0.078034 0.986704 0.665046 -0.228282
H47   H     H_    0.110400 0.034785 0.728729 0.076545
H48   H     H_    0.033943 0.968793 0.684840 0.103933
N18   N     N_3   0.918002 0.105828 0.404481 -0.222093
H49   H     H_    0.913911 0.139044 0.350267 0.104008
H50   H     H_    0.998952 0.084321 0.465179 0.099565

loop_
_geom_bond_atom_site_label_1
_geom_bond_atom_site_label_2
_ccdc_geom_bond_type
C33   C55   D    
C66   C68   A    
C55   C56   S    
C34   C56   D    
N9    Ni2   S    
C3    C23   A    
N13   Ni4   S    
C35   C47   A    
C49   C51   A    
C4    C30   S    
N17   H47   S    
C39   C41   A    
N1    Ni1   S    
C46   H34   S    
N5    Ni3   S    
C7    C26   S    
N4    N14   A    
C42   H28   S    
C46   N6    A    
C35   C37   A    
C2    C68   A    
C4    C24   A    
C39   C54   S    
C62   H40   S    
C49   C54   A    
C6    C52   S    
N17   H48   S    
C3    C29   S    
N3    Ni2   S    
C65   H43   S    
C29   H20   S    
N4    Ni1   S    
C11   H9    S    
C33   H4    S    
C8    C58   A    
C2    N2    A    
C9    C19   A    
C15   H11   S    
C21   H15   S    
C10   C20   A    
C64   N14   A    
C12   H10   S    
C50   C52   A    
C56   H45   S    
C23   H21   S    
C13   C28   S    
C14   C27   S    
C17   H13   S    
N6    Ni4   S    
C36   H24   S    
C40   C42   A    
C31   H18   S    
C8    C25   S    
C41   C43   A    
N16   Ni4   S    
C42   C44   A    
C18   H14   S    
C52   C54   A    
C59   N9    A    
C57   H35   S    
C58   N8    A    
C50   C53   A    
C5    C59   A    
C20   H6    S    
C6    C60   A    
C19   H5    S    
C34   C68   S    
C62   N12   A    
C45   H33   S    
C65   C67   A    
C5    C45   A    
C1    H1    S    
C1    C67   A    
N10   Ni1   S    
C51   C53   A    
C22   H16   S    
N8    N12   A    
N8    Ni3   S    
N7    N11   A    
C49   H31   S    
C9    C11   A    
N11   Ni1   S    
C64   H42   S    
C31   C32   S    
N2    Ni2   S    
N12   Ni2   S    
C38   H26   S    
C37   H25   S    
C59   H37   S    
N3    N13   A    
C10   C12   A    
N15   Ni3   S    
C16   C18   A    
C21   C28   A    
C12   C14   A    
C44   H30   S    
C3    C63   A    
C22   C27   A    
C13   C15   A    
N7    Ni4   S    
C14   C16   A    
C58   H36   S    
C60   H38   S    
C33   C67   S    
N1    N15   A    
C15   C17   A    
C21   C25   A    
C6    C46   A    
C47   N17   S    
C10   H8    S    
C43   H29   S    
C24   H22   S    
C23   N3    A    
C65   N15   A    
C60   N10   A    
N18   H50   S    
C55   H46   S    
N5    N9    A    
C25   C27   A    
C1    N1    A    
C4    C64   A    
C26   C28   A    
C48   N18   S    
C66   H44   S    
C36   C38   A    
C29   C31   D    
N14   Ni3   S    
C30   C32   D    
C11   C13   A    
C45   N5    A    
C41   H27   S    
C38   C40   A    
C32   H17   S    
C24   N4    A    
C17   C19   A    
C36   C48   A    
C18   C20   A    
C61   H39   S    
C63   N13   A    
C50   H32   S    
N18   H49   S    
C57   N7    A    
C44   C48   A    
N2    N16   A    
C37   C39   A    
C40   C53   S    
C22   C26   A    
C5    C51   S    
C61   N11   A    
C9    H7    S    
C16   H12   S    
C30   H19   S    
C2    H2    S    
C43   C47   A    
C34   H3    S    
C7    C57   A    
C7    C61   A    
N6    N10   A    
C8    C62   A    
C63   H41   S    
C66   N16   A    
C35   H23   S    
