data_mof_unit_50327.cif
_audit_creation_date              2012-12-11T14:56:29-0500
_audit_creation_method            fapswitch 2.2
_symmetry_space_group_name_H-M    P1
_symmetry_Int_Tables_number       1
_space_group_crystal_system       triclinic
_cell_length_a                    10.574169
_cell_length_b                    10.670487
_cell_length_c                    17.068598
_cell_angle_alpha                 80.590505
_cell_angle_beta                  90.19665
_cell_angle_gamma                 119.791469
_cell_volume                      1642.04207827

loop_
_atom_site_label
_atom_site_type_symbol
_atom_type_description
_atom_site_fract_x
_atom_site_fract_y
_atom_site_fract_z
_atom_type_partial_charge
C1    C     C_R   0.222685 0.854183 0.128685 0.558867
C2    C     C_1   0.650423 0.342301 0.707158 0.064656
C3    C     C_R   0.624138 0.691152 0.816137 -0.077461
C4    C     C_R   0.633546 0.268550 0.091373 0.566474
C5    C     C_R   0.619737 0.667036 0.738829 0.350692
C6    C     C_R   0.706236 0.784151 0.677383 -0.002162
C7    C     C_R   0.803899 0.923321 0.694911 -0.174152
C8    C     C_R   0.803533 0.950263 0.771720 0.007797
C9    C     C_R   0.703793 0.834876 0.831843 -0.051261
C10   C     C_R   0.275364 0.993362 0.750257 -0.125484
C11   C     C_R   0.248443 0.978958 0.672402 0.356319
C12   C     C_R   0.706089 0.244786 0.305203 -0.007220
C13   C     C_R   0.201129 0.842676 0.649281 -0.003541
C14   C     C_R   0.213723 0.732129 0.699998 -0.053072
C15   C     C_R   0.227159 0.740920 0.781519 0.000328
C16   C     C_R   0.601720 0.882158 0.131099 0.560067
C17   C     C_R   0.254810 0.873244 0.806710 -0.088252
C18   C     C_R   0.683166 0.812962 0.358573 0.580977
C19   C     C_R   0.679806 0.382204 0.400336 0.586041
C20   C     C_R   0.104085 0.810472 0.359298 0.559286
C21   C     C_R   0.704774 0.759909 0.596059 0.583817
C22   C     C_R   0.678115 0.381137 0.624111 0.574783
C23   C     C_R   0.717411 0.245495 0.224345 0.324563
C24   C     C_R   0.109838 0.808009 0.582142 0.571417
C25   C     C_R   0.283332 0.899323 0.888375 0.559399
C26   C     C_R   0.637123 0.283903 0.860806 0.550760
C27   C     C_R   0.649631 0.863803 0.901422 0.554241
C28   C     C_R   0.545307 0.333631 0.202306 -0.150019
C29   C     C_R   0.540866 0.342817 0.281983 0.344195
C30   C     C_R   0.630164 0.309270 0.332379 -0.043161
C31   C     C_2   0.220736 0.615103 0.665958 0.640536
C32   C     C_2   0.200606 0.608824 0.839267 0.662196
C33   C     C_2   0.780052 0.183156 0.359635 0.631610
C34   C     C_R   0.639071 0.292630 0.172429 -0.056209
C35   C     C_2   0.900972 0.101317 0.785081 0.621755
C36   C     C_1   0.635506 0.871440 0.211315 0.046908
C37   C     C_1   0.661418 0.854906 0.279114 0.039056
C38   C     C_1   0.180862 0.825692 0.211275 -0.018850
C39   C     C_1   0.151644 0.819818 0.279912 -0.012113
C40   C     C_1   0.643008 0.320788 0.777843 0.035932
Cr1   Cr    Cr6+3 0.402240 0.783890 0.019450 1.081732
Cr2   Cr    Cr6+3 0.382360 0.097900 0.991800 1.064853
Cr3   Cr    Cr6+3 0.715380 0.118170 0.988700 1.111365
Cr4   Cr    Cr6+3 0.936650 0.882420 0.465510 1.100299
Cr5   Cr    Cr6+3 0.605770 0.565620 0.493360 1.186461
Cr6   Cr    Cr6+3 0.921340 0.550490 0.496380 1.110437
F1    F     F_    0.260808 0.096790 0.620905 -0.593794
F2    F     F_    0.457850 0.395073 0.307788 -0.580462
F3    F     F_    0.800810 0.194654 0.197141 -0.584626
F4    F     F_    0.526059 0.531235 0.723842 -0.612771
H1    H     H_    0.478519 0.362175 0.163511 0.181290
H2    H     H_    0.552495 0.599247 0.862492 0.197389
H3    H     H_    0.877876 0.013624 0.648424 0.196619
H4    H     H_    0.307480 0.098203 0.767059 0.186574
H5    H     H_    0.176943 0.405886 0.679376 0.380037
H6    H     H_    0.064685 0.441691 0.926609 0.336547
H7    H     H_    0.959911 0.166331 0.379077 0.349288
H8    H     H_    0.053126 0.233511 0.850363 0.362814
O1    O     O_R   0.521780 0.757110 0.108900 -0.499166
O2    O     O_R   0.805020 0.410040 0.421340 -0.500570
O3    O     O_R   0.049240 0.685450 0.403290 -0.486205
O4    O     O_R   0.275160 0.783810 0.101120 -0.494718
O5    O     O_R   0.077520 0.903010 0.551800 -0.453050
O6    O     O_R   0.802980 0.872780 0.546830 -0.507577
O7    O     O_R   0.578090 0.681300 0.569920 -0.401929
O8    O     O_R   0.608530 0.436370 0.586530 -0.459425
O9    O     O_R   0.798770 0.401880 0.597100 -0.485036
O10   O     O_R   0.043450 0.677890 0.566230 -0.492225
O11   O     O_3   0.821250 0.666180 0.485090 -0.339874
O12   O     O_R   0.513330 0.228330 0.898660 -0.514157
O13   O     O_R   0.237900 0.972600 0.090980 -0.490550
O14   O     O_R   0.511190 0.220540 0.061620 -0.520043
O15   O     O_R   0.736920 0.257720 0.063840 -0.430296
O16   O     O_R   0.710450 0.984050 0.081720 -0.446410
O17   O     O_R   0.524090 0.765520 0.933110 -0.507991
O18   O     O_R   0.277300 0.791600 0.938160 -0.463125
O19   O     O_R   0.240210 0.981010 0.915190 -0.470987
O20   O     O_2   0.282645 0.645870 0.599391 -0.467237
O21   O     O_R   0.159546 0.471845 0.708906 -0.609393
O22   O     O_2   0.291019 0.569096 0.842517 -0.482569
O23   O     O_R   0.739230 0.266130 0.888050 -0.472309
O24   O     O_R   0.071014 0.529767 0.889758 -0.650351
O25   O     O_2   0.721573 0.114037 0.426256 -0.505120
O26   O     O_R   0.917678 0.206931 0.335390 -0.592419
O27   O     O_2   0.902374 0.204675 0.741107 -0.481573
O28   O     O_R   0.991524 0.125488 0.847468 -0.653242
O29   O     O_R   0.712580 0.991850 0.918770 -0.469994
O30   O     O_3   0.499990 0.999980 0.999980 -0.334459
O31   O     O_R   0.083770 0.911170 0.376030 -0.485146
O32   O     O_R   0.808770 0.880340 0.383890 -0.485102
O33   O     O_R   0.584340 0.689460 0.394160 -0.464909
O34   O     O_R   0.614320 0.443940 0.423590 -0.426607

loop_
_geom_bond_atom_site_label_1
_geom_bond_atom_site_label_2
_ccdc_geom_bond_type
Cr3   O15   S    
C11   C13   A    
C11   F1    S    
C14   C31   S    
C1    O4    A    
C7    C8    A    
Cr4   O6    S    
C12   C23   A    
C1    O13   A    
C16   O16   A    
Cr3   O30   S    
C28   C29   A    
C18   C37   S    
C38   C39   T    
C35   O28   S    
C23   F3    S    
Cr1   O17   S    
C10   C17   A    
Cr2   O12   S    
C20   O3    A    
Cr5   O34   S    
C22   O8    A    
Cr6   O11   S    
C19   O34   A    
C21   O7    A    
C8    C9    A    
C21   O6    A    
C2    C22   S    
Cr5   O33   S    
Cr6   O2    S    
Cr3   O16   S    
C28   C34   A    
C13   C14   A    
Cr1   O4    S    
C27   O17   A    
H8    O28   S    
Cr4   O5    S    
C4    C34   S    
Cr6   O3    S    
Cr5   O11   S    
C18   O32   A    
C15   C32   S    
Cr1   O1    S    
C20   C39   S    
C29   F2    S    
C6    C21   S    
C13   C24   S    
C16   O1    A    
Cr6   O10   S    
C29   C30   A    
C3    C9    A    
C2    C40   T    
C32   O22   D    
H5    O21   S    
C23   C34   A    
Cr2   O14   S    
H7    O26   S    
Cr4   O11   S    
C27   O29   A    
C33   O25   D    
C4    O15   A    
H6    O24   S    
C1    C38   S    
C26   O23   A    
Cr5   O7    S    
C26   O12   A    
C25   O19   A    
C5    F4    S    
Cr2   O30   S    
C7    H3    S    
C4    O14   A    
Cr4   O32   S    
C9    C27   S    
C31   O20   D    
C15   C17   A    
Cr1   O30   S    
C36   C37   T    
C12   C30   A    
C3    C5    A    
C3    H2    S    
C31   O21   S    
C6    C7    A    
C19   O2    A    
C24   O5    A    
C32   O24   S    
C20   O31   A    
C25   O18   A    
C17   C25   S    
Cr3   O29   S    
Cr6   O9    S    
C16   C36   S    
Cr1   O18   S    
C35   O27   D    
C26   C40   S    
C5    C6    A    
Cr3   O23   S    
Cr2   O13   S    
C28   H1    S    
C10   H4    S    
C33   O26   S    
C22   O9    A    
C10   C11   A    
C24   O10   A    
C18   O33   A    
Cr2   O19   S    
Cr5   O8    S    
C14   C15   A    
C12   C33   S    
C19   C30   S    
C8    C35   S    
Cr4   O31   S    
