data_mof_unit_29303.cif
_audit_creation_date              2012-10-26T18:34:00-0400
_audit_creation_method            fapswitch 2.2
_symmetry_space_group_name_H-M    P1
_symmetry_Int_Tables_number       1
_space_group_crystal_system       triclinic
_cell_length_a                    11.087166
_cell_length_b                    10.865127
_cell_length_c                    9.505623
_cell_angle_alpha                 90.409922
_cell_angle_beta                  103.023509
_cell_angle_gamma                 91.044264
_cell_volume                      1115.36635011

loop_
_atom_site_label
_atom_site_type_symbol
_atom_type_description
_atom_site_fract_x
_atom_site_fract_y
_atom_site_fract_z
_atom_type_partial_charge
C1    C     C_R   0.498763 0.262055 0.498906 0.565528
C2    C     C_2   0.874217 0.501468 0.595572 0.232944
C3    C     C_2   0.067628 0.513909 0.512902 -0.119684
C4    C     C_2   0.932672 0.507073 0.486621 -0.102615
C5    C     C_R   0.481464 0.061106 0.366507 0.249839
C6    C     C_R   0.509208 0.938870 0.632174 0.247446
C7    C     C_R   0.479280 0.933330 0.370217 -0.181606
C8    C     C_R   0.511961 0.066687 0.628601 -0.171394
C9    C     C_R   0.496831 0.871808 0.501922 -0.021628
C10   C     C_R   0.497133 0.128199 0.497115 -0.018549
C11   C     C_3   0.908221 0.416549 0.823782 -0.123796
C12   C     C_R   0.499147 0.737954 0.500634 0.560508
C13   C     C_3   0.079710 0.583215 0.175411 -0.119507
C14   C     C_3   0.229658 0.313059 0.834349 -0.012431
C15   C     C_3   0.229777 0.180816 0.888935 -0.281182
C16   C     C_3   0.110261 0.147616 0.935049 -0.473192
C17   C     C_3   0.681225 0.766293 0.156432 -0.009338
C18   C     C_3   0.809333 0.790085 0.126058 -0.268123
C19   C     C_3   0.826506 0.924228 0.086840 -0.479196
C20   C     C_3   0.561357 0.110903 0.173054 -0.127850
C21   C     C_3   0.419475 0.896879 0.820575 -0.125300
C22   C     C_R   0.262451 0.502147 0.440735 0.550707
C23   C     C_R   0.737734 0.499362 0.559389 0.545354
C24   C     C_R   0.421393 0.423823 0.053747 -0.046000
C25   C     C_R   0.580380 0.574189 0.946787 -0.030868
C26   C     C_R   0.419015 0.424368 0.902428 0.364526
C27   C     C_R   0.580145 0.576044 0.096776 0.365991
C28   C     C_2   0.126496 0.504714 0.404741 0.233392
Cu1   Cu    Cu3+1 0.500000 0.500020 0.640660 0.997398
Cu2   Cu    Cu3+1 0.500000 0.499980 0.359340 0.992248
H1    H     H_    0.880263 0.504022 0.375255 0.187716
H2    H     H_    0.160102 0.564778 0.127393 0.150730
H3    H     H_    0.091917 0.674125 0.232635 0.093679
H4    H     H_    0.997640 0.589579 0.084541 0.142550
H5    H     H_    0.158891 0.317381 0.731296 0.169282
H6    H     H_    0.199683 0.379825 0.908374 0.111222
H7    H     H_    0.240700 0.116642 0.801312 0.156885
H8    H     H_    0.309058 0.168564 0.981918 0.200501
H9    H     H_    0.098826 0.208668 0.025171 0.168038
H10   H     H_    0.113883 0.050939 0.972634 0.150885
H11   H     H_    0.029475 0.156256 0.842614 0.138367
H12   H     H_    0.120062 0.526445 0.623446 0.161802
H13   H     H_    0.673673 0.824631 0.250257 0.152729
H14   H     H_    0.607455 0.796358 0.064010 0.120871
H15   H     H_    0.881359 0.767568 0.223686 0.171004
H16   H     H_    0.822061 0.730206 0.035721 0.160616
H17   H     H_    0.755787 0.948750 0.988903 0.180727
H18   H     H_    0.919820 0.938091 0.064382 0.146533
H19   H     H_    0.818477 0.986044 0.177707 0.136097
H20   H     H_    0.648340 0.141655 0.249815 0.124145
H21   H     H_    0.548238 0.172100 0.078124 0.137964
H22   H     H_    0.570153 0.015816 0.133787 0.095765
H23   H     H_    0.362802 0.361372 0.097560 0.149013
H24   H     H_    0.416844 0.825284 0.902367 0.125564
H25   H     H_    0.331205 0.886782 0.737109 0.117008
H26   H     H_    0.425050 0.987937 0.875563 0.110213
H27   H     H_    0.645810 0.630460 0.905899 0.142666
H28   H     H_    0.462457 0.882497 0.268993 0.133322
H29   H     H_    0.526106 0.117484 0.729696 0.152523
H30   H     H_    0.879539 0.328719 0.763090 0.097920
H31   H     H_    0.834688 0.448698 0.876592 0.160572
H32   H     H_    0.988932 0.396747 0.912212 0.133095
N1    N     N_R   0.500030 0.500030 0.852080 -0.245241
N2    N     N_R   0.499970 0.499970 0.147920 -0.246590
O1    O     O_R   0.499990 0.319660 0.618740 -0.477556
O2    O     O_3   0.059307 0.484736 0.263945 -0.589668
O3    O     O_3   0.346012 0.342520 0.804017 -0.534808
O4    O     O_3   0.669451 0.642047 0.196030 -0.537865
O5    O     O_3   0.457358 0.119927 0.234708 -0.565028
O6    O     O_3   0.525099 0.879579 0.763431 -0.562790
O7    O     O_R   0.500010 0.680340 0.381260 -0.500951
O8    O     O_R   0.499990 0.319630 0.381170 -0.460829
O9    O     O_R   0.500010 0.680370 0.618830 -0.454195
O10   O     O_R   0.320690 0.500020 0.575130 -0.493775
O11   O     O_R   0.679310 0.499980 0.424870 -0.479794
O12   O     O_R   0.320680 0.499990 0.337560 -0.508257
O13   O     O_R   0.679320 0.500010 0.662440 -0.514196
O14   O     O_3   0.942715 0.510474 0.737719 -0.602087

loop_
_geom_bond_atom_site_label_1
_geom_bond_atom_site_label_2
_ccdc_geom_bond_type
Cu1   N1    S    
C3    H12   S    
Cu2   N2    S    
C13   H2    S    
C28   O2    S    
C22   O12   A    
C11   H32   S    
C6    C9    A    
Cu2   O7    S    
C26   O3    S    
C3    C28   D    
C24   C26   A    
C20   H21   S    
C8    H29   S    
C14   H6    S    
C21   H24   S    
C19   H17   S    
Cu1   O9    S    
C15   C16   S    
C7    C9    A    
C18   C19   S    
C25   N1    A    
C15   H7    S    
C20   H20   S    
C27   O4    S    
C1    O1    A    
C14   O3    S    
C7    H28   S    
C24   N2    A    
C22   C28   S    
C12   O9    A    
C25   H27   S    
C18   H16   S    
C13   O2    S    
C1    O8    A    
C14   H5    S    
C21   H25   S    
C19   H18   S    
C6    C8    A    
Cu1   O10   S    
C24   H23   S    
C5    O5    S    
C2    C4    D    
C26   N1    A    
C17   H13   S    
C15   H8    S    
C13   H3    S    
Cu1   Cu2   S    
C2    O14   S    
C11   O14   S    
Cu2   O12   S    
C19   H19   S    
C17   C18   S    
C23   O13   A    
C16   H10   S    
Cu1   O1    S    
C12   O7    A    
C20   O5    S    
C22   O10   A    
C3    C4    S    
C18   H15   S    
C5    C7    A    
C6    O6    S    
C17   O4    S    
C1    C10   S    
C23   O11   A    
C11   H31   S    
C21   H26   S    
Cu2   O8    S    
C25   C27   A    
C21   O6    S    
C17   H14   S    
C13   H4    S    
C20   H22   S    
Cu2   O11   S    
C9    C12   S    
C4    H1    S    
C27   N2    A    
C16   H9    S    
C5    C10   A    
Cu1   O13   S    
C8    C10   A    
C2    C23   S    
C14   C15   S    
C16   H11   S    
C11   H30   S    
