data_mof_unit_43116.cif
_audit_creation_date              2012-10-26T20:01:53-0400
_audit_creation_method            fapswitch 2.2
_symmetry_space_group_name_H-M    P1
_symmetry_Int_Tables_number       1
_space_group_crystal_system       triclinic
_cell_length_a                    11.688315
_cell_length_b                    10.877514
_cell_length_c                    9.663524
_cell_angle_alpha                 91.006332
_cell_angle_beta                  90.922051
_cell_angle_gamma                 94.073134
_cell_volume                      1225.14112589

loop_
_atom_site_label
_atom_site_type_symbol
_atom_type_description
_atom_site_fract_x
_atom_site_fract_y
_atom_site_fract_z
_atom_type_partial_charge
C1    C     C_R   0.505007 0.262474 0.498867 0.593624
C2    C     C_R   0.470142 0.869195 0.504067 0.005567
C3    C     C_R   0.635292 0.679940 0.155211 -0.066286
C4    C     C_R   0.284260 0.499188 0.499112 0.546666
C5    C     C_R   0.677624 0.787559 0.096308 -0.193708
C6    C     C_R   0.671293 0.798625 0.955717 -0.149622
C7    C     C_R   0.633791 0.696788 0.872334 0.054693
C8    C     C_R   0.566820 0.592739 0.929997 0.146588
C9    C     C_R   0.566434 0.589802 0.079335 0.150797
C10   C     C_R   0.436928 0.414250 0.070452 0.001860
C11   C     C_R   0.437477 0.413775 0.923209 -0.012604
C12   C     C_R   0.551476 0.069285 0.870802 -0.127505
C13   C     C_R   0.487736 0.735983 0.501201 0.547542
C14   C     C_R   0.715592 0.498793 0.500629 0.548668
C15   C     C_1   0.162403 0.498694 0.497729 -0.011404
C16   C     C_1   0.059798 0.498235 0.498524 -0.029532
C17   C     C_1   0.939911 0.497863 0.500377 -0.007871
C18   C     C_1   0.837357 0.497952 0.501409 0.033707
C19   C     C_R   0.579485 0.118457 0.741968 0.127454
C20   C     C_2   0.714037 0.691926 0.758643 0.295712
C21   C     C_R   0.478683 0.962702 0.877451 -0.150695
C22   C     C_R   0.451046 0.893586 0.757548 -0.105053
C23   C     C_R   0.483746 0.939614 0.627697 -0.046406
C24   C     C_R   0.526308 0.063407 0.620630 0.025628
C25   C     C_R   0.507136 0.127004 0.496293 0.023117
C26   C     C_R   0.467301 0.059157 0.376089 0.067520
C27   C     C_R   0.452295 0.930076 0.379646 0.076896
Cu1   Cu    Cu3+1 0.499990 0.499990 0.640660 0.946570
Cu2   Cu    Cu3+1 0.500010 0.500010 0.359340 0.957402
H1    H     H_    0.716198 0.879366 0.911876 0.126324
H2    H     H_    0.491515 0.088418 0.171678 0.219672
H3    H     H_    0.702340 0.744457 0.665742 0.096639
H4    H     H_    0.651633 0.285762 0.803187 0.261658
H5    H     H_    0.745384 0.179666 0.768216 0.217847
H6    H     H_    0.477075 0.872147 0.184560 0.230426
H7    H     H_    0.337055 0.891882 0.221194 0.225122
H8    H     H_    0.385853 0.342832 0.866323 0.126243
H9    H     H_    0.586493 0.113692 0.964724 0.106134
H10   H     H_    0.450253 0.928452 0.975447 0.110249
H11   H     H_    0.399881 0.807439 0.767083 0.156139
H12   H     H_    0.384493 0.343968 0.122405 0.135112
H13   H     H_    0.658323 0.672905 0.261213 0.184788
H14   H     H_    0.722271 0.859686 0.159326 0.124427
H15   H     H_    0.354698 0.102174 0.224685 0.220748
N1    N     N_R   0.501070 0.501210 0.147910 -0.240671
N2    N     N_R   0.501110 0.501290 0.852040 -0.254406
N3    N     N_3   0.441362 0.121053 0.250677 -0.616478
N4    N     N_3   0.669258 0.214937 0.733808 -0.596760
N5    N     N_3   0.413824 0.860261 0.258484 -0.595067
O1    O     O_R   0.499990 0.319640 0.618810 -0.497562
O2    O     O_R   0.500000 0.319660 0.381240 -0.463743
O3    O     O_R   0.337190 0.500000 0.618790 -0.498805
O4    O     O_R   0.337200 0.500030 0.381210 -0.487118
O5    O     O_R   0.500000 0.680340 0.618760 -0.549025
O6    O     O_R   0.500010 0.680360 0.381190 -0.484806
O7    O     O_R   0.662800 0.499970 0.618790 -0.462010
O8    O     O_R   0.662810 0.500000 0.381210 -0.534680
O9    O     O_2   0.803174 0.641326 0.775553 -0.509722

loop_
_geom_bond_atom_site_label_1
_geom_bond_atom_site_label_2
_ccdc_geom_bond_type
H6    N5    S    
C14   O7    A    
C23   C24   A    
C14   O8    A    
C3    H13   S    
C9    N1    A    
C6    C7    A    
C3    C9    A    
C4    O4    A    
C1    O2    A    
C1    O1    A    
C14   C18   S    
C21   H10   S    
H15   N3    S    
C22   H11   S    
C10   N1    A    
C19   C24   A    
Cu1   O7    S    
C7    C8    A    
H2    N3    S    
C21   C22   A    
C10   H12   S    
C1    C25   S    
Cu1   O3    S    
Cu1   N2    S    
C26   C27   A    
C2    C27   A    
Cu2   O4    S    
C26   N3    S    
C4    O3    A    
C20   H3    S    
C12   C19   A    
C2    C13   S    
Cu1   Cu2   S    
C6    H1    S    
Cu2   O8    S    
C17   C18   T    
C4    C15   S    
C5    H14   S    
C5    C6    A    
C8    N2    A    
H5    N4    S    
C10   C11   A    
C20   O9    D    
C15   C16   T    
C12   H9    S    
C24   C25   A    
C13   O5    A    
Cu2   O2    S    
C2    C23   A    
C11   H8    S    
H4    N4    S    
Cu1   O5    S    
C19   N4    S    
C16   C17   S    
C11   N2    A    
Cu2   O6    S    
C3    C5    A    
C25   C26   A    
C22   C23   A    
Cu1   O1    S    
C12   C21   A    
C7    C20   S    
H7    N5    S    
C27   N5    S    
Cu2   N1    S    
C8    C9    A    
C13   O6    A    
