data_mof_unit_48779.cif
_audit_creation_date              2012-12-11T17:19:17-0500
_audit_creation_method            fapswitch 2.2
_symmetry_space_group_name_H-M    P1
_symmetry_Int_Tables_number       1
_space_group_crystal_system       triclinic
_cell_length_a                    14.685663
_cell_length_b                    7.258311
_cell_length_c                    13.419767
_cell_angle_alpha                 89.999713
_cell_angle_beta                  99.894306
_cell_angle_gamma                 90.000191
_cell_volume                      1409.17869028

loop_
_atom_site_label
_atom_site_type_symbol
_atom_type_description
_atom_site_fract_x
_atom_site_fract_y
_atom_site_fract_z
_atom_type_partial_charge
O1    O     O_R   0.648180 0.355050 0.151550 -0.535054
O2    O     O_R   0.351820 0.644950 0.848450 -0.535054
O3    O     O_R   0.851820 0.855050 0.348450 -0.535055
O4    O     O_R   0.148180 0.144950 0.651550 -0.535055
O5    O     O_R   0.835240 0.681980 0.154280 -0.537925
O6    O     O_R   0.164760 0.318020 0.845720 -0.537925
O7    O     O_R   0.664760 0.181980 0.345720 -0.537921
O8    O     O_R   0.335240 0.818020 0.654280 -0.537921
C1    C     C_R   0.863213 0.516113 0.132660 0.664331
C2    C     C_R   0.136787 0.483887 0.867340 0.664331
C3    C     C_R   0.636787 0.016112 0.367340 0.664330
C4    C     C_R   0.363213 0.983888 0.632660 0.664329
O9    O     O_R   0.647870 0.684600 0.139630 -0.519807
O10   O     O_R   0.352130 0.315400 0.860370 -0.519807
O11   O     O_R   0.852130 0.184600 0.360370 -0.519805
O12   O     O_R   0.147870 0.815400 0.639630 -0.519805
O13   O     O_R   0.663110 0.857440 0.333700 -0.537058
O14   O     O_R   0.336890 0.142560 0.666300 -0.537058
O15   O     O_R   0.836890 0.357440 0.166300 -0.537057
O16   O     O_R   0.163110 0.642560 0.833700 -0.537057
C5    C     C_R   0.615080 0.515995 0.113161 0.725704
C6    C     C_R   0.384920 0.484005 0.886839 0.725704
C7    C     C_R   0.884920 0.015995 0.386839 0.725703
C8    C     C_R   0.115080 0.984005 0.613161 0.725703
H1    H     H_    0.508600 0.948107 0.761217 0.152859
H2    H     H_    0.491400 0.051893 0.238783 0.152859
H3    H     H_    0.991400 0.448082 0.738784 0.152861
H4    H     H_    0.008600 0.551917 0.261216 0.152861
O17   O     O_3   0.755220 0.522230 0.313690 -0.373273
O18   O     O_3   0.244780 0.477770 0.686310 -0.373273
O19   O     O_3   0.744780 0.022230 0.186310 -0.373275
O20   O     O_3   0.255220 0.977770 0.813690 -0.373275
V1    V     V_3+5 0.749030 0.796100 0.238190 1.517142
V2    V     V_3+5 0.250970 0.203900 0.761810 1.517142
V3    V     V_3+5 0.750970 0.296100 0.261810 1.517150
V4    V     V_3+5 0.249030 0.703900 0.738190 1.517150
C9    C     C_1   0.966004 0.005366 0.466780 -0.000881
C10   C     C_1   0.033996 0.994634 0.533220 -0.000881
C11   C     C_1   0.533996 0.505366 0.033220 -0.000899
C12   C     C_1   0.466004 0.494634 0.966780 -0.000899
C13   C     C_R   0.558522 0.951502 0.710580 -0.102245
C14   C     C_R   0.441478 0.048498 0.289420 -0.102245
C15   C     C_R   0.941477 0.451487 0.789421 -0.102247
C16   C     C_R   0.058523 0.548512 0.210579 -0.102247
C17   C     C_R   0.652621 0.936092 0.752851 -0.052673
C18   C     C_R   0.347379 0.063908 0.247149 -0.052673
C19   C     C_R   0.847379 0.436077 0.747151 -0.052678
C20   C     C_R   0.152621 0.563923 0.252849 -0.052678
C21   C     C_R   0.719269 0.941213 0.688361 -0.075654
C22   C     C_R   0.280731 0.058787 0.311639 -0.075654
C23   C     C_R   0.780731 0.441214 0.811640 -0.075652
C24   C     C_R   0.219269 0.558786 0.188360 -0.075652
C25   C     C_R   0.689839 0.965702 0.583840 -0.148644
C26   C     C_R   0.310161 0.034298 0.416160 -0.148644
C27   C     C_R   0.810161 0.465710 0.916161 -0.148649
C28   C     C_R   0.189839 0.534290 0.083839 -0.148649
C29   C     C_R   0.595355 0.982872 0.541055 0.024281
C30   C     C_R   0.404645 0.017128 0.458945 0.024281
C31   C     C_R   0.904645 0.482875 0.958945 0.024284
C32   C     C_R   0.095355 0.517125 0.041055 0.024284
C33   C     C_R   0.528450 0.975006 0.605560 0.023034
C34   C     C_R   0.471550 0.024994 0.394440 0.023034
C35   C     C_R   0.971550 0.475001 0.894440 0.023031
C36   C     C_R   0.028450 0.524999 0.105560 0.023031
C37   C     C_R   0.567001 0.007684 0.435337 -0.141079
C38   C     C_R   0.432999 0.992316 0.564662 -0.141079
C39   C     C_R   0.932999 0.507687 0.064662 -0.141081
C40   C     C_R   0.067001 0.492313 0.935338 -0.141081
H5    H     H_    0.741809 0.969516 0.535652 0.143789
H6    H     H_    0.258191 0.030484 0.464347 0.143789
H7    H     H_    0.758190 0.469533 0.964347 0.143780
H8    H     H_    0.241810 0.530467 0.035653 0.143780
C41   C     C_2   0.679159 0.922110 0.864799 0.419503
H9    H     H_    0.749468 0.946647 0.902152 0.016975
O21   O     O_2   0.621722 0.885375 0.917672 -0.514617
C42   C     C_2   0.320841 0.077890 0.135201 0.419503
H10   H     H_    0.250532 0.053352 0.097848 0.016976
O22   O     O_2   0.378278 0.114625 0.082327 -0.514617
C43   C     C_2   0.820839 0.422078 0.635203 0.419495
H11   H     H_    0.750529 0.446597 0.597851 0.016992
O23   O     O_2   0.878277 0.385347 0.582330 -0.514625
C44   C     C_2   0.179161 0.577922 0.364797 0.419495
H12   H     H_    0.249471 0.553403 0.402149 0.016992
O24   O     O_2   0.121723 0.614653 0.417670 -0.514625
C45   C     C_2   0.180342 0.083373 0.272452 0.337582
H13   H     H_    0.156113 0.137159 0.197370 0.049371
O25   O     O_2   0.122586 0.046140 0.324773 -0.535643
C46   C     C_2   0.819658 0.916627 0.727548 0.337582
H14   H     H_    0.843887 0.862841 0.802630 0.049371
O26   O     O_2   0.877413 0.953859 0.675227 -0.535643
C47   C     C_2   0.319658 0.583360 0.227547 0.337564
H15   H     H_    0.343886 0.637207 0.302615 0.049370
O27   O     O_2   0.377415 0.546046 0.175241 -0.535634
C48   C     C_2   0.680342 0.416640 0.772453 0.337564
H16   H     H_    0.656113 0.362793 0.697384 0.049370
O28   O     O_2   0.622585 0.453954 0.824759 -0.535634

loop_
_geom_bond_atom_site_label_1
_geom_bond_atom_site_label_2
_ccdc_geom_bond_type
C30   C34   A    
C16   C20   A    
O1    C5    A    
C27   C31   A    
C41   H9    S    
O3    C7    A    
C19   C43   S    
C25   H5    S    
C18   C42   S    
C15   C35   A    
C45   H13   S    
C16   C36   A    
O7    C3    A    
H2    C14   S    
C22   C26   A    
C42   O22   D    
O8    V4    S    
O4    C8    A    
O3    V1    S    
C17   C41   S    
C14   C18   A    
C22   C45   S    
C31   C39   A    
C33   C38   A    
C30   C38   A    
C2    O16   A    
C28   H8    S    
C5    C11   S    
O2    C6    A    
C8    C10   S    
O19   V1    S    
C13   C33   A    
C14   C34   A    
O11   C7    A    
O12   C8    A    
C41   O21   D    
C21   C46   S    
O13   V1    S    
O11   V3    S    
C1    O15   A    
C45   O25   D    
O4    V2    S    
C36   C39   A    
C42   H10   S    
H1    C13   S    
C47   H15   S    
C43   O23   D    
C25   C29   A    
C19   C23   A    
C7    C9    S    
C4    C38   S    
H4    C16   S    
O6    V2    S    
O5    V1    S    
O20   V2    S    
C1    C39   S    
O5    C1    A    
C9    C10   T    
C47   O27   D    
C26   H6    S    
C17   C21   A    
O8    C4    A    
C6    C12   S    
O9    C5    A    
C48   O28   D    
O14   V2    S    
C46   O26   D    
C44   H12   S    
C44   O24   D    
C11   C12   T    
O1    V3    S    
C26   C30   A    
O2    V4    S    
O17   V3    S    
C35   C40   A    
C3    O13   A    
C34   C37   A    
O7    V3    S    
C29   C37   A    
O10   V2    S    
C29   C33   A    
C2    C40   S    
C18   C22   A    
C31   C35   A    
O18   V4    S    
C32   C36   A    
O10   C6    A    
O15   V3    S    
O12   V4    S    
C24   C28   A    
C21   C25   A    
C20   C44   S    
C23   C27   A    
C48   H16   S    
O6    C2    A    
C23   C48   S    
C43   H11   S    
O16   V4    S    
H3    C15   S    
C20   C24   A    
C28   C32   A    
C46   H14   S    
C32   C40   A    
O9    V1    S    
C4    O14   A    
C13   C17   A    
C24   C47   S    
C15   C19   A    
C27   H7    S    
C3    C37   S    
