data_mof_unit_51877.cif
_audit_creation_date              2013-03-05T16:08:07-0500
_audit_creation_method            fapswitch 2.2
_symmetry_space_group_name_H-M    P1
_symmetry_Int_Tables_number       1
_space_group_crystal_system       triclinic
_cell_length_a                    6.966901
_cell_length_b                    14.508162
_cell_length_c                    15.963952
_cell_angle_alpha                 90.429908
_cell_angle_beta                  90.218604
_cell_angle_gamma                 90.175678
_cell_volume                      1613.5223388

loop_
_atom_site_label
_atom_site_type_symbol
_atom_site_description
_atom_site_fract_x
_atom_site_fract_y
_atom_site_fract_z
_atom_type_partial_charge
O1    O     O_R   0.494400 0.415450 0.412630 -0.594395
O2    O     O_R   0.823940 0.405730 0.586760 -0.599353
O3    O     O_R   0.994240 0.584550 0.587370 -0.583555
C1    C     C_R   0.655209 0.383509 0.615179 0.947542
O4    O     O_R   0.824110 0.404430 0.413240 -0.599970
O5    O     O_R   0.994420 0.583240 0.412620 -0.590056
C2    C     C_R   0.655109 0.382194 0.384337 0.942477
O6    O     O_R   0.494230 0.416760 0.587380 -0.603200
O7    O     O_3   0.660800 0.558670 0.500000 -0.258307
V1    V     V_3+5 0.935650 0.489120 0.500000 1.166598
O8    O     O_R   0.324140 0.594270 0.413240 -0.595660
C3    C     C_R   0.154831 0.617344 0.385372 0.945726
O9    O     O_R   0.323960 0.595570 0.586760 -0.584952
C4    C     C_R   0.155946 0.616696 0.616095 0.952911
V2    V     V_3+5 0.435660 0.510880 0.500000 1.176574
O10   O     O_3   0.160640 0.441330 0.500000 -0.287390
C5    C     C_3   0.996919 0.684831 0.756111 -0.002379
C6    C     C_3   0.154650 0.708137 0.821600 -0.283221
H1    H     H_    0.172916 0.674243 0.883235 0.137152
C7    C     C_3   0.116104 0.812044 0.807958 -0.278749
C8    C     C_3   0.961002 0.787612 0.742800 0.414885
C9    C     C_3   0.109285 0.789842 0.671806 -0.247801
C10   C     C_3   0.267059 0.814193 0.737404 -0.046885
C11   C     C_3   0.306137 0.709783 0.750360 0.009711
C12   C     C_3   0.146733 0.686364 0.685880 -0.192091
H2    H     H_    0.089745 0.823580 0.610169 0.153427
H3    H     H_    0.371813 0.870918 0.729639 0.201430
H4    H     H_    0.449709 0.677470 0.753160 0.147178
C13   C     C_R   0.255488 0.742096 0.181982 0.127253
C14   C     C_R   0.117215 0.811753 0.179875 -0.205827
C15   C     C_R   0.979088 0.812760 0.244156 -0.201316
H5    H     H_    0.867889 0.864889 0.243747 0.131475
C16   C     C_R   0.992527 0.752014 0.312816 0.061657
C17   C     C_R   0.141051 0.685141 0.316307 -0.279772
C18   C     C_R   0.265503 0.679614 0.247656 0.088601
C19   C     C_3   0.479736 0.678756 0.245412 -0.149053
C20   C     C_3   0.468492 0.746829 0.173224 -0.501617
H6    H     H_    0.545565 0.707252 0.303349 0.152644
H7    H     H_    0.516982 0.719144 0.111678 0.190648
H8    H     H_    0.527088 0.816014 0.189760 0.193496
C21   C     C_R   0.493397 0.249935 0.685639 0.105976
C22   C     C_R   0.647159 0.312090 0.680676 -0.234992
C23   C     C_R   0.798531 0.301748 0.738508 -0.124243
H9    H     H_    0.920527 0.347858 0.736786 0.125009
C24   C     C_R   0.787528 0.236143 0.802903 -0.168641
H10   H     H_    0.902237 0.233030 0.848612 0.129727
C25   C     C_R   0.624009 0.179676 0.811711 -0.214823
C26   C     C_R   0.481869 0.185541 0.749815 0.187294
C27   C     C_3   0.270489 0.198012 0.758488 -0.543015
C28   C     C_3   0.283173 0.268354 0.688251 -0.184951
H11   H     H_    0.232782 0.229459 0.819904 0.185433
H12   H     H_    0.189729 0.133954 0.742375 0.203696
H13   H     H_    0.249255 0.340190 0.707627 0.135762
C29   C     C_R   0.494085 0.248971 0.310113 0.142670
C30   C     C_R   0.647143 0.311336 0.317112 -0.203597
C31   C     C_R   0.797839 0.302220 0.259022 -0.142124
H14   H     H_    0.919594 0.348469 0.262147 0.129153
C32   C     C_R   0.786170 0.237959 0.192496 -0.143394
H15   H     H_    0.899784 0.236144 0.146565 0.124102
C33   C     C_R   0.623881 0.180725 0.182310 -0.228029
C34   C     C_R   0.482885 0.185058 0.244544 0.115801
C35   C     C_3   0.271334 0.197079 0.236171 -0.179097
C36   C     C_3   0.283446 0.266549 0.308148 -0.509272
H16   H     H_    0.228842 0.227289 0.175151 0.135118
H17   H     H_    0.212160 0.244532 0.366981 0.202245
H18   H     H_    0.250800 0.338246 0.288749 0.185548
O11   O     O_R   0.771650 0.079500 0.908680 -0.584126
O12   O     O_R   0.441690 0.091800 0.082800 -0.603343
O13   O     O_R   0.271460 0.912980 0.083410 -0.595204
C37   C     C_R   0.610957 0.114117 0.111673 0.921308
O14   O     O_R   0.441930 0.090510 0.909280 -0.602117
O15   O     O_R   0.271690 0.911670 0.908660 -0.583223
C38   C     C_R   0.610950 0.112764 0.880898 0.987581
O16   O     O_R   0.771410 0.080810 0.083440 -0.598534
O17   O     O_3   0.605100 0.937580 0.996050 -0.260400
V3    V     V_3+5 0.330220 0.007110 0.996030 1.162500
O18   O     O_R   0.941980 0.900620 0.909250 -0.555851
C39   C     C_R   0.109416 0.880700 0.878868 0.986494
O19   O     O_R   0.941740 0.901920 0.082770 -0.602910
C40   C     C_R   0.110426 0.880228 0.111684 0.947413
V4    V     V_3+5 0.830220 0.985300 0.996000 1.188355
O20   O     O_3   0.105210 0.054870 0.996020 -0.293959
C41   C     C_1   0.186423 0.238411 0.610598 0.175492
N1    N     N_1   0.110068 0.214953 0.549526 -0.092359
C42   C     C_1   0.850753 0.613097 0.768126 0.063492
N2    N     N_1   0.736609 0.556054 0.777587 -0.112660
C43   C     C_1   0.166501 0.112382 0.257592 0.143864
N3    N     N_1   0.083700 0.045832 0.274428 -0.103647
N4    N     N_R   0.772824 0.828410 0.730241 0.210859
O21   O     O_R   0.673076 0.803295 0.664901 -0.446548
O22   O     O_R   0.722327 0.901408 0.772239 -0.437277
C44   C     C_1   0.864834 0.766298 0.382759 0.042872
N5    N     N_1   0.762976 0.777882 0.438951 -0.042018
C45   C     C_1   0.555108 0.588009 0.220736 0.106650
N6    N     N_1   0.614638 0.516624 0.201336 -0.109897

loop_
_geom_bond_atom_site_label_1
_geom_bond_atom_site_label_2
_geom_bond_distance
_ccdc_geom_bond_type
C43   N3    1.157102 T    
C36   H17   1.112609 S    
C21   C22   1.400993 A    
C18   C19   1.493192 S    
C2    C30   1.481311 S    
C30   C31   1.409310 A    
V4    O20   2.162702 S    
C8    N4    1.453904 S    
C24   H10   1.081394 S    
C35   C36   1.524660 S    
C6    C11   1.554742 S    
C19   C20   1.525258 S    
C17   C18   1.402023 A    
C20   H8    1.111994 S    
C42   N2    1.157092 T    
C14   C15   1.409505 A    
C13   C20   1.492507 S    
C29   C36   1.490519 S    
C32   C33   1.408946 A    
V2    O10   2.162755 S    
C31   H14   1.080706 S    
O13   V3    2.001984 S    
C6    H1    1.110331 S    
C1    O6    1.300083 A    
C35   H16   1.110694 S    
O8    V2    2.002091 S    
C25   C26   1.399480 A    
C27   H11   1.111042 S    
C9    C12   1.542526 S    
C37   O16   1.300057 A    
O15   C39   1.302226 A    
C10   C11   1.555089 S    
C15   C16   1.414610 A    
O11   C38   1.298384 A    
C10   H3    1.106258 S    
N4    O22   1.299365 A    
O7    V1    2.167182 S    
O15   V3    1.998039 S    
C14   C40   1.479990 S    
C36   H18   1.111463 S    
C8    C9    1.536892 S    
C34   C35   1.490288 S    
C28   C41   1.470900 S    
C16   C17   1.421838 A    
C24   C25   1.409240 A    
C28   H13   1.111283 S    
C11   C12   1.546625 S    
C25   C38   1.478831 S    
C16   C44   1.444418 S    
V3    O20   1.715874 S    
O4    C2    1.301749 A    
O17   V4    1.712461 S    
C32   H15   1.081275 S    
O18   C39   1.297608 A    
C5    C8    1.529046 S    
C33   C34   1.400999 A    
O2    C1    1.302147 A    
O17   V3    2.167230 S    
C13   C14   1.398810 A    
C41   N1    1.157277 T    
C7    C10   1.544334 S    
C33   C37   1.481856 S    
C27   H12   1.112911 S    
C5    C6    1.548725 S    
C23   C24   1.408340 A    
O3    C4    1.298695 A    
O1    V2    2.002148 S    
C26   C27   1.491129 S    
O11   V4    2.001279 S    
O6    V2    2.001152 S    
O9    V2    2.005531 S    
C23   H9    1.080566 S    
C5    C42   1.467948 S    
C22   C23   1.408074 A    
O16   V4    2.003819 S    
C3    C17   1.486053 S    
O2    V1    2.003827 S    
C21   C28   1.490280 S    
O19   V4    2.002115 S    
C29   C30   1.399964 A    
O1    C2    1.301649 A    
C15   H5    1.084352 S    
C11   H4    1.106859 S    
O5    V1    2.001901 S    
O8    C3    1.304608 A    
C29   C34   1.394968 A    
O12   V3    1.997988 S    
C35   C43   1.470732 S    
C13   C18   1.392788 A    
C7    C39   1.503182 S    
C5    C12   1.534942 S    
C19   H6    1.107506 S    
O7    V2    1.712992 S    
O4    V1    1.998068 S    
C20   H7    1.112748 S    
O3    V1    1.998023 S    
V1    O10   1.715925 S    
O5    C3    1.298662 A    
O14   V3    2.003804 S    
C1    C22   1.478634 S    
C44   N5    1.157513 T    
C21   C26   1.394061 A    
C31   C32   1.409855 A    
C6    C7    1.548886 S    
C4    C12   1.500301 S    
C45   N6    1.157298 T    
O18   V4    2.005499 S    
O19   C40   1.301360 A    
C19   C45   1.470479 S    
C7    C8    1.535843 S    
O12   C37   1.303540 A    
C27   C28   1.524426 S    
C9    H2    1.110374 S    
O14   C38   1.303868 A    
C9    C10   1.553375 S    
O13   C40   1.300770 A    
N4    O21   1.300359 A    
O9    C4    1.299089 A    
