data_mof_unit_68573.cif
_audit_creation_date              2012-12-11T14:03:37-0500
_audit_creation_method            fapswitch 2.2
_symmetry_space_group_name_H-M    P1
_symmetry_Int_Tables_number       1
_space_group_crystal_system       triclinic
_cell_length_a                    6.971672
_cell_length_b                    11.592842
_cell_length_c                    18.670266
_cell_angle_alpha                 89.941568
_cell_angle_beta                  93.063393
_cell_angle_gamma                 90.086915
_cell_volume                      1506.80007943

loop_
_atom_site_label
_atom_site_type_symbol
_atom_type_description
_atom_site_fract_x
_atom_site_fract_y
_atom_site_fract_z
_atom_type_partial_charge
O1    O     O_R   0.330540 0.606360 0.598870 -0.514328
O2    O     O_R   0.669460 0.106360 0.401130 -0.514935
O3    O     O_R   0.026770 0.620470 0.750430 -0.536756
O4    O     O_R   0.973230 0.120470 0.249570 -0.527838
O5    O     O_R   0.856460 0.393640 0.750930 -0.517004
O6    O     O_R   0.143540 0.893640 0.249070 -0.518256
C1    C     C_R   0.200332 0.649400 0.772890 0.834470
C2    C     C_R   0.800280 0.152258 0.228619 0.832755
O7    O     O_R   0.000920 0.620350 0.599420 -0.550630
O8    O     O_R   0.999080 0.120350 0.400580 -0.550735
O9    O     O_R   0.830430 0.393520 0.598850 -0.577110
O10   O     O_R   0.169570 0.893520 0.401150 -0.577422
C3    C     C_R   0.167696 0.653347 0.578027 0.789933
C4    C     C_R   0.832351 0.153319 0.422032 0.789098
O11   O     O_R   0.356570 0.606480 0.750960 -0.539189
O12   O     O_R   0.643430 0.106480 0.249040 -0.536707
O13   O     O_3   0.176990 0.425580 0.674890 -0.375261
O14   O     O_3   0.823010 0.925580 0.325110 -0.378228
V1    V     V_3+5 0.902170 0.513810 0.674910 1.486611
V2    V     V_3+5 0.097830 0.013810 0.325090 1.485160
O15   O     O_R   0.500800 0.379530 0.599380 -0.519893
O16   O     O_R   0.499200 0.879530 0.400620 -0.519554
C5    C     C_R   0.667212 0.353910 0.573649 0.678219
C6    C     C_R   0.332688 0.853971 0.426354 0.678229
O17   O     O_R   0.526650 0.379650 0.750390 -0.539263
O18   O     O_R   0.473350 0.879650 0.249610 -0.544140
C7    C     C_R   0.697661 0.359817 0.777876 0.805876
C8    C     C_R   0.301514 0.857581 0.223071 0.814346
V3    V     V_3+5 0.402160 0.486190 0.674900 1.539832
V4    V     V_3+5 0.597840 0.986190 0.325100 1.530025
O19   O     O_3   0.677210 0.574420 0.674910 -0.390552
O20   O     O_3   0.322790 0.074420 0.325090 -0.386465
C9    C     C_R   0.640162 0.095896 0.887087 -0.156010
C10   C     C_R   0.288005 0.581806 0.121441 -0.142375
H1    H     H_    0.575539 0.144510 0.778396 0.142620
H2    H     H_    0.339310 0.630733 0.230984 0.136626
H3    H     H_    0.588195 0.010368 0.875310 0.143789
H4    H     H_    0.304447 0.492694 0.136715 0.145161
C11   C     C_R   0.707920 0.282378 0.839579 -0.122587
C12   C     C_R   0.284746 0.777136 0.162919 -0.125456
C13   C     C_R   0.731735 0.350415 0.185044 0.092705
C14   C     C_R   0.254850 0.846037 0.818555 0.091894
C15   C     C_R   0.774393 0.435704 0.134703 0.121895
C16   C     C_R   0.192662 0.926470 0.868541 0.112588
C17   C     C_R   0.795124 0.401965 0.063140 -0.201943
C18   C     C_R   0.167382 0.889196 0.939179 -0.172689
C19   C     C_R   0.787582 0.284134 0.042067 -0.003826
C20   C     C_R   0.204996 0.773336 0.960534 -0.016048
C21   C     C_R   0.795427 0.199906 0.097462 -0.112240
C22   C     C_R   0.213145 0.690104 0.905175 -0.122710
C23   C     C_R   0.762104 0.246655 0.968982 -0.067147
C24   C     C_R   0.231804 0.737391 0.033833 -0.072476
C25   C     C_R   0.713560 0.128307 0.955742 -0.066297
C26   C     C_R   0.253529 0.616884 0.049522 -0.078924
C27   C     C_R   0.738054 0.044161 0.010565 0.039117
C28   C     C_R   0.246258 0.533070 0.993942 0.054431
C29   C     C_R   0.798194 0.081388 0.079573 0.632315
C30   C     C_R   0.221510 0.571154 0.922503 0.660358
C31   C     C_R   0.768729 0.321535 0.908185 0.550667
C32   C     C_R   0.251089 0.816736 0.092464 0.567480
C33   C     C_R   0.631840 0.172886 0.830698 -0.302935
C34   C     C_R   0.308088 0.660907 0.176630 -0.323156
C35   C     C_R   0.781084 0.235498 0.169692 -0.134212
C36   C     C_R   0.222772 0.728878 0.833157 -0.108281
H5    H     H_    0.803523 0.470923 0.025207 0.210708
H6    H     H_    0.117889 0.952321 0.975965 0.210520
C37   C     C_2   0.827061 0.253193 0.472651 -0.172260
C38   C     C_2   0.172629 0.753075 0.527315 -0.172478
C39   C     C_2   0.675561 0.264811 0.516524 0.367670
C40   C     C_2   0.324270 0.765020 0.483560 0.368618
F1    F     F_    0.526613 0.188615 0.511844 -0.697690
F2    F     F_    0.473556 0.689331 0.488499 -0.698249
C41   C     C_3   0.692696 0.917038 0.993228 -0.321213
C42   C     C_3   0.721384 0.826569 0.052255 -0.597230
H7    H     H_    0.874569 0.819050 0.069514 0.250750
H8    H     H_    0.636021 0.847325 0.098869 0.263523
H9    H     H_    0.672685 0.741379 0.030971 0.171711
H10   H     H_    0.539450 0.911870 0.975193 0.203094
H11   H     H_    0.778042 0.889161 0.947851 0.166983
C43   C     C_3   0.277016 0.404905 0.013502 -0.316528
C44   C     C_3   0.280550 0.314646 0.954072 -0.587801
H12   H     H_    0.140639 0.308193 0.924030 0.267776
H13   H     H_    0.393002 0.335153 0.916711 0.249858
H14   H     H_    0.313099 0.228773 0.978188 0.184106
H15   H     H_    0.416959 0.397286 0.043827 0.173669
H16   H     H_    0.165785 0.377469 0.050021 0.186895
F3    F     F_    0.833742 0.431491 0.912978 -0.711101
F4    F     F_    0.254183 0.932680 0.083109 -0.715265
C45   C     C_3   0.621480 0.378547 0.251291 -0.382725
C46   C     C_3   0.421619 0.322436 0.249277 -0.693149
H17   H     H_    0.398642 0.259725 0.204681 0.238123
H18   H     H_    0.402217 0.278397 0.300971 0.233033
H19   H     H_    0.307165 0.388639 0.243134 0.182517
H20   H     H_    0.706539 0.351589 0.300371 0.150122
H21   H     H_    0.592685 0.471494 0.256039 0.201746
C47   C     C_3   0.356802 0.883055 0.751704 -0.382244
C48   C     C_3   0.567320 0.845163 0.754355 -0.742775
H22   H     H_    0.633954 0.849685 0.809564 0.214787
H23   H     H_    0.582112 0.756499 0.734543 0.257831
H24   H     H_    0.648936 0.901422 0.718628 0.205535
H25   H     H_    0.281182 0.848695 0.702487 0.152271
H26   H     H_    0.361381 0.977882 0.746118 0.199767
C49   C     C_3   0.793751 0.562768 0.154229 -0.363934
C50   C     C_3   0.912110 0.586464 0.224369 -0.719484
H27   H     H_    0.827679 0.581273 0.272619 0.204735
H28   H     H_    0.034223 0.525634 0.231089 0.223167
H29   H     H_    0.963678 0.676820 0.223945 0.235661
H30   H     H_    0.864628 0.609217 0.110821 0.187528
H31   H     H_    0.651892 0.601995 0.157819 0.201175
C51   C     C_3   0.145179 0.049877 0.847191 -0.355948
C52   C     C_3   0.002761 0.055994 0.782010 -0.745399
H32   H     H_    0.059351 0.020833 0.732455 0.209548
H33   H     H_    0.872509 0.006033 0.792732 0.236587
H34   H     H_    0.967081 0.147375 0.770353 0.230357
H35   H     H_    0.081876 0.096435 0.892158 0.185392
H36   H     H_    0.275823 0.097582 0.834819 0.195750
F5    F     F_    0.850096 0.002248 0.130308 -0.686050
F6    F     F_    0.210868 0.492104 0.869154 -0.683088
C53   C     C_3   0.985509 0.345830 0.472361 -0.382860
C54   C     C_3   0.107184 0.351014 0.406479 -0.699468
H37   H     H_    0.219284 0.283129 0.409542 0.266339
H38   H     H_    0.016773 0.342785 0.356044 0.191992
H39   H     H_    0.183051 0.435309 0.405398 0.211014
H40   H     H_    0.916599 0.432080 0.475033 0.187189
H41   H     H_    0.084714 0.334546 0.520437 0.227160
C55   C     C_3   0.012864 0.844740 0.527063 -0.383039
C56   C     C_3   0.889983 0.849726 0.592675 -0.693587
H42   H     H_    0.777872 0.781577 0.589900 0.272547
H43   H     H_    0.979667 0.842035 0.643268 0.190118
H44   H     H_    0.813949 0.933855 0.593301 0.207939
H45   H     H_    0.080872 0.931368 0.524261 0.187892
H46   H     H_    0.914449 0.832671 0.478844 0.227236

loop_
_geom_bond_atom_site_label_1
_geom_bond_atom_site_label_2
_ccdc_geom_bond_type
C13   C45   S    
C55   C56   S    
C21   C35   A    
C47   H26   S    
C22   C36   A    
C41   C42   S    
C5    C39   S    
C52   H32   S    
C10   C34   A    
O4    C2    A    
V1    O19   S    
C44   H14   S    
C50   H28   S    
C48   H22   S    
C32   F4    S    
C6    C40   S    
C19   C21   A    
C53   H40   S    
O9    V1    S    
C38   C55   S    
C42   H8    S    
C12   C32   A    
C44   H12   S    
C18   H6    S    
O3    C1    A    
C8    C12   S    
O12   V4    S    
C30   F6    S    
C12   C34   A    
C45   H20   S    
C39   F1    S    
O7    C3    A    
C51   C52   S    
C43   H16   S    
C24   C32   A    
C44   H13   S    
O5    C7    A    
O7    V1    S    
O6    C8    A    
C7    C11   S    
C42   H9    S    
C4    C37   S    
O3    V1    S    
C49   H30   S    
O14   V4    S    
C54   H39   S    
C17   C19   A    
C2    O12   A    
C47   H25   S    
O17   V3    S    
C13   C15   A    
C14   C16   A    
H2    C34   S    
C50   H27   S    
C48   H23   S    
C24   C26   A    
O11   V3    S    
C26   C28   A    
C25   C27   A    
C9    C25   A    
C11   C33   A    
C18   C20   A    
C42   H7    S    
C22   C30   A    
C52   H33   S    
O8    C4    A    
O8    V2    S    
C19   C23   A    
C1    O11   A    
C16   C18   A    
O15   V3    S    
C9    H3    S    
C37   C39   D    
C27   C41   S    
C45   H21   S    
C56   H43   S    
C43   H15   S    
C46   H18   S    
C55   H46   S    
C41   H10   S    
C11   C31   A    
C47   C48   S    
O10   V2    S    
O1    V3    S    
C41   H11   S    
H1    C33   S    
C20   C22   A    
C15   C17   A    
C53   H41   S    
C9    C33   A    
C10   C26   A    
O15   C5    A    
C17   H5    S    
O16   C6    A    
O1    C3    A    
C13   C35   A    
C56   H42   S    
C51   H36   S    
C48   H24   S    
C54   H37   S    
C54   H38   S    
C46   H19   S    
C29   F5    S    
V2    O20   S    
O16   V4    S    
C10   H4    S    
C43   C44   S    
C15   C49   S    
C14   C36   A    
C53   C54   S    
O18   V4    S    
O5    V1    S    
O17   C7    A    
O6    V2    S    
O10   C6    A    
O18   C8    A    
C28   C43   S    
O2    V4    S    
C49   H31   S    
C27   C29   A    
C56   H44   S    
V3    O19   S    
C14   C47   S    
O13   V3    S    
V4    O20   S    
C46   H17   S    
C21   C29   A    
C55   H45   S    
O9    C5    A    
O13   V1    S    
C28   C30   A    
C52   H34   S    
O14   V2    S    
O2    C4    A    
C31   F3    S    
C1    C36   S    
C2    C35   S    
O4    V2    S    
C20   C24   A    
C23   C31   A    
C38   C40   D    
C49   C50   S    
C40   F2    S    
C23   C25   A    
C45   C46   S    
C37   C53   S    
C51   H35   S    
C50   H29   S    
C3    C38   S    
C16   C51   S    
