data_mof_unit_22026.cif
_audit_creation_date              2012-12-10T18:15:14-0500
_audit_creation_method            fapswitch 2.2
_symmetry_space_group_name_H-M    P1
_symmetry_Int_Tables_number       1
_space_group_crystal_system       triclinic
_cell_length_a                    12.620537
_cell_length_b                    13.159068
_cell_length_c                    22.851443
_cell_angle_alpha                 90.884015
_cell_angle_beta                  101.255869
_cell_angle_gamma                 82.193732
_cell_volume                      3687.31341545

loop_
_atom_site_label
_atom_site_type_symbol
_atom_type_description
_atom_site_fract_x
_atom_site_fract_y
_atom_site_fract_z
_atom_type_partial_charge
C1    C     C_R   0.438956 0.691200 0.494986 0.879745
C2    C     C_R   0.508755 0.778340 0.035106 0.414135
C3    C     C_R   0.523950 0.767037 0.975337 -0.002731
C4    C     C_R   0.473412 0.692853 0.938253 -0.071893
C5    C     C_R   0.402451 0.635355 0.960144 -0.051911
C6    C     C_R   0.343287 0.568608 0.922074 -0.014375
C7    C     C_R   0.270366 0.514134 0.943128 -0.190906
C8    C     C_R   0.262497 0.517381 0.003093 0.116180
C9    C     C_R   0.489767 0.674540 0.879244 0.567397
C10   C     C_R   0.360936 0.554951 0.863958 0.534868
C11   C     C_R   0.554299 0.524910 0.779027 -0.160546
C12   C     C_R   0.499059 0.502465 0.610780 0.904650
C13   C     C_R   0.571377 0.495204 0.722115 0.418606
C14   C     C_R   0.488429 0.526113 0.672129 -0.168776
C15   C     C_R   0.391543 0.586319 0.679996 -0.268198
C16   C     C_R   0.375887 0.615157 0.736493 -0.072367
C17   C     C_R   0.456561 0.583908 0.786094 0.223375
C18   C     C_R   0.354759 0.613910 0.238754 -0.022269
C19   C     C_R   0.376074 0.581451 0.297882 -0.098258
C20   C     C_R   0.479376 0.530503 0.324634 -0.038275
C21   C     C_R   0.559867 0.510571 0.289956 -0.087030
C22   C     C_R   0.537844 0.541461 0.230328 -0.101971
C23   C     C_R   0.561151 0.308968 0.508417 0.937629
C24   C     C_R   0.435477 0.593700 0.204680 0.260050
C25   C     C_R   0.681091 0.065696 0.451452 0.175052
C26   C     C_R   0.599667 0.199890 0.507531 -0.081762
C27   C     C_R   0.327182 0.823078 0.540803 -0.284192
C28   C     C_R   0.309580 0.921275 0.562137 -0.173212
C29   C     C_R   0.368530 0.998364 0.549129 0.494837
C30   C     C_R   0.452783 0.973084 0.513896 -0.078506
C31   C     C_R   0.454941 0.876457 0.485008 -0.119260
C32   C     C_R   0.533078 0.035522 0.503547 0.015605
C33   C     C_R   0.609989 0.999325 0.466176 -0.020093
C34   C     C_R   0.497485 0.503809 0.388592 0.964141
C35   C     C_R   0.606978 0.901639 0.440812 0.284122
C36   C     C_R   0.515155 0.854973 0.439794 0.284807
C37   C     C_R   0.542623 0.131536 0.529489 -0.080253
C38   C     C_R   0.674398 0.165241 0.472461 -0.223586
C39   C     C_R   0.400590 0.799691 0.503015 0.002582
C40   C     C_R   0.115561 0.306127 0.455834 0.061237
C41   C     C_R   0.790754 0.643120 0.560503 0.152345
C42   C     C_R   0.892976 0.675826 0.575022 -0.185404
C43   C     C_R   0.982707 0.617335 0.558542 -0.149015
C44   C     C_R   0.970569 0.524248 0.528505 0.024610
C45   C     C_R   0.338533 0.568888 0.105184 0.527386
C46   C     C_R   0.864494 0.493688 0.514765 0.105653
C47   C     C_R   0.057183 0.461853 0.507889 -0.051051
C48   C     C_R   0.042409 0.360159 0.489009 0.022750
C49   C     C_R   0.943057 0.326919 0.494714 0.008160
C50   C     C_R   0.852313 0.401235 0.484158 0.420202
C51   C     C_R   0.155142 0.497225 0.502799 -0.081453
C52   C     C_R   0.197197 0.356963 0.440429 0.614944
C53   C     C_R   0.469350 0.686722 0.121510 0.603993
C54   C     C_R   0.456628 0.704408 0.059599 -0.163833
C55   C     C_R   0.394920 0.639936 0.020836 -0.105907
C56   C     C_R   0.329477 0.576160 0.043161 0.024029
H1    H     H_    0.311927 0.598777 0.323221 0.219425
H2    H     H_    0.638367 0.469223 0.307120 0.228952
H3    H     H_    0.599924 0.523449 0.203656 0.160720
H4    H     H_    0.721086 0.217730 0.456919 0.211203
H5    H     H_    0.506051 0.157763 0.565920 0.221304
H6    H     H_    0.285666 0.764219 0.555557 0.156973
H7    H     H_    0.249737 0.936226 0.590382 0.202353
H8    H     H_    0.178444 0.567442 0.523106 0.139666
H9    H     H_    0.721732 0.688999 0.573672 0.128166
H10   H     H_    0.060739 0.644782 0.570986 0.133104
H11   H     H_    0.902509 0.746687 0.598938 0.167018
H12   H     H_    0.221514 0.465603 0.913584 0.198470
H13   H     H_    0.615413 0.500512 0.818214 0.200154
H14   H     H_    0.327783 0.612040 0.642089 0.160632
H15   H     H_    0.300226 0.660518 0.741956 0.157917
H16   H     H_    0.275166 0.653767 0.219198 0.175630
N1    N     N_R   0.411509 0.619606 0.142457 -0.372072
N2    N     N_R   0.435251 0.605394 0.844476 -0.355374
N3    N     N_R   0.222200 0.444670 0.469780 -0.171606
N4    N     N_R   0.776960 0.554790 0.529910 -0.114032
O1    O     O_R   0.366740 0.627150 0.485570 -0.616639
O2    O     O_2   0.543811 0.730360 0.160656 -0.428222
O3    O     O_2   0.559532 0.724266 0.856499 -0.505959
O4    O     O_2   0.306625 0.489356 0.827507 -0.530624
O5    O     O_R   0.544830 0.662520 0.504870 -0.634414
O6    O     O_R   0.410930 0.482340 0.574190 -0.631517
O7    O     O_R   0.589010 0.517710 0.593490 -0.574862
O8    O     O_R   0.455170 0.337480 0.495130 -0.542218
O9    O     O_R   0.633260 0.372850 0.514430 -0.611944
O10   O     O_R   0.410990 0.482290 0.406510 -0.573477
O11   O     O_R   0.589070 0.517660 0.425810 -0.504864
O12   O     O_2   0.280162 0.507038 0.128581 -0.512800
Zn1   Zn    Zn3+2 0.381090 0.476380 0.487110 1.048968
Zn2   Zn    Zn3+2 0.618910 0.523620 0.512890 1.074935
S1    S     S_3+6 0.547669 0.888165 0.076855 0.074221
O13   O     O_2   0.662584 0.862437 0.111012 -0.229354
O14   O     O_2   0.541984 0.979284 0.037022 -0.303123
O15   O     O_3   0.463400 0.921176 0.124784 -0.479288
H17   H     H_    0.498170 0.972674 0.151215 0.403797
S2    S     S_3+6 0.721500 0.826025 0.420326 0.070901
O16   O     O_2   0.712456 0.714707 0.427930 -0.229943
O17   O     O_2   0.724274 0.846695 0.356164 -0.211858
O18   O     O_3   0.837562 0.852298 0.464408 -0.580058
H18   H     H_    0.895831 0.802237 0.452966 0.390430
N5    N     N_3   0.746804 0.039711 0.407481 -0.342860
H19   H     H_    0.827637 0.046934 0.426530 0.216428
H20   H     H_    0.721274 0.092124 0.371932 0.213082
S3    S     S_3+6 0.318671 0.121596 0.573882 -0.023557
O19   O     O_2   0.318142 0.202234 0.528173 -0.347468
O20   O     O_2   0.204069 0.123539 0.583754 -0.331870
O21   O     O_3   0.397203 0.147811 0.639278 -0.545012
H21   H     H_    0.374355 0.221334 0.646209 0.396890
N6    N     N_3   0.591864 0.829048 0.952176 -0.341772
H22   H     H_    0.549718 0.902583 0.942508 0.257037
H23   H     H_    0.664293 0.831847 0.983118 0.243736
S4    S     S_3+6 0.448104 0.817221 0.368961 0.076820
O22   O     O_2   0.522492 0.740456 0.341481 -0.238509
O23   O     O_2   0.346049 0.773285 0.373181 -0.306876
O24   O     O_3   0.413103 0.921696 0.324320 -0.464281
H24   H     H_    0.482992 0.940824 0.317460 0.374099
S5    S     S_3+6 0.251762 0.317974 0.375957 0.098265
O25   O     O_2   0.369143 0.271743 0.392306 -0.268647
O26   O     O_2   0.189041 0.240837 0.340373 -0.248518
O27   O     O_3   0.240496 0.421391 0.331949 -0.561163
H25   H     H_    0.267051 0.394837 0.295864 0.389197
N7    N     N_3   0.927731 0.222129 0.500763 -0.460558
H26   H     H_    0.993911 0.183923 0.530614 0.245451
H27   H     H_    0.917626 0.186923 0.459334 0.188611
N8    N     N_3   0.104666 0.204999 0.433209 -0.360123
H28   H     H_    0.111235 0.153026 0.468107 0.230173
H29   H     H_    0.031555 0.205416 0.402627 0.247795
S6    S     S_3+6 0.800944 0.412682 0.406504 -0.005734
O28   O     O_2   0.703816 0.356356 0.390358 -0.398554
O29   O     O_2   0.771801 0.523936 0.388890 -0.237864
O30   O     O_3   0.894736 0.361000 0.367607 -0.573012
H30   H     H_    0.858313 0.370258 0.325168 0.394800
N9    N     N_3   0.188453 0.458249 0.022848 -0.354428
H31   H     H_    0.209637 0.381349 0.012624 0.214072
H32   H     H_    0.109994 0.482660 0.998727 0.203680
S7    S     S_3+6 0.693596 0.416141 0.715595 0.043792
O31   O     O_2   0.668732 0.331741 0.672051 -0.306912
O32   O     O_2   0.768147 0.480002 0.693510 -0.284155
O33   O     O_3   0.755948 0.364206 0.782326 -0.537358
H33   H     H_    0.823852 0.323265 0.774951 0.398549

loop_
_geom_bond_atom_site_label_1
_geom_bond_atom_site_label_2
_ccdc_geom_bond_type
C9    N2    A    
C55   C56   A    
N5    H19   S    
C1    O1    A    
C41   C42   A    
C35   C36   A    
C52   N3    A    
S6    O28   D    
C8    C56   A    
C46   N4    A    
N9    H31   S    
C7    C8    A    
C35   S2    S    
C19   H1    S    
O1    Zn1   S    
O6    Zn1   S    
C18   C24   A    
C28   C29   A    
C51   N3    A    
S5    O26   D    
C34   O10   A    
C30   C31   A    
C24   N1    S    
C40   N8    S    
C1    O5    A    
O24   H24   S    
S2    O18   S    
C11   C13   A    
C45   N1    A    
C18   C19   A    
C9    O3    S    
C23   C26   S    
C15   H14   S    
S3    O19   D    
C7    H12   S    
C19   C20   A    
C45   C56   A    
C27   C39   A    
C16   C17   A    
S2    O17   D    
C36   S4    S    
O21   H21   S    
C44   C47   A    
C20   C34   S    
C52   S5    S    
N8    H28   S    
N5    H20   S    
C21   C22   A    
C2    S1    S    
C16   H15   S    
S7    O33   S    
S4    O23   D    
S4    O22   D    
C44   C46   A    
C18   H16   S    
C23   O8    A    
C45   O12   S    
S7    O32   D    
C2    C54   A    
S5    O27   S    
C22   H3    S    
C10   O4    S    
C26   C38   A    
C41   H9    S    
C53   C54   A    
C15   C16   A    
C29   S3    S    
C43   C44   A    
C29   C30   A    
C27   H6    S    
C25   C38   A    
S1    O14   D    
C1    C39   S    
C37   H5    S    
C47   C48   A    
O33   H33   S    
S2    O16   D    
C12   O6    A    
C32   C37   A    
C6    C7    A    
C38   H4    S    
O5    Zn2   S    
C48   C49   A    
C12   C14   S    
N4    Zn2   S    
C23   O9    A    
C42   H11   S    
C13   S7    S    
C22   C24   A    
C50   S6    S    
O8    Zn1   S    
N7    H27   S    
C3    C4    A    
S6    O30   S    
S1    O13   D    
O27   H25   S    
N8    H29   S    
C40   C48   A    
O7    Zn2   S    
C54   C55   A    
C11   C17   A    
C17   N2    S    
C8    N9    S    
C31   C36   A    
C5    C55   A    
C53   N1    A    
C51   H8    S    
S7    O31   D    
O10   Zn1   S    
S6    O29   D    
C6    C10   A    
C47   C51   A    
O9    Zn2   S    
C11   H13   S    
C26   C37   A    
S3    O20   D    
C46   C50   A    
O18   H18   S    
C32   C33   A    
N6    H23   S    
C2    C3    A    
C4    C9    A    
C21   H2    S    
C40   C52   A    
S5    O25   D    
S1    O15   S    
C30   C32   A    
C10   N2    A    
C25   N5    S    
C5    C6    A    
C3    N6    S    
C43   H10   S    
C49   N7    S    
C33   C35   A    
C31   C39   A    
C53   O2    S    
C34   O11   A    
S4    O24   S    
O15   H17   S    
N3    Zn1   S    
C28   H7    S    
C4    C5    A    
C20   C21   A    
C12   O7    A    
C49   C50   A    
C42   C43   A    
O11   Zn2   S    
N6    H22   S    
C27   C28   A    
N9    H32   S    
C14   C15   A    
N7    H26   S    
C13   C14   A    
S3    O21   S    
O30   H30   S    
C25   C33   A    
C41   N4    A    
