data_mof_unit_51512.cif
_audit_creation_date              2012-12-10T17:33:52-0500
_audit_creation_method            fapswitch 2.2
_symmetry_space_group_name_H-M    P1
_symmetry_Int_Tables_number       1
_space_group_crystal_system       triclinic
_cell_length_a                    10.857723
_cell_length_b                    12.064839
_cell_length_c                    12.863436
_cell_angle_alpha                 93.301776
_cell_angle_beta                  91.275865
_cell_angle_gamma                 87.427641
_cell_volume                      1680.24782771

loop_
_atom_site_label
_atom_site_type_symbol
_atom_type_description
_atom_site_fract_x
_atom_site_fract_y
_atom_site_fract_z
_atom_type_partial_charge
C1    C     C_R   0.494656 0.522355 0.701431 1.014456
C2    C     C_3   0.120905 0.492907 0.494840 -0.367971
C3    C     C_3   0.067555 0.447255 0.386146 0.058754
C4    C     C_3   0.065364 0.615029 0.524391 0.763898
C5    C     C_R   0.539182 0.463981 0.190651 -0.065843
C6    C     C_R   0.497608 0.538008 0.815531 -0.239647
C7    C     C_R   0.540509 0.649481 0.974036 -0.270982
C8    C     C_R   0.517205 0.643131 0.866470 0.423934
C9    C     C_R   0.486970 0.444836 0.874971 0.275019
C10   C     C_R   0.532295 0.448667 0.976369 0.006136
C11   C     C_R   0.547797 0.552724 0.028565 0.087226
C12   C     C_R   0.741896 0.500452 0.498055 1.031397
C13   C     C_R   0.553191 0.559561 0.136072 -0.255181
C14   C     C_R   0.547149 0.357794 0.138687 0.493109
C15   C     C_R   0.545579 0.351352 0.030345 -0.187761
C16   C     C_R   0.357612 0.954601 0.426697 -0.207972
C17   C     C_R   0.374810 0.838285 0.432375 -0.012802
C18   C     C_R   0.569818 0.860934 0.518217 0.531771
C19   C     C_R   0.561808 0.976277 0.498369 -0.117022
C20   C     C_R   0.450201 0.025098 0.463877 -0.053242
C21   C     C_R   0.437061 0.143452 0.467450 0.006516
C22   C     C_R   0.630530 0.157248 0.555016 0.425922
C23   C     C_R   0.512811 0.478169 0.300489 0.932321
C24   C     C_R   0.659138 0.047522 0.520497 0.371549
C25   C     C_R   0.257670 0.497648 0.497604 1.034088
C26   C     C_3   0.931989 0.414556 0.576332 0.692929
C27   C     C_3   0.075608 0.413870 0.579930 0.023130
C28   C     C_3   0.924075 0.469506 0.380671 0.590573
C29   C     C_3   0.923978 0.614166 0.530084 -0.516369
C30   C     C_3   0.878241 0.498556 0.495304 -0.252461
H1    H     H_    0.556568 0.640703 0.176750 0.184417
H2    H     H_    0.550053 0.729679 0.015287 0.161399
H3    H     H_    0.543923 0.270865 0.988416 0.173509
H4    H     H_    0.356869 0.183632 0.432399 0.195041
H5    H     H_    0.272491 0.988801 0.393801 0.185010
H6    H     H_    0.303931 0.785154 0.401122 0.227139
H7    H     H_    0.101907 0.454666 0.655382 0.213712
H8    H     H_    0.081856 0.356188 0.384549 0.176575
H9    H     H_    0.880918 0.677683 0.480094 0.265540
H10   H     H_    0.894779 0.637250 0.610774 0.268326
N1    N     N_R   0.523380 0.207800 0.519350 -0.164434
N2    N     N_R   0.476620 0.792180 0.480650 -0.176889
O1    O     O_R   0.506240 0.421700 0.658830 -0.538040
O2    O     O_R   0.491240 0.609310 0.646410 -0.517219
O3    O     O_R   0.692710 0.406190 0.506230 -0.549236
O4    O     O_R   0.677700 0.593810 0.493810 -0.621277
O5    O     O_R   0.508760 0.390690 0.353590 -0.591436
O6    O     O_R   0.493760 0.578300 0.341170 -0.645324
O7    O     O_R   0.322300 0.406190 0.506190 -0.612345
O8    O     O_R   0.307290 0.593810 0.493770 -0.546503
Zn1   Zn    Zn3+2 0.510020 0.374730 0.508290 1.111497
Zn2   Zn    Zn3+2 0.489980 0.625270 0.491710 1.071949
O9    O     O_3   0.889144 0.307100 0.552349 -0.642312
H11   H     H_    0.918260 0.279361 0.483236 0.372950
O10   O     O_3   0.099274 0.692279 0.452604 -0.707714
H12   H     H_    0.050713 0.681406 0.387202 0.393526
O11   O     O_3   0.893628 0.559509 0.318053 -0.730539
H13   H     H_    0.803103 0.561366 0.305012 0.339503
S1    S     S_3+6 0.148682 0.479120 0.269505 0.080409
O12   O     O_2   0.059913 0.489447 0.178906 -0.174442
O13   O     O_2   0.217213 0.584409 0.284130 -0.279176
O14   O     O_3   0.250320 0.373787 0.237944 -0.497441
H14   H     H_    0.277523 0.342896 0.304655 0.344577
O15   O     O_3   0.549258 0.262650 0.193813 -0.725166
H15   H     H_    0.554155 0.196363 0.144526 0.342104
O16   O     O_3   0.504788 0.738528 0.812109 -0.663748
H16   H     H_    0.520346 0.804044 0.859966 0.363283
S2    S     S_3+6 0.363699 0.356199 0.846686 0.107148
O17   O     O_2   0.409374 0.252650 0.787454 -0.152916
O18   O     O_2   0.304176 0.324152 0.944429 -0.229528
O19   O     O_3   0.257883 0.425615 0.776584 -0.540223
H17   H     H_    0.227218 0.487889 0.824104 0.363022
O20   O     O_3   0.888617 0.450283 0.675882 -0.732334
H18   H     H_    0.918935 0.394701 0.725566 0.406145
S3    S     S_3+6 0.698309 0.194088 0.678553 0.131496
O21   O     O_2   0.827907 0.145573 0.685016 -0.198997
O22   O     O_2   0.700115 0.316632 0.702377 -0.252899
O23   O     O_3   0.618020 0.137202 0.770309 -0.480803
H19   H     H_    0.662547 0.155676 0.836664 0.375996
O24   O     O_3   0.778517 0.013504 0.496557 -0.667523
H20   H     H_    0.829928 0.079447 0.497302 0.369208
S4    S     S_3+6 0.681532 0.825181 0.619122 0.095199
O25   O     O_2   0.809756 0.838081 0.582367 -0.266369
O26   O     O_2   0.659977 0.908725 0.708775 -0.238179
O27   O     O_3   0.682733 0.700342 0.668281 -0.512321
H21   H     H_    0.737207 0.705785 0.731051 0.379145
S5    S     S_3+6 0.139707 0.269800 0.588024 0.077229
O28   O     O_2   0.272017 0.263433 0.622269 -0.157001
O29   O     O_2   0.069592 0.215487 0.669253 -0.171787
O30   O     O_3   0.125968 0.194185 0.474600 -0.637413
H22   H     H_    0.115839 0.116982 0.494189 0.393548
O31   O     O_3   0.866854 0.374490 0.336720 -0.801667
H23   H     H_    0.893470 0.363343 0.263403 0.390039
O32   O     O_3   0.112425 0.650601 0.623353 -0.743999
H24   H     H_    0.087528 0.730456 0.635698 0.393082

loop_
_geom_bond_atom_site_label_1
_geom_bond_atom_site_label_2
_ccdc_geom_bond_type
O10   H12   S    
C8    O16   S    
O20   H18   S    
C19   C20   A    
S5    O28   D    
C6    C9    A    
O30   H22   S    
C7    C8    A    
C28   O11   S    
C7    C11   A    
C26   C27   S    
O14   H14   S    
C3    C28   S    
C10   C15   A    
C18   N2    A    
C16   H5    S    
O27   H21   S    
C22   N1    A    
O3    Zn1   S    
O4    Zn2   S    
C26   O20   S    
C18   C19   A    
C25   O8    A    
C17   N2    A    
C24   O24   S    
C3    H8    S    
C16   C17   A    
O7    Zn1   S    
O8    Zn2   S    
C2    C27   S    
C23   O6    A    
C17   H6    S    
C9    C10   A    
C5    C13   A    
C4    C29   S    
O2    Zn2   S    
O16   H16   S    
S1    O12   D    
C22   S3    S    
C1    O1    A    
S1    O13   D    
C23   O5    A    
C1    C6    S    
C12   O4    A    
O23   H19   S    
C12   O3    A    
C6    C8    A    
C21   H4    S    
O9    H11   S    
C2    C4    S    
S3    O21   D    
C29   C30   S    
C1    O2    A    
C5    C23   S    
C16   C20   A    
C14   O15   S    
C29   H9    S    
C28   O31   S    
C27   S5    S    
S3    O22   D    
C5    C14   A    
C4    O32   S    
C26   C30   S    
S4    O26   D    
S5    O29   D    
C4    O10   S    
C21   N1    A    
C26   O9    S    
S1    O14   S    
C7    H2    S    
C12   C30   S    
C13   H1    S    
O24   H20   S    
O5    Zn1   S    
S4    O27   S    
O15   H15   S    
C28   C30   S    
C2    C3    S    
C9    S2    S    
O19   H17   S    
C11   C13   A    
O1    Zn1   S    
O11   H13   S    
C27   H7    S    
S2    O19   S    
C29   H10   S    
O31   H23   S    
C18   S4    S    
N1    Zn1   S    
C19   C24   A    
C2    C25   S    
C22   C24   A    
O32   H24   S    
S2    O17   D    
S3    O23   S    
C25   O7    A    
C10   C11   A    
O6    Zn2   S    
C20   C21   A    
S2    O18   D    
S4    O25   D    
S5    O30   S    
C14   C15   A    
C15   H3    S    
N2    Zn2   S    
C3    S1    S    
