data_mof_unit_52815.cif
_audit_creation_date              2012-12-11T18:04:59-0500
_audit_creation_method            fapswitch 2.2
_symmetry_space_group_name_H-M    P1
_symmetry_Int_Tables_number       1
_space_group_crystal_system       triclinic
_cell_length_a                    8.257987
_cell_length_b                    12.666121
_cell_length_c                    22.793534
_cell_angle_alpha                 96.476963
_cell_angle_beta                  89.431548
_cell_angle_gamma                 98.217518
_cell_volume                      2344.54115896

loop_
_atom_site_label
_atom_site_type_symbol
_atom_type_description
_atom_site_fract_x
_atom_site_fract_y
_atom_site_fract_z
_atom_type_partial_charge
Ba1   Ba    Ba6+2 0.856210 0.551220 0.472190 1.668905
Ba2   Ba    Ba6+2 0.333620 0.448870 0.527810 1.699751
Br1   Br    Br    0.847571 0.213370 0.263354 -0.622890
Br2   Br    Br    0.491881 0.117083 0.641773 -0.685928
C1    C     C_3   0.564028 0.898597 0.286333 -0.376441
C2    C     C_R   0.100848 0.583991 0.939983 -0.028830
C3    C     C_R   0.055666 0.578157 0.879681 0.591570
C4    C     C_3   0.115661 0.779105 0.310677 0.314002
C5    C     C_R   0.985968 0.386727 0.875315 0.559543
C6    C     C_R   0.025082 0.390421 0.935886 -0.032534
C7    C     C_R   0.083637 0.489590 0.968289 -0.050654
C8    C     C_R   0.161742 0.682276 0.972861 -0.072661
C9    C     C_R   0.204946 0.686717 0.032401 -0.071313
C10   C     C_R   0.187546 0.593146 0.061318 -0.020608
C11   C     C_R   0.125957 0.494271 0.029179 -0.053560
C12   C     C_3   0.617254 0.824224 0.328026 0.317828
C13   C     C_R   0.008240 0.296780 0.964718 -0.093109
C14   C     C_R   0.048315 0.301519 0.024542 -0.067103
C15   C     C_R   0.107529 0.399975 0.057576 -0.032628
C16   C     C_3   0.084124 0.809385 0.249553 -0.293060
C17   C     C_R   0.149709 0.406056 0.118156 0.605761
C18   C     C_R   0.230688 0.596446 0.121552 0.577492
C19   C     C_2   0.801762 0.419214 0.767126 -0.098763
C20   C     C_3   0.766582 0.389754 0.701825 -0.080282
C21   C     C_1   0.010563 0.517846 0.684469 0.033433
C22   C     C_2   0.058257 0.525462 0.740741 -0.090213
C23   C     C_3   0.464511 0.293708 0.347597 0.276084
C24   C     C_2   0.947713 0.474910 0.785920 0.213906
C25   C     C_R   0.413831 0.555536 0.231505 -0.093843
C26   C     C_R   0.456674 0.563770 0.291376 -0.016243
C27   C     C_R   0.189460 0.474349 0.314428 0.024164
C28   C     C_3   0.221005 0.779632 0.597701 0.254923
C29   C     C_R   0.143790 0.466884 0.254277 -0.092363
C30   C     C_R   0.255244 0.509003 0.212090 0.202409
C31   C     C_2   0.875304 0.457692 0.663253 -0.252422
C32   C     C_R   0.769173 0.177927 0.514251 -0.224281
C33   C     C_R   0.430066 0.810681 0.476105 -0.296645
C34   C     C_3   0.403478 0.256831 0.284750 -0.321163
C35   C     C_R   0.406979 0.988898 0.453226 -0.103933
C36   C     C_R   0.342218 0.881367 0.452148 -0.008209
C37   C     C_R   0.576926 0.847773 0.506317 0.064729
C38   C     C_R   0.642466 0.958640 0.510173 -0.018892
C39   C     C_R   0.556817 0.029298 0.482122 -0.037295
C40   C     C_3   0.206052 0.897666 0.609448 -0.298564
C41   C     C_R   0.621456 0.139163 0.485188 0.058666
C42   C     C_R   0.855429 0.109887 0.540908 -0.016196
C43   C     C_R   0.790311 0.001515 0.540672 -0.047379
C44   C     C_3   0.885222 0.216570 0.347614 0.534179
C45   C     C_3   0.952315 0.160597 0.682612 0.273278
C46   C     C_3   0.870142 0.101768 0.363053 -0.323431
C47   C     C_3   0.724916 0.692827 0.646474 0.290214
C48   C     C_3   0.739697 0.721281 0.713020 -0.337419
C49   C     C_3   0.346659 0.241178 0.848721 0.257064
C50   C     C_3   0.431072 0.291226 0.906317 -0.319833
C51   C     C_3   0.878618 0.061317 0.710748 -0.362053
C52   C     C_3   0.482203 0.199332 0.718675 0.469222
C53   C     C_3   0.384148 0.131200 0.761950 0.274697
C54   C     C_R   0.343253 0.526671 0.332471 -0.304495
H1    H     H_    0.692924 0.872259 0.364315 0.053360
H2    H     H_    0.634284 0.619675 0.636703 0.083166
H3    H     H_    0.489777 0.955679 0.310591 0.098154
H4    H     H_    0.834127 0.792547 0.723535 0.124773
H5    H     H_    0.775372 0.653048 0.733928 0.075654
H6    H     H_    0.620458 0.739437 0.731451 0.140406
H7    H     H_    0.504718 0.784132 0.347996 -0.053682
H8    H     H_    0.488949 0.850692 0.249857 0.145338
H9    H     H_    0.367488 0.330688 0.372655 0.041677
H10   H     H_    0.575529 0.354251 0.346337 0.049613
H11   H     H_    0.281680 0.206838 0.285485 0.157085
H12   H     H_    0.267246 0.931266 0.651918 0.158239
H13   H     H_    0.393426 0.326901 0.260747 0.076434
H14   H     H_    0.489592 0.208386 0.260446 0.173707
H15   H     H_    0.672821 0.944378 0.267242 0.156689
H16   H     H_    0.061359 0.735792 0.217777 0.121726
H17   H     H_    0.000559 0.224341 0.718146 0.088959
H18   H     H_    0.853235 0.190768 0.659514 -0.020617
H19   H     H_    0.783938 0.082022 0.743210 0.125356
H20   H     H_    0.821341 0.998561 0.676258 0.133466
H21   H     H_    0.974936 0.028820 0.733936 0.122299
H22   H     H_    0.608833 0.218713 0.736328 -0.007546
H23   H     H_    0.263119 0.940509 0.573067 0.127220
H24   H     H_    0.405943 0.046594 0.751697 0.062892
H25   H     H_    0.250174 0.130686 0.756191 0.050186
H26   H     H_    0.021979 0.710987 0.319181 0.110071
H27   H     H_    0.033113 0.227441 0.044837 0.134657
H28   H     H_    0.963724 0.219172 0.941056 0.126818
H29   H     H_    0.251692 0.764123 0.055838 0.127325
H30   H     H_    0.503481 0.585427 0.200165 0.109456
H31   H     H_    0.176670 0.756372 0.952582 0.127492
H32   H     H_    0.179544 0.565581 0.753984 0.118404
H33   H     H_    0.716894 0.383713 0.798533 0.100138
H34   H     H_    0.075300 0.908199 0.612935 0.112896
H35   H     H_    0.022659 0.428754 0.240338 0.156034
H36   H     H_    0.378115 0.533732 0.378541 0.077611
H37   H     H_    0.238699 0.753647 0.311511 -0.042682
H38   H     H_    0.852770 0.441368 0.616054 0.076366
H39   H     H_    0.336510 0.039889 0.432345 0.114943
H40   H     H_    0.857069 0.952371 0.564048 0.083228
H41   H     H_    0.819805 0.261751 0.514959 0.053301
H42   H     H_    0.378643 0.726848 0.474220 0.068055
H43   H     H_    0.974845 0.851320 0.249982 0.153107
H44   H     H_    0.191132 0.863484 0.235040 0.125833
H45   H     H_    0.793832 0.256424 0.373626 0.021797
H46   H     H_    0.351171 0.770206 0.591525 0.016631
H47   H     H_    0.149675 0.746879 0.556991 0.065260
H48   H     H_    0.222489 0.200869 0.858823 0.084612
H49   H     H_    0.335348 0.307022 0.821250 0.076167
H50   H     H_    0.557415 0.329060 0.897397 0.134792
H51   H     H_    0.362514 0.353778 0.928216 0.064634
H52   H     H_    0.436579 0.228715 0.936420 0.140459
H53   H     H_    0.943315 0.053315 0.332295 0.163268
H54   H     H_    0.740036 0.065231 0.360618 0.065199
H55   H     H_    0.915336 0.100730 0.408640 0.080960
H56   H     H_    0.845124 0.677287 0.628903 0.013577
N1    N     N_R   0.997987 0.480258 0.847849 -0.423965
N2    N     N_R   0.209532 0.503781 0.149851 -0.426973
O1    O     O_2   0.890290 0.440320 0.360790 -0.474787
O2    O     O_2   0.193454 0.117201 0.539841 -0.438378
O3    O     O_3   0.083877 0.135204 0.646479 -0.564743
O4    O     O_3   0.130840 0.441440 0.431840 -0.467530
O5    O     O_3   0.574800 0.630800 0.528960 -0.492419
O6    O     O_2   0.344900 0.234690 0.472540 -0.427103
O7    O     O_3   0.502140 0.204409 0.372856 -0.655919
O8    O     O_2   0.493021 0.495037 0.703264 -0.500551
O9    O     O_3   0.408931 0.291951 0.713792 -0.582132
O10   O     O_2   0.065611 0.660531 0.855852 -0.593603
O11   O     O_2   0.942610 0.299739 0.846835 -0.616926
O12   O     O_3   0.675293 0.778960 0.621550 -0.636687
O13   O     O_2   0.135635 0.323942 0.142363 -0.559805
O14   O     O_2   0.286948 0.682241 0.148822 -0.617680
O15   O     O_3   0.672400 0.637930 0.395560 -0.477532
O16   O     O_2   0.794467 0.560875 0.292264 -0.492837
O17   O     O_3   0.042840 0.267510 0.362806 -0.632491
O18   O     O_3   0.712296 0.753248 0.296471 -0.598149
O19   O     O_2   0.844800 0.765340 0.527490 -0.477426
O20   O     O_3   0.090520 0.693800 0.424220 -0.499661
O21   O     O_2   0.009168 0.885652 0.461628 -0.484285
O22   O     O_3   0.440003 0.165292 0.820509 -0.642925
O23   O     O_3   0.104710 0.867926 0.352459 -0.605858
O24   O     O_2   0.299410 0.559720 0.639240 -0.444499
O25   O     O_3   0.058870 0.558650 0.568170 -0.504911
O26   O     O_3   0.517310 0.362160 0.604450 -0.416076
O27   O     O_3   0.162582 0.730969 0.647221 -0.629462
O28   O     O_3   0.614910 0.369290 0.471050 -0.487933
O29   O     O_3   0.099190 0.306290 0.575790 -0.459789
P1    P     P_3+3 0.057140 0.408270 0.369700 1.013424
P2    P     P_3+3 0.667360 0.749400 0.544670 0.973813
P3    P     P_3+3 0.136301 0.832390 0.423002 0.947662
P4    P     P_3+3 0.132580 0.591820 0.630310 0.989769
P5    P     P_3+3 0.055941 0.166304 0.574718 1.033262
P6    P     P_3+3 0.659865 0.625160 0.318450 0.962476
P7    P     P_3+3 0.524567 0.236185 0.449334 0.948960
P8    P     P_3+3 0.547511 0.385829 0.681321 1.002126

loop_
_geom_bond_atom_site_label_1
_geom_bond_atom_site_label_2
_ccdc_geom_bond_type
C47   H56   S    
O7    P7    S    
O4    P1    S    
Ba2   O28   S    
C37   C38   A    
O21   P3    D    
O15   P6    S    
C12   O18   S    
O25   P4    S    
C49   C50   S    
Ba2   O29   S    
C11   C15   A    
C4    C16   S    
C43   H40   S    
C4    O23   S    
C47   O12   S    
C27   C54   A    
C15   C17   A    
C14   C15   A    
C33   C36   A    
C2    C8    A    
C51   H19   S    
C35   H39   S    
C16   H44   S    
C23   C34   S    
C30   N2    S    
C53   H24   S    
Br1   C44   S    
C52   C53   S    
C50   H52   S    
C21   P4    S    
Ba1   Ba2   S    
C3    N1    Am   
O2    P5    D    
C49   H49   S    
C1    C12   S    
C23   H10   S    
C34   H13   S    
C27   P1    S    
C7    C11   A    
C49   H48   S    
C28   O27   S    
C19   C20   S    
C45   H17   S    
C32   C42   A    
Ba1   O20   S    
C5    C6    A    
O29   P5    S    
C40   H34   S    
C38   C43   A    
Ba2   P4    S    
C44   C46   S    
C28   H46   S    
C34   H11   S    
C3    O10   D    
C9    C10   A    
C18   O14   D    
C1    H15   S    
Ba1   P1    S    
C4    H37   S    
C25   H30   S    
C17   N2    Am   
C46   H54   S    
O9    P8    S    
C29   C30   A    
Ba2   O6    S    
C34   H14   S    
O23   P3    S    
C20   C31   S    
C27   C29   A    
C36   P3    S    
C16   H16   S    
C49   O22   S    
C14   H27   S    
C8    H31   S    
C23   H9    S    
C40   H23   S    
C48   H6    S    
C35   C36   A    
C51   H20   S    
Ba2   O4    S    
C35   C39   A    
C16   H43   S    
C21   C22   D    
C45   C51   S    
C44   H45   S    
C25   C30   A    
C47   C48   S    
C50   H51   S    
O1    P1    D    
Ba1   O4    S    
C5    N1    Am   
C31   H38   S    
C25   C26   A    
C24   N1    S    
C51   H21   S    
C44   O17   S    
C37   P2    S    
C9    H29   S    
O5    P2    S    
C13   C14   A    
C28   C40   S    
C45   H18   S    
C1    H3    S    
C32   C41   A    
C5    O11   D    
C52   O9    S    
C53   H25   S    
C39   C41   A    
C17   O13   D    
Ba1   O1    S    
O20   P3    S    
C21   C31   D    
C42   P5    S    
O19   P2    D    
C13   H28   S    
Ba2   O26   S    
C19   H33   S    
Ba1   P2    S    
C19   C24   D    
C38   C39   A    
C2    C7    A    
C20   P8    S    
Ba2   O5    S    
O16   P6    D    
C42   C43   A    
C23   O7    S    
C4    H26   S    
C1    H8    S    
Ba1   O15   S    
C48   H5    S    
C29   H35   S    
O12   P2    S    
C2    C3    A    
C12   H7    S    
C22   H32   S    
C22   C24   S    
C52   H22   S    
C50   H50   S    
C28   H47   S    
C46   H55   S    
Ba2   O24   S    
C41   P7    S    
C47   H2    S    
C54   H36   S    
O28   P7    S    
Ba1   O28   S    
C48   H4    S    
C10   C18   A    
C26   P6    S    
C45   O3    S    
O3    P5    S    
O18   P6    S    
C26   C54   A    
C18   N2    Am   
C46   H53   S    
C53   O22   S    
C32   H41   S    
C40   H12   S    
O26   P8    S    
C33   C37   A    
Ba1   O5    S    
Ba1   O25   S    
C6    C7    A    
O27   P4    S    
C8    C9    A    
Ba1   O19   S    
Ba2   O25   S    
C10   C11   A    
O17   P1    S    
C6    C13   A    
O8    P8    D    
O24   P4    D    
C12   H1    S    
C33   H42   S    
Br2   C52   S    
O6    P7    D    
