data_mof_unit_19959.cif
_audit_creation_date              2012-12-11T15:52:37-0500
_audit_creation_method            fapswitch 2.2
_symmetry_space_group_name_H-M    P1
_symmetry_Int_Tables_number       1
_space_group_crystal_system       triclinic
_cell_length_a                    6.925701
_cell_length_b                    14.55713
_cell_length_c                    16.022808
_cell_angle_alpha                 90.308799
_cell_angle_beta                  89.850629
_cell_angle_gamma                 90.122084
_cell_volume                      1615.36017146

loop_
_atom_site_label
_atom_site_type_symbol
_atom_type_description
_atom_site_fract_x
_atom_site_fract_y
_atom_site_fract_z
_atom_type_partial_charge
O1    O     O_R   0.494400 0.415640 0.412830 -0.543719
O2    O     O_R   0.823920 0.405510 0.586560 -0.538043
O3    O     O_R   0.994250 0.584360 0.587170 -0.541871
C1    C     C_R   0.654431 0.383506 0.615692 0.742246
O4    O     O_R   0.824110 0.404610 0.413450 -0.547798
O5    O     O_R   0.994440 0.583460 0.412820 -0.544947
C2    C     C_R   0.655082 0.382201 0.384318 0.671022
O6    O     O_R   0.494210 0.416540 0.587180 -0.496312
O7    O     O_3   0.660810 0.558680 0.500000 -0.381194
V1    V     V_3+5 0.935650 0.489110 0.500000 1.440134
O8    O     O_R   0.324150 0.594490 0.413440 -0.546890
C3    C     C_R   0.155516 0.616178 0.384167 0.677774
O9    O     O_R   0.323970 0.595390 0.586550 -0.543420
C4    C     C_R   0.155116 0.617663 0.615630 0.680666
V2    V     V_3+5 0.435660 0.510890 0.500000 1.445530
O10   O     O_3   0.160630 0.441320 0.500000 -0.351680
C5    C     C_3   0.045960 0.645138 0.764528 -0.304686
H1    H     H_    0.897920 0.621115 0.748447 0.138233
H2    H     H_    0.128793 0.584060 0.785445 0.148390
C6    C     C_3   0.033372 0.716326 0.837039 -0.332722
H3    H     H_    0.110182 0.689349 0.892649 0.126703
H4    H     H_    0.879458 0.726042 0.855114 0.140066
H5    H     H_    0.877548 0.751986 0.641706 0.139756
H6    H     H_    0.859068 0.856612 0.748537 0.136754
C7    C     C_3   0.026040 0.773125 0.660138 -0.325786
C8    C     C_3   0.349124 0.721060 0.712652 -0.318573
C9    C     C_3   0.144582 0.687598 0.686434 0.102927
H7    H     H_    0.423910 0.752984 0.658454 0.133475
H8    H     H_    0.438104 0.661618 0.732850 0.140803
C10   C     C_3   0.123159 0.809635 0.810823 0.116522
C11   C     C_3   0.013443 0.844237 0.732683 -0.318515
C12   C     C_3   0.336764 0.791753 0.784702 -0.305403
H9    H     H_    0.420106 0.765771 0.838977 0.139339
H10   H     H_    0.405912 0.857132 0.764590 0.132878
H11   H     H_    0.094327 0.805730 0.604742 0.122432
H12   H     H_    0.075612 0.910909 0.711985 0.123032
C13   C     C_R   0.964152 0.746531 0.196424 0.156208
C14   C     C_R   0.979188 0.685126 0.263628 -0.146557
H13   H     H_    0.861576 0.637844 0.276005 0.119981
C15   C     C_R   0.144558 0.682456 0.314020 -0.082392
C16   C     C_R   0.297620 0.742490 0.296158 -0.164777
H14   H     H_    0.427338 0.741995 0.333766 0.127514
C17   C     C_R   0.283529 0.805452 0.230706 -0.192369
H15   H     H_    0.402586 0.852400 0.220522 0.126010
C18   C     C_R   0.117692 0.809352 0.180023 -0.061599
C19   C     C_R   0.807836 0.266636 0.709372 -0.218227
H16   H     H_    0.945453 0.278384 0.679078 0.208349
C20   C     C_R   0.797987 0.201905 0.773523 -0.153907
H17   H     H_    0.928530 0.165993 0.790897 0.139925
C21   C     C_R   0.621898 0.183256 0.814059 -0.133869
C22   C     C_R   0.456308 0.231331 0.789103 -0.236140
H18   H     H_    0.318614 0.219100 0.819314 0.146587
C23   C     C_R   0.465844 0.296595 0.725448 0.611020
C24   C     C_R   0.642276 0.314889 0.684226 -0.177388
C25   C     C_R   0.812226 0.274224 0.281163 -0.157984
H19   H     H_    0.953095 0.292798 0.305142 0.116056
C26   C     C_R   0.801112 0.210341 0.215633 -0.151011
H20   H     H_    0.933993 0.181532 0.191342 0.119317
C27   C     C_R   0.621375 0.183958 0.182100 -0.047103
C28   C     C_R   0.453067 0.223277 0.216034 -0.157686
H21   H     H_    0.312204 0.204702 0.192049 0.117183
C29   C     C_R   0.464181 0.287162 0.281568 -0.150730
H22   H     H_    0.331308 0.315977 0.305860 0.117846
C30   C     C_R   0.643920 0.313529 0.315109 -0.043163
O11   O     O_R   0.771300 0.080930 0.910090 -0.539905
O12   O     O_R   0.441270 0.092800 0.083770 -0.543144
O13   O     O_R   0.271080 0.913920 0.084380 -0.540922
C31   C     C_R   0.610265 0.115253 0.112917 0.688156
O14   O     O_R   0.441580 0.091910 0.910670 -0.543853
O15   O     O_R   0.271390 0.913020 0.910040 -0.541517
C32   C     C_R   0.610872 0.114221 0.881936 0.719734
O16   O     O_R   0.770990 0.081830 0.084440 -0.539532
O17   O     O_3   0.604750 0.938760 0.997250 -0.370228
V3    V     V_3+5 0.329850 0.008280 0.997210 1.392621
O18   O     O_R   0.941680 0.901940 0.910610 -0.544623
C33   C     C_R   0.110997 0.879602 0.881612 0.651480
O19   O     O_R   0.941370 0.902830 0.083720 -0.538323
C34   C     C_R   0.109614 0.879168 0.111762 0.695186
V4    V     V_3+5 0.829860 0.986420 0.997150 1.388035
O20   O     O_3   0.104830 0.056030 0.997180 -0.365965
C35   C     C_3   0.785717 0.740830 0.142720 -0.757203
H23   H     H_    0.691591 0.682116 0.160325 0.193142
H24   H     H_    0.698669 0.804182 0.150106 0.219056
H25   H     H_    0.827320 0.731138 0.076270 0.199809
F1    F     F_    0.302000 0.342342 0.705385 -0.710218

loop_
_geom_bond_atom_site_label_1
_geom_bond_atom_site_label_2
_ccdc_geom_bond_type
C7    C11   S    
O12   C31   A    
C25   H19   S    
C8    C12   S    
O11   V4    S    
C16   H14   S    
C1    O6    A    
C35   H23   S    
C6    C10   S    
O19   C34   A    
C8    C9    S    
C29   H22   S    
O16   V4    S    
O5    C3    A    
C10   C11   S    
C26   C27   A    
V2    O10   S    
O12   V3    S    
C5    C6    S    
C28   C29   A    
O17   V3    S    
O14   C32   A    
C29   C30   A    
O8    V2    S    
O15   V3    S    
C18   C34   S    
O1    V2    S    
C4    C9    S    
C10   C12   S    
O7    V1    S    
C20   C21   A    
C27   C28   A    
V3    O20   S    
O9    C4    A    
C16   C17   A    
C13   C35   S    
O13   C34   A    
C35   H24   S    
C21   C22   A    
O19   V4    S    
C19   C20   A    
C22   H18   S    
C5    C9    S    
O13   V3    S    
O11   C32   A    
C28   H21   S    
C22   C23   A    
C12   H10   S    
C3    C15   S    
O2    C1    A    
O18   C33   A    
C13   C14   A    
C27   C31   S    
C10   C33   S    
C31   O16   A    
C25   C30   A    
C19   C24   A    
C5    H1    S    
O17   V4    S    
O14   V3    S    
C21   C32   S    
C17   C18   A    
O3    C4    A    
C7    H11   S    
C15   C16   A    
C6    H4    S    
O6    V2    S    
C25   C26   A    
C17   H15   S    
O15   C33   A    
C13   C18   A    
O2    V1    S    
C35   H25   S    
O4    C2    A    
C19   H16   S    
C20   H17   S    
C1    C24   S    
O1    C2    A    
O5    V1    S    
O8    C3    A    
C23   C24   A    
C7    C9    S    
C8    H7    S    
C12   H9    S    
O9    V2    S    
O7    V2    S    
H6    C11   S    
O4    V1    S    
O3    V1    S    
V1    O10   S    
C14   C15   A    
C26   H20   S    
C14   H13   S    
C5    H2    S    
H5    C7    S    
C2    C30   S    
V4    O20   S    
C6    H3    S    
C8    H8    S    
C11   H12   S    
C23   F1    S    
O18   V4    S    
