data_mof_unit_5297.cif
_audit_creation_date              2012-12-10T19:58:05-0500
_audit_creation_method            fapswitch 2.2
_symmetry_space_group_name_H-M    P1
_symmetry_Int_Tables_number       1
_space_group_crystal_system       triclinic
_cell_length_a                    23.011335
_cell_length_b                    20.407416
_cell_length_c                    14.233465
_cell_angle_alpha                 89.844089
_cell_angle_beta                  89.521445
_cell_angle_gamma                 90.53307
_cell_volume                      6683.51340365

loop_
_atom_site_label
_atom_site_type_symbol
_atom_type_description
_atom_site_fract_x
_atom_site_fract_y
_atom_site_fract_z
_atom_type_partial_charge
C1    C     C_R   0.088470 0.417230 0.500481 0.947548
C2    C     C_R   0.912357 0.584340 0.500748 0.951917
C3    C     C_R   0.911583 0.416581 0.500874 0.952325
C4    C     C_R   0.088271 0.583785 0.499771 0.938818
C5    C     C_R   0.588533 0.916811 0.500425 0.948678
C6    C     C_R   0.412673 0.085243 0.500696 0.952553
C7    C     C_R   0.411467 0.916452 0.500718 0.960551
C8    C     C_R   0.588115 0.084165 0.499306 0.945083
C9    C     C_R   0.785585 0.315569 0.597768 0.390618
C10   C     C_R   0.189244 0.724645 0.442277 0.439148
C11   C     C_R   0.214461 0.681237 0.597553 0.381211
C12   C     C_R   0.810123 0.278654 0.438622 0.410820
C13   C     C_R   0.218744 0.321144 0.414299 0.404438
C14   C     C_R   0.816085 0.724825 0.570912 0.440183
C15   C     C_R   0.780574 0.681231 0.421967 0.359912
C16   C     C_R   0.202725 0.296306 0.580762 0.400005
C17   C     C_R   0.280908 0.822807 0.598205 0.353286
C18   C     C_R   0.689017 0.226333 0.444839 0.511608
C19   C     C_R   0.720295 0.174447 0.591459 0.345311
C20   C     C_R   0.309038 0.777185 0.445276 0.467208
C21   C     C_R   0.719988 0.820613 0.417819 0.408876
C22   C     C_R   0.317980 0.229708 0.564182 0.450888
C23   C     C_R   0.281337 0.181757 0.418966 0.354414
C24   C     C_R   0.701612 0.794760 0.583304 0.393424
C25   C     C_R   0.826391 0.366876 0.586827 0.056648
C26   C     C_R   0.156042 0.667779 0.426362 0.050921
C27   C     C_R   0.173377 0.630810 0.584910 0.069648
C28   C     C_R   0.844508 0.334924 0.426800 0.047164
C29   C     C_R   0.175365 0.369215 0.419699 0.052355
C30   C     C_R   0.848405 0.666559 0.582797 -0.000737
C31   C     C_R   0.824302 0.633406 0.424978 0.039861
C32   C     C_R   0.162050 0.347675 0.584938 0.054446
C33   C     C_R   0.323495 0.871822 0.585804 0.058077
C34   C     C_R   0.655068 0.169486 0.424544 -0.001965
C35   C     C_R   0.676729 0.126605 0.580205 0.059841
C36   C     C_R   0.343975 0.833411 0.428544 -0.004632
C37   C     C_R   0.675979 0.867735 0.421184 0.042538
C38   C     C_R   0.351205 0.172497 0.578843 -0.008089
C39   C     C_R   0.324743 0.134067 0.424133 0.041623
C40   C     C_R   0.660916 0.846033 0.586198 0.052456
C41   C     C_R   0.860513 0.371693 0.504939 -0.262564
C42   C     C_R   0.139900 0.628071 0.502809 -0.298720
C43   C     C_R   0.141618 0.375682 0.501271 -0.277761
C44   C     C_R   0.861806 0.629715 0.502164 -0.209912
C45   C     C_R   0.359540 0.872486 0.505161 -0.227861
C46   C     C_R   0.640632 0.127652 0.500726 -0.283021
C47   C     C_R   0.641330 0.874730 0.501985 -0.274009
C48   C     C_R   0.363191 0.132065 0.500753 -0.208584
C49   C     C_R   0.997526 0.441438 0.104402 -0.434872
C50   C     C_R   0.983645 0.552886 0.896984 -0.430916
C51   C     C_R   0.007696 0.556220 0.102612 -0.427293
C52   C     C_R   0.019283 0.445632 0.895358 -0.440886
C53   C     C_R   0.497990 0.941104 0.104566 -0.424351
C54   C     C_R   0.482499 0.051829 0.897317 -0.429636
C55   C     C_R   0.507078 0.056085 0.102543 -0.421422
C56   C     C_R   0.518464 0.944818 0.895015 -0.440737
C57   C     C_R   0.777398 0.270752 0.523169 -0.116267
C58   C     C_R   0.222779 0.728568 0.525857 -0.118612
C59   C     C_R   0.230748 0.281392 0.493396 -0.130584
C60   C     C_R   0.777063 0.728470 0.494998 -0.119722
C61   C     C_R   0.273210 0.775310 0.526822 -0.101744
C62   C     C_R   0.726974 0.223528 0.522503 -0.118814
C63   C     C_R   0.731190 0.780767 0.497355 -0.126431
C64   C     C_R   0.277437 0.230127 0.490323 -0.116370
C65   C     C_R   0.003620 0.441077 0.204128 0.526700
C66   C     C_R   0.997682 0.557642 0.799510 0.515887
C67   C     C_R   0.998802 0.558359 0.201740 0.519356
C68   C     C_R   0.004226 0.442054 0.798605 0.546747
C69   C     C_R   0.503069 0.940891 0.204347 0.521991
C70   C     C_R   0.498000 0.057312 0.800580 0.511989
C71   C     C_R   0.498869 0.058344 0.201839 0.520588
C72   C     C_R   0.502944 0.941856 0.798296 0.550095
C73   C     C_R   0.002379 0.498633 0.053012 0.119098
C74   C     C_R   0.001778 0.499014 0.947580 0.117337
C75   C     C_R   0.502308 0.998282 0.053121 0.113608
C76   C     C_R   0.501218 0.998254 0.947721 0.117368
H1    H     H_    0.990341 0.397245 0.065018 0.133998
H2    H     H_    0.964600 0.593048 0.934887 0.139866
H3    H     H_    0.017344 0.599410 0.061717 0.132925
H4    H     H_    0.038101 0.404684 0.931545 0.137659
H5    H     H_    0.491444 0.896988 0.064986 0.133962
H6    H     H_    0.462928 0.091829 0.935006 0.139469
H7    H     H_    0.515844 0.099419 0.061406 0.131166
H8    H     H_    0.536809 0.903314 0.930527 0.136809
N1    N     N_R   0.000000 0.500000 0.252470 -0.158769
N2    N     N_R   0.000000 0.500000 0.747530 -0.166398
N3    N     N_R   0.500000 0.000000 0.252470 -0.164812
N4    N     N_R   0.500000 0.000000 0.747530 -0.166356
O1    O     O_R   0.065470 0.434530 0.579480 -0.584981
O2    O     O_R   0.934530 0.565470 0.420520 -0.574389
O3    O     O_R   0.934530 0.565470 0.579480 -0.600186
O4    O     O_R   0.065470 0.434530 0.420520 -0.570493
O5    O     O_R   0.934530 0.434530 0.420520 -0.583441
O6    O     O_R   0.065470 0.565470 0.579480 -0.568766
O7    O     O_R   0.065470 0.565470 0.420520 -0.610268
O8    O     O_R   0.934530 0.434530 0.579480 -0.591001
O9    O     O_R   0.565470 0.934530 0.579480 -0.584351
O10   O     O_R   0.434530 0.065470 0.420520 -0.572026
O11   O     O_R   0.434530 0.065470 0.579480 -0.604402
O12   O     O_R   0.565470 0.934530 0.420520 -0.571496
O13   O     O_R   0.434530 0.934530 0.420520 -0.588754
O14   O     O_R   0.565470 0.065470 0.579480 -0.573276
O15   O     O_R   0.565470 0.065470 0.420520 -0.611178
O16   O     O_R   0.434530 0.934530 0.579480 -0.589625
Zn1   Zn    Zn3+2 1.000000 0.500000 0.606140 1.023030
Zn2   Zn    Zn3+2 0.000000 0.500000 0.393860 1.026161
Zn3   Zn    Zn3+2 0.500000 0.000000 0.606140 1.020613
Zn4   Zn    Zn3+2 0.500000 0.000000 0.393860 1.020519
O17   O     O_3   0.762529 0.304803 0.686608 -0.562183
C77   C     C_3   0.705160 0.327892 0.693281 0.184094
H9    H     H_    0.674710 0.294058 0.656998 0.152386
H10   H     H_    0.700819 0.377895 0.663273 0.089337
C78   C     C_3   0.688063 0.329571 0.796900 -0.847144
H11   H     H_    0.718650 0.361430 0.836403 0.245003
H12   H     H_    0.643381 0.348783 0.804846 0.201224
H13   H     H_    0.689555 0.279325 0.827465 0.268675
O18   O     O_3   0.205024 0.764159 0.366531 -0.590121
C79   C     C_3   0.158243 0.798843 0.327744 0.090531
H14   H     H_    0.152462 0.845523 0.366471 0.126088
H15   H     H_    0.116501 0.771354 0.328827 0.142288
C80   C     C_3   0.174446 0.815027 0.225999 -0.856929
H16   H     H_    0.180685 0.769190 0.185644 0.252952
H17   H     H_    0.140113 0.844569 0.192215 0.207865
H18   H     H_    0.215981 0.843085 0.223468 0.237620
O19   O     O_3   0.236133 0.690962 0.686649 -0.570124
C81   C     C_3   0.290550 0.661120 0.696839 0.180611
H19   H     H_    0.323867 0.686244 0.652422 0.148258
H20   H     H_    0.288915 0.608220 0.678618 0.100327
C82   C     C_3   0.308024 0.666951 0.799561 -0.837668
H21   H     H_    0.277622 0.638130 0.844965 0.235453
H22   H     H_    0.352720 0.648596 0.809257 0.200221
H23   H     H_    0.306129 0.719031 0.822016 0.279977
O20   O     O_3   0.794543 0.244301 0.358911 -0.559578
C83   C     C_3   0.836431 0.196713 0.335223 0.078615
H24   H     H_    0.841963 0.161259 0.393841 0.116563
H25   H     H_    0.878885 0.219679 0.316249 0.140208
C84   C     C_3   0.814036 0.160372 0.249297 -0.829572
H26   H     H_    0.807717 0.195398 0.190093 0.250840
H27   H     H_    0.844676 0.121578 0.227529 0.198225
H28   H     H_    0.771316 0.137238 0.266320 0.264617
O21   O     O_3   0.241867 0.309276 0.326543 -0.558546
C85   C     C_3   0.297712 0.337164 0.317014 0.174963
H29   H     H_    0.328595 0.315095 0.367317 0.150233
H30   H     H_    0.296597 0.391133 0.327532 0.101134
C86   C     C_3   0.318905 0.323697 0.217411 -0.838236
H31   H     H_    0.288640 0.345811 0.165925 0.242305
H32   H     H_    0.362918 0.344666 0.206389 0.197523
H33   H     H_    0.320008 0.269932 0.204888 0.277926
O22   O     O_3   0.827837 0.783470 0.619274 -0.595095
C87   C     C_3   0.846137 0.775337 0.713318 0.208169
H34   H     H_    0.893907 0.767683 0.714997 0.120018
H35   H     H_    0.822732 0.734623 0.747861 0.168563
C88   C     C_3   0.830941 0.835786 0.771479 -0.805028
H36   H     H_    0.811715 0.820198 0.841089 0.204646
H37   H     H_    0.870836 0.865990 0.785870 0.203895
H38   H     H_    0.797975 0.866510 0.734630 0.279890
O23   O     O_3   0.754716 0.690923 0.335853 -0.549570
C89   C     C_3   0.699343 0.661883 0.332542 0.155036
H39   H     H_    0.669140 0.686362 0.382408 0.125242
H40   H     H_    0.701175 0.608574 0.348518 0.095084
C90   C     C_3   0.676328 0.670418 0.232886 -0.813091
H41   H     H_    0.707734 0.650243 0.180543 0.244226
H42   H     H_    0.634189 0.644450 0.225734 0.189555
H43   H     H_    0.670288 0.723364 0.217108 0.268126
O24   O     O_3   0.223462 0.272793 0.665540 -0.570150
C91   C     C_3   0.193461 0.215397 0.694013 0.092396
H44   H     H_    0.208639 0.173021 0.652168 0.116635
H45   H     H_    0.145492 0.219725 0.685497 0.127400
C92   C     C_3   0.206631 0.202095 0.797955 -0.877490
H46   H     H_    0.194584 0.244349 0.843244 0.242224
H47   H     H_    0.182183 0.158391 0.823281 0.212052
H48   H     H_    0.253660 0.194487 0.808651 0.239703
O25   O     O_3   0.259187 0.813212 0.688341 -0.557469
C93   C     C_3   0.201977 0.835997 0.696994 0.178587
H49   H     H_    0.171480 0.805322 0.655373 0.136577
H50   H     H_    0.198637 0.887923 0.674348 0.088084
C94   C     C_3   0.183655 0.830902 0.800107 -0.828380
H51   H     H_    0.214210 0.859075 0.844913 0.243144
H52   H     H_    0.139246 0.850546 0.809611 0.195117
H53   H     H_    0.183842 0.778828 0.823593 0.272404
O26   O     O_3   0.693834 0.282985 0.389272 -0.605573
C95   C     C_3   0.656577 0.292232 0.312320 0.181788
H54   H     H_    0.636719 0.341422 0.322149 0.121297
H55   H     H_    0.619420 0.258303 0.308196 0.123991
C96   C     C_3   0.691988 0.295550 0.220083 -0.774924
H56   H     H_    0.687203 0.249133 0.179318 0.223459
H57   H     H_    0.677251 0.337899 0.175778 0.180403
H58   H     H_    0.739803 0.303720 0.233515 0.289495
O27   O     O_3   0.742112 0.183136 0.680687 -0.561351
C97   C     C_3   0.796328 0.153175 0.690807 0.163135
H59   H     H_    0.829648 0.177891 0.645785 0.130390
H60   H     H_    0.794233 0.100125 0.673418 0.097462
C98   C     C_3   0.814107 0.159857 0.793390 -0.820813
H61   H     H_    0.783007 0.132571 0.839562 0.236012
H62   H     H_    0.858327 0.140432 0.803665 0.196619
H63   H     H_    0.813357 0.212290 0.814477 0.278713
O28   O     O_3   0.309790 0.719966 0.390048 -0.596234
C99   C     C_3   0.322513 0.729476 0.293820 0.198041
H64   H     H_    0.370063 0.734812 0.283658 0.130735
H65   H     H_    0.297893 0.770911 0.263941 0.185292
C100  C     C_3   0.302954 0.670136 0.237472 -0.864876
H66   H     H_    0.321344 0.673472 0.165188 0.195372
H67   H     H_    0.317739 0.624407 0.271399 0.258613
H68   H     H_    0.254805 0.669458 0.231689 0.279426
O29   O     O_3   0.744917 0.809266 0.331223 -0.556259
C101  C     C_3   0.800580 0.837756 0.324525 0.168414
H69   H     H_    0.831584 0.811943 0.370853 0.152962
H70   H     H_    0.799899 0.890768 0.342775 0.095196
C102  C     C_3   0.820924 0.831055 0.223064 -0.846100
H71   H     H_    0.790750 0.857571 0.175779 0.244007
H72   H     H_    0.865240 0.851524 0.214415 0.199852
H73   H     H_    0.820690 0.778439 0.202636 0.273128
O30   O     O_3   0.328579 0.290565 0.607649 -0.598475
C103  C     C_3   0.349934 0.288290 0.700437 0.205676
H74   H     H_    0.397939 0.290514 0.698268 0.121938
H75   H     H_    0.334314 0.245045 0.739072 0.163628
C104  C     C_3   0.326473 0.346190 0.757119 -0.806560
H76   H     H_    0.292247 0.329043 0.808084 0.236055
H77   H     H_    0.361489 0.369904 0.798206 0.190370
H78   H     H_    0.306170 0.383663 0.711113 0.267897
O31   O     O_3   0.256888 0.191118 0.331774 -0.551268
C105  C     C_3   0.201847 0.161682 0.325376 0.163735
H79   H     H_    0.169735 0.189031 0.368563 0.132258
H80   H     H_    0.202372 0.109446 0.347799 0.088477
C106  C     C_3   0.183371 0.164669 0.222674 -0.826001
H81   H     H_    0.215982 0.139984 0.176943 0.241636
H82   H     H_    0.140612 0.140185 0.213801 0.191502
H83   H     H_    0.180246 0.216613 0.199406 0.269771
O32   O     O_3   0.720383 0.769991 0.668548 -0.573419
C107  C     C_3   0.689622 0.712258 0.693736 0.094615
H84   H     H_    0.705589 0.670276 0.651846 0.116582
H85   H     H_    0.641970 0.716829 0.682414 0.128146
C108  C     C_3   0.700063 0.697627 0.798274 -0.876005
H86   H     H_    0.690655 0.740965 0.842876 0.249747
H87   H     H_    0.672175 0.656411 0.822533 0.211314
H88   H     H_    0.745818 0.684999 0.811081 0.233644
N5    N     N_2   0.825452 0.419800 0.651236 -0.286199
H89   H     H_    0.785463 0.440291 0.663414 0.215234
C109  C     C_3   0.858869 0.410896 0.734943 -0.626908
H90   H     H_    0.831560 0.392545 0.793605 0.215756
H91   H     H_    0.880158 0.457995 0.753743 0.219621
H92   H     H_    0.893191 0.375094 0.720202 0.300583
N6    N     N_2   0.162535 0.638652 0.336487 -0.267753
H93   H     H_    0.181465 0.592995 0.337585 0.225907
C110  C     C_3   0.115239 0.644357 0.272079 -0.673087
H94   H     H_    0.129288 0.672924 0.209750 0.208097
H95   H     H_    0.077648 0.668538 0.306148 0.274348
H96   H     H_    0.102624 0.594668 0.247816 0.236027
N7    N     N_2   0.170907 0.577602 0.649160 -0.281462
H97   H     H_    0.207760 0.549487 0.652631 0.201429
C111  C     C_3   0.143690 0.590395 0.738227 -0.615203
H98   H     H_    0.175864 0.607348 0.790450 0.220530
H99   H     H_    0.121171 0.545509 0.763630 0.223433
H100  H     H_    0.111031 0.628737 0.728520 0.290141
N8    N     N_2   0.844419 0.366764 0.338205 -0.272554
H101  H     H_    0.804111 0.373689 0.309370 0.241365
C112  C     C_3   0.888347 0.347544 0.271739 -0.676424
H102  H     H_    0.870083 0.313554 0.218397 0.202704
H103  H     H_    0.925108 0.323985 0.308713 0.277108
H104  H     H_    0.903064 0.392655 0.234948 0.248036
N9    N     N_2   0.173020 0.418360 0.349284 -0.283361
H105  H     H_    0.210663 0.445500 0.341484 0.202420
C113  C     C_3   0.148157 0.398646 0.261501 -0.627796
H106  H     H_    0.182048 0.380018 0.212618 0.224832
H107  H     H_    0.126131 0.441212 0.229211 0.217034
H108  H     H_    0.116290 0.358995 0.274592 0.284911
N10   N     N_2   0.837815 0.629394 0.666141 -0.317109
H109  H     H_    0.796521 0.629695 0.693265 0.213506
C114  C     C_3   0.883252 0.627727 0.734906 -0.712549
H110  H     H_    0.867833 0.647081 0.803378 0.172780
H111  H     H_    0.920821 0.657397 0.710245 0.287838
H112  H     H_    0.894781 0.576004 0.746027 0.262672
N11   N     N_2   0.828491 0.586955 0.351572 -0.280331
H113  H     H_    0.790628 0.561513 0.337523 0.214340
C115  C     C_3   0.857463 0.610529 0.268354 -0.613888
H114  H     H_    0.826743 0.634994 0.220233 0.223483
H115  H     H_    0.878564 0.569069 0.231784 0.224807
H116  H     H_    0.891322 0.646426 0.289048 0.288353
N12   N     N_2   0.155150 0.382533 0.670644 -0.258240
H117  H     H_    0.193982 0.398557 0.698592 0.235355
C116  C     C_3   0.117795 0.352811 0.740459 -0.672933
H118  H     H_    0.140319 0.314362 0.778821 0.222476
H119  H     H_    0.078895 0.331179 0.707313 0.280997
H120  H     H_    0.106807 0.390138 0.793711 0.221011
N13   N     N_2   0.323457 0.927102 0.646159 -0.290002
H121  H     H_    0.283954 0.950011 0.653860 0.207576
C117  C     C_3   0.355217 0.920686 0.732008 -0.616959
H122  H     H_    0.326015 0.907400 0.791439 0.212583
H123  H     H_    0.378418 0.967402 0.746545 0.220177
H124  H     H_    0.387891 0.882182 0.723373 0.298211
N14   N     N_2   0.665712 0.139744 0.335658 -0.282247
H125  H     H_    0.688337 0.096287 0.340960 0.217704
C118  C     C_3   0.618062 0.134955 0.271303 -0.691323
H126  H     H_    0.629870 0.159149 0.204145 0.203062
H127  H     H_    0.579158 0.158639 0.301616 0.283171
H128  H     H_    0.608447 0.082595 0.255573 0.239852
N15   N     N_2   0.671553 0.074826 0.646739 -0.281956
H129  H     H_    0.708077 0.046913 0.655203 0.204145
C119  C     C_3   0.643192 0.091831 0.733609 -0.601195
H130  H     H_    0.674584 0.111369 0.785396 0.222479
H131  H     H_    0.620533 0.048126 0.763011 0.222731
H132  H     H_    0.610650 0.129623 0.718751 0.294663
N16   N     N_2   0.338564 0.867076 0.341558 -0.317975
H133  H     H_    0.297864 0.875024 0.315970 0.219021
C120  C     C_3   0.385590 0.862350 0.274860 -0.703405
H134  H     H_    0.371215 0.837723 0.209541 0.170026
H135  H     H_    0.421498 0.834011 0.306742 0.294560
H136  H     H_    0.399347 0.912530 0.255634 0.269593
N17   N     N_2   0.672040 0.914119 0.346970 -0.282250
H137  H     H_    0.710311 0.938517 0.331890 0.209923
C121  C     C_3   0.643760 0.890498 0.263949 -0.638450
H138  H     H_    0.674587 0.863818 0.217278 0.230723
H139  H     H_    0.625239 0.932697 0.225308 0.216891
H140  H     H_    0.608728 0.856136 0.285109 0.285755
N18   N     N_2   0.342588 0.138554 0.665110 -0.321442
H141  H     H_    0.301589 0.138039 0.693610 0.217458
C122  C     C_3   0.389384 0.137554 0.731026 -0.701858
H142  H     H_    0.376115 0.158932 0.799370 0.173204
H143  H     H_    0.427370 0.165486 0.702417 0.286623
H144  H     H_    0.399483 0.085717 0.744284 0.263931
N19   N     N_2   0.328062 0.084915 0.353766 -0.281931
H145  H     H_    0.290192 0.058888 0.343043 0.210771
C123  C     C_3   0.356521 0.105017 0.268103 -0.608386
H146  H     H_    0.325092 0.125314 0.217418 0.218569
H147  H     H_    0.378972 0.062483 0.236663 0.222910
H148  H     H_    0.389285 0.143341 0.284153 0.284277
N20   N     N_2   0.652268 0.879959 0.672232 -0.258178
H149  H     H_    0.690749 0.895036 0.702651 0.232893
C124  C     C_3   0.613352 0.849652 0.739091 -0.670124
H150  H     H_    0.633867 0.808870 0.775461 0.224164
H151  H     H_    0.573968 0.831059 0.703502 0.281890
H152  H     H_    0.603177 0.885659 0.794410 0.219715
O33   O     O_3   0.011719 0.382832 0.254521 -0.593017
C125  C     C_3   0.020783 0.326958 0.195494 0.036320
H153  H     H_    0.056921 0.336496 0.144121 0.142830
H154  H     H_    0.980655 0.314459 0.156215 0.145708
C126  C     C_3   0.036458 0.266344 0.252388 -0.906797
H155  H     H_    0.999996 0.230003 0.251275 0.221985
H156  H     H_    0.075266 0.242471 0.219906 0.225791
H157  H     H_    0.046696 0.279363 0.326298 0.278467
O34   O     O_3   0.010079 0.618761 0.757660 -0.603372
C127  C     C_3   0.018841 0.669173 0.826400 0.036568
H158  H     H_    0.049543 0.653406 0.882443 0.151722
H159  H     H_    0.976579 0.682911 0.858832 0.143713
C128  C     C_3   0.043797 0.732214 0.785029 -0.900902
H160  H     H_    0.040975 0.771200 0.839310 0.212308
H161  H     H_    0.090638 0.727381 0.767258 0.252583
H162  H     H_    0.018882 0.747071 0.722438 0.264605
O35   O     O_3   0.989794 0.617874 0.248685 -0.600189
C129  C     C_3   0.985651 0.672851 0.186029 0.032739
H163  H     H_    0.951993 0.664273 0.131151 0.146958
H164  H     H_    0.028460 0.682544 0.151758 0.149833
C130  C     C_3   0.969528 0.735801 0.236377 -0.913014
H165  H     H_    0.988319 0.778284 0.197169 0.217907
H166  H     H_    0.921666 0.742347 0.236585 0.240209
H167  H     H_    0.986143 0.735895 0.309222 0.270909
O36   O     O_3   0.992061 0.381317 0.756965 -0.610548
C131  C     C_3   0.977590 0.332172 0.825917 0.030875
H168  H     H_    0.947325 0.351308 0.881168 0.151225
H169  H     H_    0.017587 0.314287 0.860536 0.148634
C132  C     C_3   0.947672 0.272763 0.783158 -0.904300
H170  H     H_    0.960628 0.227727 0.821258 0.218872
H171  H     H_    0.899674 0.276858 0.791623 0.244384
H172  H     H_    0.959109 0.268129 0.707812 0.276601
O37   O     O_3   0.509025 0.882425 0.255279 -0.595076
C133  C     C_3   0.515515 0.825689 0.197157 0.023958
H173  H     H_    0.553502 0.831941 0.148494 0.146454
H174  H     H_    0.475628 0.816263 0.155486 0.145790
C134  C     C_3   0.525045 0.763978 0.255194 -0.887623
H175  H     H_    0.482798 0.737868 0.267623 0.229206
H176  H     H_    0.554266 0.730121 0.215190 0.218570
H177  H     H_    0.545297 0.775683 0.323954 0.272468
O38   O     O_3   0.512391 0.118635 0.761121 -0.609205
C135  C     C_3   0.521772 0.167628 0.831959 0.043622
H178  H     H_    0.550611 0.149550 0.889293 0.152102
H179  H     H_    0.479402 0.182853 0.862541 0.145261
C136  C     C_3   0.550237 0.229981 0.794427 -0.911810
H180  H     H_    0.544668 0.269353 0.847694 0.214322
H181  H     H_    0.597919 0.223895 0.785190 0.250582
H182  H     H_    0.529915 0.245125 0.727590 0.267857
O39   O     O_3   0.489488 0.117547 0.249131 -0.599527
C137  C     C_3   0.486365 0.172939 0.187209 0.027721
H183  H     H_    0.452346 0.165509 0.132528 0.147562
H184  H     H_    0.529356 0.181840 0.153029 0.146627
C138  C     C_3   0.471616 0.235804 0.238698 -0.901573
H185  H     H_    0.486308 0.278329 0.195236 0.212915
H186  H     H_    0.423893 0.240595 0.247802 0.243778
H187  H     H_    0.493498 0.237632 0.307741 0.266651
O40   O     O_3   0.488293 0.881769 0.756873 -0.611310
C139  C     C_3   0.471995 0.833582 0.826085 0.029950
H188  H     H_    0.443006 0.854479 0.881805 0.149923
H189  H     H_    0.511306 0.813444 0.860208 0.148193
C140  C     C_3   0.438963 0.776214 0.783690 -0.891211
H190  H     H_    0.451546 0.729922 0.819078 0.217500
H191  H     H_    0.391423 0.782336 0.795970 0.244129
H192  H     H_    0.447936 0.772474 0.707341 0.280428

loop_
_geom_bond_atom_site_label_1
_geom_bond_atom_site_label_2
_ccdc_geom_bond_type
N8    C112  S    
O23   C89   S    
C33   C45   A    
N14   H125  S    
C53   C69   A    
C130  H167  S    
C126  H155  S    
N16   C120  S    
O33   C125  S    
C116  H120  S    
O36   C131  S    
C138  H185  S    
C22   C38   A    
C106  H83   S    
O10   Zn4   S    
C131  C132  S    
N15   C119  S    
C2    O2    A    
C77   H9    S    
C136  H182  S    
C17   C61   A    
C131  H168  S    
C115  H114  S    
C56   C72   A    
C117  H123  S    
C98   H61   S    
C134  H177  S    
C58   C61   S    
O19   C81   S    
C110  H94   S    
C53   C75   A    
C90   H42   S    
C17   O25   S    
C86   H31   S    
C84   H28   S    
C67   N1    A    
N7    C111  S    
C123  H146  S    
C111  H98   S    
C24   O32   S    
C25   C41   A    
C127  H158  S    
C139  H189  S    
C81   C82   S    
O26   C95   S    
C95   C96   S    
C122  H144  S    
C75   C76   S    
O32   C107  S    
C132  H171  S    
N16   H133  S    
C54   C70   A    
C5    O12   A    
C11   C27   A    
C99   H64   S    
N17   H137  S    
C88   H38   S    
C107  H85   S    
C93   C94   S    
O4    Zn2   S    
C23   C64   A    
C33   N13   S    
C24   C63   A    
C114  H111  S    
O39   C137  S    
C85   H30   S    
C55   H7    S    
C86   H33   S    
N9    C113  S    
C113  H107  S    
C26   N6    S    
C69   O37   S    
C18   C62   A    
C127  C128  S    
C140  H190  S    
C18   O26   S    
C27   N7    S    
N13   C117  S    
C90   H41   S    
O37   C133  S    
C125  C126  S    
C14   O22   S    
C127  H159  S    
N12   C116  S    
C129  H163  S    
C79   H15   S    
C80   H17   S    
O9    Zn3   S    
N15   H129  S    
C126  H157  S    
N19   H145  S    
C110  H96   S    
C19   C35   A    
C30   N10   S    
O17   C77   S    
C16   C59   A    
O16   Zn3   S    
C55   C71   A    
C78   H12   S    
O35   C129  S    
N10   C114  S    
C15   C60   A    
O3    Zn1   S    
N7    H97   S    
O31   C105  S    
C10   C58   A    
C52   C74   A    
C50   C74   A    
N9    H105  S    
C103  H75   S    
C96   H57   S    
C112  H102  S    
C20   C61   A    
C135  H178  S    
C95   H54   S    
C1    C43   S    
C2    C44   S    
C94   H52   S    
C34   C46   A    
C37   C47   A    
C11   C58   A    
C108  H86   S    
C38   C48   A    
C89   C90   S    
C55   C75   A    
C120  H136  S    
N5    H89   S    
C91   H45   S    
C100  H67   S    
C107  H84   S    
C106  H81   S    
C93   H50   S    
N17   C121  S    
C140  H192  S    
O12   Zn4   S    
C115  H116  S    
C3    O5    A    
N20   C124  S    
C125  H153  S    
C71   O39   S    
C111  H100  S    
C105  C106  S    
C104  H76   S    
C123  H147  S    
C135  C136  S    
C105  H80   S    
C118  H126  S    
O7    Zn2   S    
O5    Zn2   S    
C119  H131  S    
C16   O24   S    
C98   H63   S    
C102  H71   S    
O14   Zn3   S    
C109  H91   S    
C51   C67   A    
C131  H169  S    
C133  C134  S    
C32   N12   S    
C19   O27   S    
C12   C57   A    
C5    O9    A    
C120  H134  S    
C121  H139  S    
C4    O6    A    
C128  H161  S    
C126  H156  S    
C70   O38   S    
N1    Zn2   S    
C26   C42   A    
C36   N16   S    
C82   H21   S    
C92   H47   S    
C102  H72   S    
C81   H20   S    
C66   N2    A    
C99   H65   S    
N10   H109  S    
C15   C31   A    
C83   H24   S    
C13   C59   A    
C116  H119  S    
C14   C60   A    
C100  H66   S    
C7    O16   A    
C112  H104  S    
C10   O18   S    
O18   C79   S    
C27   C42   A    
C4    C42   S    
C18   C34   A    
N11   C115  S    
C32   C43   A    
C49   H1    S    
C2    O3    A    
C119  H132  S    
C51   H3    S    
C136  H181  S    
C68   O36   S    
C7    O13   A    
C22   O30   S    
O1    Zn1   S    
C87   H34   S    
C138  H186  S    
C134  H176  S    
O8    Zn1   S    
O6    Zn1   S    
C137  H183  S    
C113  H108  S    
C73   C74   S    
C109  H90   S    
C28   N8    S    
C83   C84   S    
N19   C123  S    
C130  H165  S    
C9    C25   A    
C113  H106  S    
O30   C103  S    
C104  H78   S    
C84   H27   S    
C97   H59   S    
C12   C28   A    
C6    O10   A    
C13   C29   A    
C11   O19   S    
C34   N14   S    
C118  H128  S    
C101  H70   S    
N6    H93   S    
C28   C41   A    
C102  H73   S    
C53   H5    S    
C92   H46   S    
C122  H143  S    
C133  H173  S    
C97   C98   S    
C130  H166  S    
C23   O31   S    
C87   C88   S    
C137  H184  S    
N12   H117  S    
C13   O21   S    
C88   H37   S    
C69   N3    A    
C82   H23   S    
O13   Zn4   S    
N18   H141  S    
C114  H110  S    
C29   C43   A    
C89   H40   S    
C85   C86   S    
C30   C44   A    
C17   C33   A    
C50   H2    S    
C86   H32   S    
C56   H8    S    
C9    O17   S    
C38   N18   S    
C92   H48   S    
O2    Zn2   S    
N4    Zn3   S    
C129  C130  S    
O29   C101  S    
C119  H130  S    
N13   H121  S    
C40   N20   S    
C4    O7    A    
C140  H191  S    
C117  H122  S    
C66   O34   S    
C117  H124  S    
C129  H164  S    
C80   H16   S    
C6    C48   S    
C71   N3    A    
C1    O4    A    
C110  H95   S    
O20   C83   S    
C16   C32   A    
C31   N11   S    
C54   H6    S    
C90   H43   S    
C78   H11   S    
C84   H26   S    
C97   H60   S    
N14   C118  S    
C101  H69   S    
C139  H188  S    
O11   Zn3   S    
C137  C138  S    
N20   H149  S    
O22   C87   S    
C124  H152  S    
C39   N19   S    
C96   H56   S    
C81   H19   S    
O27   C97   S    
C8    O15   A    
C135  H179  S    
C20   O28   S    
C21   C63   A    
C65   O33   S    
C22   C64   A    
C20   C36   A    
C21   C37   A    
C94   H51   S    
C114  H112  S    
C108  H87   S    
C85   H29   S    
C52   H4    S    
C35   C46   A    
C39   C48   A    
C40   C47   A    
C121  H138  S    
O24   C91   S    
C56   C76   A    
C68   N2    A    
C124  H150  S    
C70   N4    A    
C139  C140  S    
C57   C62   S    
O25   C93   S    
C5    C47   S    
C59   C64   S    
C49   C65   A    
C60   C63   S    
C7    C45   S    
C128  H162  S    
C115  H115  S    
C15   O23   S    
C125  H154  S    
C111  H99   S    
C19   C62   A    
C107  C108  S    
C21   O29   S    
C79   H14   S    
C80   H18   S    
C77   H10   S    
C106  H82   S    
C93   H49   S    
O21   C85   S    
N3    Zn4   S    
N6    C110  S    
C29   N9    S    
C3    O8    A    
C25   N5    S    
C9    C57   A    
C52   C68   A    
C138  H187  S    
C10   C26   A    
C72   O40   S    
C105  H79   S    
C14   C30   A    
C72   N4    A    
C8    C46   S    
C35   N15   S    
N18   C122  S    
C31   C44   A    
C67   O35   S    
C103  H74   S    
C96   H58   S    
C83   H25   S    
C120  H135  S    
C116  H118  S    
C132  H172  S    
C112  H103  S    
C79   C80   S    
C89   H39   S    
C108  H88   S    
O28   C99   S    
C94   H53   S    
C99   C100  S    
C98   H62   S    
N11   H113  S    
C124  H151  S    
C36   C45   A    
C50   C66   A    
C77   C78   S    
C136  H180  S    
O15   Zn4   S    
C54   C76   A    
C12   O20   S    
N5    C109  S    
C91   H44   S    
C100  H68   S    
C87   H35   S    
N2    Zn1   S    
N8    H101  S    
C134  H175  S    
C3    C41   S    
C1    O1    A    
C95   H55   S    
C51   C73   A    
C103  C104  S    
C65   N1    A    
C104  H77   S    
C132  H170  S    
C123  H148  S    
C37   N17   S    
C6    O11   A    
C78   H13   S    
C88   H36   S    
C118  H127  S    
O38   C135  S    
C101  C102  S    
O40   C139  S    
C23   C39   A    
C24   C40   A    
C109  H92   S    
C49   C73   A    
C122  H142  S    
C133  H174  S    
C91   C92   S    
C121  H140  S    
O34   C127  S    
C128  H160  S    
C8    O14   A    
C82   H22   S    
