data_mof_unit_54273.cif
_audit_creation_date              2012-12-11T15:54:55-0500
_audit_creation_method            fapswitch 2.2
_symmetry_space_group_name_H-M    P1
_symmetry_Int_Tables_number       1
_space_group_crystal_system       triclinic
_cell_length_a                    17.604766
_cell_length_b                    24.384582
_cell_length_c                    15.061669
_cell_angle_alpha                 90.001598
_cell_angle_beta                  126.271855
_cell_angle_gamma                 89.995785
_cell_volume                      5212.80760859

loop_
_atom_site_label
_atom_site_type_symbol
_atom_type_description
_atom_site_fract_x
_atom_site_fract_y
_atom_site_fract_z
_atom_type_partial_charge
Br1   Br    Br    0.994184 0.114225 0.429337 -0.432700
Br2   Br    Br    0.683003 0.895412 0.070858 -0.289362
Br3   Br    Br    0.182201 0.604381 0.069844 -0.287894
Br4   Br    Br    0.176437 0.395226 0.064524 -0.283450
Br5   Br    Br    0.541966 0.205253 0.030674 -0.426221
Br6   Br    Br    0.548982 0.795864 0.042042 -0.401728
Br7   Br    Br    0.048385 0.704040 0.041183 -0.434675
Br8   Br    Br    0.042905 0.294433 0.032003 -0.417030
Br9   Br    Br    0.994327 0.719184 0.806412 -0.432171
Br10  Br    Br    0.996563 0.278527 0.801003 -0.438974
Br11  Br    Br    0.496503 0.221531 0.800191 -0.438995
Br12  Br    Br    0.869363 0.008903 0.299590 -0.322808
Br13  Br    Br    0.494341 0.780978 0.806948 -0.434167
Br14  Br    Br    0.649177 0.873853 0.488816 -0.359320
Br15  Br    Br    0.648564 0.120210 0.475458 -0.418275
Br16  Br    Br    0.147428 0.378118 0.477943 -0.402401
Br17  Br    Br    0.151537 0.624849 0.486165 -0.432723
Br18  Br    Br    0.203039 0.103766 0.552221 -0.379574
Br19  Br    Br    0.949275 0.899160 0.391233 -0.490090
Br20  Br    Br    0.449106 0.600750 0.391106 -0.491797
Br21  Br    Br    0.703252 0.396311 0.552354 -0.376406
Br22  Br    Br    0.369388 0.490972 0.299633 -0.305125
Br23  Br    Br    0.494407 0.385700 0.429428 -0.430589
Br24  Br    Br    0.209889 0.090241 0.768180 -0.386652
Br25  Br    Br    0.869449 0.945316 0.519968 -0.416638
Br26  Br    Br    0.369417 0.554558 0.519979 -0.411381
Br27  Br    Br    0.709710 0.409564 0.768136 -0.413268
Br28  Br    Br    0.675782 0.104541 0.063446 -0.318533
C1    C     C_R   0.903324 0.876970 0.092780 -0.036623
C2    C     C_R   0.145983 0.847469 0.091755 -0.137826
C3    C     C_R   0.317444 0.640455 0.001434 0.077819
C4    C     C_R   0.710562 0.999391 0.620280 0.129596
C5    C     C_R   0.210318 0.500243 0.620384 0.124399
C6    C     C_R   0.075324 0.999643 0.372355 0.081438
C7    C     C_R   0.575346 0.500353 0.372370 0.081506
C8    C     C_R   0.266468 0.954510 0.240821 -0.115521
C9    C     C_R   0.267394 0.046009 0.245986 -0.091902
C10   C     C_R   0.766955 0.454172 0.243530 -0.178197
C11   C     C_R   0.766441 0.545582 0.240945 -0.002070
C12   C     C_R   0.020463 0.045953 0.753682 -0.050265
C13   C     C_R   0.646030 0.652510 0.091764 -0.097033
C14   C     C_R   0.027026 0.954302 0.762142 -0.058868
C15   C     C_R   0.527080 0.545686 0.762209 -0.051480
C16   C     C_R   0.520485 0.454039 0.753708 -0.058831
C17   C     C_2   0.260972 0.982380 0.611121 0.860074
C18   C     C_2   0.168688 0.902018 0.528163 0.603384
C19   C     C_2   0.668613 0.597989 0.528099 0.602479
C20   C     C_2   0.760971 0.517667 0.611290 0.864255
C21   C     C_2   0.232891 0.959419 0.788369 0.854379
C22   C     C_2   0.111572 0.895616 0.663038 0.324087
C23   C     C_2   0.611244 0.604414 0.662722 0.324074
C24   C     C_R   0.647391 0.347815 0.091772 -0.143448
C25   C     C_2   0.732873 0.540783 0.788270 0.830326
C26   C     C_2   0.911251 0.236470 0.162903 0.580440
C27   C     C_2   0.911729 0.760980 0.158327 0.555644
C28   C     C_2   0.411617 0.738614 0.159054 0.602140
C29   C     C_2   0.411644 0.263383 0.162387 0.577303
C30   C     C_2   0.447072 0.894736 0.408475 0.697001
C31   C     C_2   0.442251 0.103566 0.309079 0.678488
C32   C     C_2   0.941590 0.395483 0.312008 0.647854
C33   C     C_2   0.948015 0.606611 0.396970 0.660492
C34   C     C_2   0.443176 0.917496 0.247690 0.398993
C35   C     C_R   0.323926 0.000225 0.267864 0.048931
C36   C     C_2   0.471579 0.032835 0.219251 0.419430
C37   C     C_2   0.967822 0.462862 0.216335 0.498086
C38   C     C_2   0.952379 0.579529 0.243677 0.400306
C39   C     C_R   0.823718 0.499952 0.265145 0.038977
C40   C     C_R   0.052712 0.999869 0.730086 0.079244
C41   C     C_R   0.552778 0.500117 0.730159 0.073091
C42   C     C_R   0.118157 0.816588 0.000767 0.129800
C43   C     C_R   0.120673 0.182626 0.000679 0.125181
C44   C     C_R   0.620222 0.317225 0.000555 0.126122
C45   C     C_R   0.902638 0.121898 0.092758 -0.048793
C46   C     C_R   0.618206 0.683379 0.000774 0.126851
C47   C     C_3   0.096289 0.060731 0.525961 0.401718
C48   C     C_3   0.978920 0.976718 0.437059 0.501145
C49   C     C_3   0.478892 0.523214 0.437054 0.498464
C50   C     C_3   0.596391 0.439258 0.526019 0.402217
C51   C     C_3   0.101208 0.056719 0.632320 0.091357
C52   C     C_3   0.968997 0.989002 0.529580 0.051804
C53   C     C_3   0.469001 0.510928 0.529604 0.053291
C54   C     C_3   0.601258 0.443263 0.632348 0.095333
C55   C     C_3   0.164567 0.959239 0.571429 -0.348062
C56   C     C_R   0.402647 0.378126 0.092777 -0.048137
C57   C     C_3   0.664508 0.540785 0.571416 -0.347668
C58   C     C_3   0.080629 0.998971 0.475276 -0.265649
C59   C     C_3   0.580638 0.501015 0.475289 -0.268546
C60   C     C_3   0.069489 0.998206 0.643429 -0.200201
C61   C     C_3   0.569513 0.501775 0.643465 -0.199215
C62   C     C_R   0.810258 0.124367 0.907972 -0.110338
C63   C     C_R   0.810924 0.874633 0.908018 -0.112038
C64   C     C_R   0.310848 0.625273 0.907991 -0.113137
C65   C     C_R   0.310272 0.375637 0.908007 -0.108777
C66   C     C_3   0.147034 0.953583 0.666610 -0.231884
C67   C     C_R   0.403235 0.622929 0.092748 -0.045094
C68   C     C_3   0.646920 0.546466 0.666526 -0.224664
C69   C     C_3   0.663886 0.164149 0.968182 0.132458
C70   C     C_3   0.666159 0.836039 0.972349 0.133587
C71   C     C_3   0.165847 0.663903 0.971858 0.137702
C72   C     C_3   0.164200 0.335762 0.968800 0.132062
C73   C     C_3   0.103795 0.713730 0.960987 0.467360
C74   C     C_3   0.102948 0.285225 0.956891 0.470476
C75   C     C_3   0.602523 0.214652 0.956207 0.474351
C76   C     C_3   0.604045 0.786250 0.961433 0.461987
C77   C     C_3   0.243778 0.729173 0.918342 -0.433358
C78   C     C_R   0.055436 0.847420 0.908926 -0.135866
C79   C     C_3   0.246730 0.271052 0.920591 -0.447579
C80   C     C_3   0.746863 0.229015 0.920877 -0.444095
C81   C     C_3   0.743543 0.770805 0.918012 -0.438536
C82   C     C_3   0.816773 0.211244 0.122651 -0.198653
C83   C     C_3   0.818524 0.786634 0.121669 -0.190195
C84   C     C_3   0.318184 0.713074 0.121794 -0.216806
C85   C     C_3   0.317242 0.288536 0.122625 -0.197782
C86   C     C_3   0.762565 0.184551 0.004577 0.022216
C87   C     C_3   0.763026 0.814516 0.004599 0.021328
C88   C     C_3   0.262889 0.685353 0.004586 0.019718
C89   C     C_R   0.057292 0.151998 0.908713 -0.101042
C90   C     C_3   0.262735 0.315389 0.004659 0.020351
C91   C     C_3   0.166420 0.767057 0.001884 0.099655
C92   C     C_3   0.167741 0.232690 0.001641 0.083672
C93   C     C_3   0.667351 0.267167 0.001496 0.088030
C94   C     C_3   0.666514 0.732868 0.001894 0.095180
C95   C     C_3   0.199685 0.779709 0.928609 -0.380575
C96   C     C_3   0.204142 0.219963 0.931632 -0.366412
C97   C     C_3   0.704155 0.280046 0.931951 -0.374164
C98   C     C_3   0.699434 0.720273 0.928246 -0.369940
C99   C     C_3   0.256358 0.756979 0.121180 -0.477954
C100  C     C_R   0.557083 0.347954 0.908659 -0.106924
C101  C     C_3   0.255474 0.244414 0.121627 -0.468660
C102  C     C_3   0.754819 0.255273 0.121568 -0.470247
C103  C     C_3   0.756665 0.742789 0.121116 -0.484719
C104  C     C_3   0.474804 0.939317 0.360136 -0.304502
C105  C     C_3   0.483050 0.045817 0.325738 -0.258030
C106  C     C_3   0.983058 0.452624 0.325866 -0.306847
C107  C     C_3   0.976939 0.559721 0.354492 -0.257578
C108  C     C_R   0.750057 0.954829 0.691663 -0.070960
C109  C     C_R   0.752346 0.044660 0.690064 -0.124478
C110  C     C_R   0.251996 0.455144 0.690424 -0.135319
C111  C     C_R   0.555437 0.652574 0.908927 -0.133442
C112  C     C_R   0.249865 0.545008 0.691410 -0.056004
C113  C     C_3   0.584282 0.945356 0.438266 0.181992
C114  C     C_3   0.592573 0.046446 0.426513 0.089011
C115  C     C_3   0.092515 0.452060 0.427574 0.158744
C116  C     C_3   0.086430 0.553415 0.436884 0.073052
C117  C     C_3   0.447269 0.012794 0.459173 -0.317422
C118  C     C_3   0.946655 0.489337 0.456641 -0.324216
C119  C     C_3   0.430116 0.999322 0.348337 0.050247
C120  C     C_3   0.930384 0.500608 0.345419 0.082762
C121  C     C_3   0.613568 0.999815 0.512114 0.016737
C122  C     C_R   0.147792 0.152055 0.091893 -0.129517
C123  C     C_3   0.113667 0.499744 0.511697 0.030229
C124  C     C_3   0.550858 0.009972 0.552052 -0.319905
C125  C     C_3   0.049878 0.492052 0.550500 -0.321805
C126  C     C_R   0.057938 0.045071 0.307804 -0.023418
C127  C     C_R   0.055420 0.954503 0.306294 -0.038127
C128  C     C_R   0.555424 0.545494 0.306301 -0.042029
C129  C     C_R   0.557965 0.454929 0.307814 -0.021541
C130  C     C_R   0.817569 0.859411 0.001465 0.075593
C131  C     C_R   0.816574 0.139230 0.001448 0.080892
C132  C     C_R   0.316600 0.360779 0.001488 0.077676
H1    H     H_    0.931569 0.873034 0.178226 0.157034
H2    H     H_    0.630106 0.856838 0.891154 0.142462
H3    H     H_    0.006251 0.597624 0.238943 0.146314
H4    H     H_    0.129913 0.643225 0.890564 0.140890
H5    H     H_    0.129074 0.356201 0.887390 0.135325
H6    H     H_    0.193991 0.712823 0.833333 0.214990
H7    H     H_    0.197172 0.286544 0.834842 0.213476
H8    H     H_    0.697498 0.213624 0.835019 0.213052
H9    H     H_    0.693630 0.787264 0.833119 0.215277
H10   H     H_    0.752790 0.131614 0.822716 0.120307
H11   H     H_    0.753744 0.866970 0.822960 0.124458
H12   H     H_    0.253642 0.632881 0.822901 0.123911
H13   H     H_    0.930641 0.125067 0.178385 0.163609
H14   H     H_    0.252813 0.368353 0.822780 0.120866
H15   H     H_    0.141023 0.793020 0.844249 0.227260
H16   H     H_    0.147472 0.205187 0.847483 0.220558
H17   H     H_    0.647676 0.294929 0.847807 0.222202
H18   H     H_    0.640602 0.707076 0.843881 0.225268
H19   H     H_    0.829617 0.179697 0.183551 0.223864
H20   H     H_    0.833287 0.817553 0.184370 0.226214
H21   H     H_    0.332605 0.682064 0.184201 0.227501
H22   H     H_    0.330241 0.319973 0.183770 0.223268
H23   H     H_    0.732128 0.241512 0.172971 0.236402
H24   H     H_    0.430675 0.374941 0.178412 0.163015
H25   H     H_    0.737183 0.755918 0.175961 0.235033
H26   H     H_    0.236618 0.743839 0.175771 0.234874
H27   H     H_    0.233083 0.258034 0.173405 0.236228
H28   H     H_    0.297348 0.795728 0.157334 0.164581
H29   H     H_    0.297551 0.206324 0.160836 0.168493
H30   H     H_    0.796886 0.293309 0.161173 0.168653
H31   H     H_    0.797524 0.703981 0.156993 0.172954
H32   H     H_    0.309353 0.740768 0.927779 0.216645
H33   H     H_    0.313379 0.260305 0.931843 0.222591
H34   H     H_    0.813646 0.239800 0.932486 0.221500
H35   H     H_    0.431432 0.626824 0.178185 0.156606
H36   H     H_    0.808975 0.759176 0.927136 0.219283
H37   H     H_    0.251951 0.813806 0.965351 0.200050
H38   H     H_    0.258168 0.186845 0.971546 0.216171
H39   H     H_    0.758201 0.313137 0.972233 0.207191
H40   H     H_    0.751593 0.686113 0.964669 0.212684
H41   H     H_    0.606996 0.951971 0.384203 0.139504
H42   H     H_    0.635140 0.035620 0.396598 0.115753
H43   H     H_    0.136140 0.461887 0.398861 0.175182
H44   H     H_    0.112897 0.545608 0.386960 0.144443
H45   H     H_    0.731536 0.912661 0.676666 0.165942
H46   H     H_    0.048206 0.086248 0.619375 0.138027
H47   H     H_    0.737726 0.087246 0.671459 0.174619
H48   H     H_    0.237611 0.412550 0.672360 0.173733
H49   H     H_    0.231163 0.587203 0.675523 0.170599
H50   H     H_    0.407506 0.984778 0.476292 0.200516
H51   H     H_    0.419751 0.053707 0.458880 0.215253
H52   H     H_    0.918268 0.449020 0.457901 0.217095
H53   H     H_    0.906906 0.518501 0.471805 0.202128
H54   H     H_    0.562965 0.977619 0.611257 0.217093
H55   H     H_    0.570308 0.049519 0.597747 0.196217
H56   H     H_    0.068403 0.453325 0.598536 0.193560
H57   H     H_    0.931810 0.028986 0.508997 0.166769
H58   H     H_    0.061639 0.525850 0.607062 0.219097
H59   H     H_    0.076669 0.087076 0.332851 0.178681
H60   H     H_    0.065597 0.911786 0.327180 0.147359
H61   H     H_    0.565589 0.588211 0.327183 0.147565
H62   H     H_    0.576755 0.412928 0.332881 0.178592
H63   H     H_    0.283427 0.912226 0.243217 0.056800
H64   H     H_    0.286137 0.088453 0.262517 0.116804
H65   H     H_    0.785056 0.411672 0.258306 0.132134
H66   H     H_    0.783271 0.588023 0.245797 0.090765
H67   H     H_    0.026651 0.088635 0.741139 0.120331
H68   H     H_    0.431850 0.470936 0.509044 0.167925
H69   H     H_    0.037627 0.911784 0.755487 0.102775
H70   H     H_    0.537746 0.588200 0.755634 0.102163
H71   H     H_    0.526653 0.411356 0.741138 0.122625
H72   H     H_    0.012881 0.834486 0.823899 0.163348
H73   H     H_    0.015467 0.164756 0.823667 0.152946
H74   H     H_    0.515274 0.335247 0.823585 0.155031
H75   H     H_    0.512842 0.665529 0.823907 0.162109
H76   H     H_    0.187309 0.165446 0.176636 0.134902
H77   H     H_    0.185496 0.834186 0.176591 0.133614
H78   H     H_    0.685523 0.665811 0.176582 0.122664
H79   H     H_    0.548195 0.413763 0.619320 0.138978
H80   H     H_    0.686713 0.334368 0.176470 0.140261
H81   H     H_    0.265922 0.008474 0.556950 0.001808
H82   H     H_    0.125410 0.867928 0.518311 0.127312
H83   H     H_    0.625186 0.632050 0.518006 0.128321
H84   H     H_    0.766056 0.491660 0.557112 0.001264
H85   H     H_    0.228945 0.941377 0.851589 -0.034027
H86   H     H_    0.037400 0.886221 0.612862 0.164079
H87   H     H_    0.537042 0.613713 0.612667 0.163245
H88   H     H_    0.729422 0.559401 0.851440 -0.012266
H89   H     H_    0.915595 0.267596 0.114713 0.070712
H90   H     H_    0.628972 0.143810 0.886710 0.136386
H91   H     H_    0.913853 0.729893 0.108417 0.086021
H92   H     H_    0.414195 0.769505 0.109175 0.097674
H93   H     H_    0.415801 0.232305 0.113979 0.072705
H94   H     H_    0.404644 0.859889 0.358508 0.009823
H95   H     H_    0.407046 0.124030 0.229865 0.017462
H96   H     H_    0.905729 0.374154 0.233528 -0.044270
H97   H     H_    0.909023 0.641583 0.344405 0.009648
H98   H     H_    0.380440 0.933423 0.172426 0.087250
H99   H     H_    0.531050 0.020096 0.220083 0.116321
H100  H     H_    0.896254 0.466859 0.142115 0.075543
N1    N     N_R   0.950530 0.896220 0.057200 -0.054831
N2    N     N_R   0.818150 0.028600 0.792440 -0.058060
N3    N     N_R   0.318150 0.471400 0.792440 -0.056300
N4    N     N_R   0.318150 0.528600 0.792440 -0.061092
N5    N     N_R   0.025710 0.028600 0.207560 -0.059290
N6    N     N_R   0.025710 0.971400 0.207560 -0.053942
N7    N     N_R   0.525710 0.528600 0.207560 -0.054210
N8    N     N_R   0.525710 0.471400 0.207560 -0.058446
N9    N     N_R   0.181850 0.971400 0.207560 -0.043990
N10   N     N_R   0.181850 0.028600 0.207560 -0.056478
N11   N     N_R   0.681850 0.471400 0.207560 -0.048793
N12   N     N_R   0.950530 0.103780 0.057200 -0.056283
N13   N     N_R   0.681850 0.528600 0.207560 -0.061893
N14   N     N_R   0.974290 0.028600 0.792440 -0.050608
N15   N     N_R   0.974290 0.971400 0.792440 -0.035980
N16   N     N_R   0.474290 0.528600 0.792440 -0.035949
N17   N     N_R   0.474290 0.471400 0.792440 -0.049663
N18   N     N_R   0.049470 0.896220 0.942800 -0.057031
N19   N     N_R   0.049470 0.103780 0.942800 -0.052929
N20   N     N_R   0.549470 0.396220 0.942800 -0.054648
N21   N     N_R   0.549470 0.603780 0.942800 -0.055636
N22   N     N_R   0.106670 0.103780 0.057200 -0.049493
N23   N     N_R   0.450530 0.396220 0.057200 -0.054658
N24   N     N_R   0.106670 0.896220 0.057200 -0.051696
N25   N     N_R   0.606670 0.603780 0.057200 -0.052117
N26   N     N_R   0.606670 0.396220 0.057200 -0.050071
N27   N     N_R   0.450530 0.603780 0.057200 -0.056951
N28   N     N_R   0.893330 0.103780 0.942800 -0.045421
N29   N     N_R   0.893330 0.896220 0.942800 -0.044865
N30   N     N_R   0.393330 0.603780 0.942800 -0.046032
N31   N     N_R   0.393330 0.396220 0.942800 -0.044348
N32   N     N_R   0.818150 0.971400 0.792440 -0.059465
Ni1   Ni    Ni4+2 0.065600 0.934400 0.131190 0.260292
Ni2   Ni    Ni4+2 0.065600 0.065600 0.131190 0.254495
Ni3   Ni    Ni4+2 0.565600 0.434400 0.131190 0.254725
Ni4   Ni    Ni4+2 0.565600 0.565600 0.131190 0.257923
Ni5   Ni    Ni4+2 0.934400 0.065600 0.868810 0.261303
Ni6   Ni    Ni4+2 0.934400 0.934400 0.868810 0.273053
Ni7   Ni    Ni4+2 0.434400 0.565600 0.868810 0.273451
Ni8   Ni    Ni4+2 0.434400 0.434400 0.868810 0.260540
O1    O     O_2   0.334683 0.961272 0.686425 -0.474722
O2    O     O_2   0.984903 0.773656 0.246293 -0.529966
O3    O     O_2   0.484469 0.726072 0.247478 -0.516005
O4    O     O_2   0.483543 0.276466 0.251250 -0.497401
O5    O     O_2   0.475932 0.894823 0.504778 -0.551576
O6    O     O_2   0.447737 0.128402 0.383145 -0.547115
O7    O     O_2   0.946827 0.372129 0.387246 -0.530077
O8    O     O_2   0.971987 0.608043 0.491353 -0.542767
O9    O     O_2   0.484150 0.879464 0.240002 -0.480736
O10   O     O_2   0.394253 0.035367 0.130223 -0.544951
O11   O     O_2   0.032668 0.465794 0.208070 -0.471228
O12   O     O_2   0.221750 0.892330 0.502536 -0.551858
O13   O     O_2   0.871894 0.578365 0.159534 -0.601602
O14   O     O_2   0.721809 0.607692 0.502676 -0.551662
O15   O     O_2   0.834619 0.538711 0.686851 -0.473988
O16   O     O_2   0.303722 0.985436 0.820119 -0.465422
O17   O     O_2   0.166439 0.857587 0.712900 -0.559111
O18   O     O_2   0.665970 0.642532 0.712281 -0.557253
O19   O     O_2   0.803193 0.514183 0.820108 -0.469936
O20   O     O_2   0.982993 0.223395 0.251924 -0.495933

loop_
_geom_bond_atom_site_label_1
_geom_bond_atom_site_label_2
_ccdc_geom_bond_type
C77   C88   S    
C90   C132  S    
N4    Ni7   S    
C21   C66   S    
C6    C127  A    
C34   O9    D    
C116  C123  S    
C108  H45   S    
C57   C68   S    
C77   C95   S    
C20   O15   D    
N14   N15   A    
C13   C46   A    
C116  H44   S    
N2    Ni5   S    
C112  N4    A    
C78   N18   A    
Br6   C76   S    
C10   N11   A    
C34   H98   S    
N9    Ni1   S    
C109  N2    A    
C115  C123  S    
C26   O20   D    
C79   C96   S    
C13   N25   A    
C70   H2    S    
C112  H49   S    
C13   H78   S    
C63   C130  A    
C79   H7    S    
C111  N21   A    
C31   H95   S    
C34   C104  S    
Br10  C74   S    
C18   O12   D    
C71   C88   S    
C15   N16   A    
C124  H54   S    
N13   Ni4   S    
C73   C91   S    
C23   H87   S    
C7    C129  A    
C24   C44   A    
Br15  C114  S    
C50   C54   S    
C47   C58   S    
C127  H60   S    
N3    Ni8   S    
C69   C75   S    
C71   C73   S    
Br26  C53   S    
C101  H27   S    
C62   N28   A    
N20   Ni8   S    
C75   C93   S    
C32   C106  S    
N16   Ni7   S    
C33   C107  S    
C72   C74   S    
C38   O13   D    
C98   H40   S    
C63   N29   A    
C27   C83   S    
C1    C130  A    
C91   C95   S    
C63   H11   S    
C61   C68   S    
C52   C60   S    
N18   Ni6   S    
C64   H12   S    
C26   H89   S    
C98   H18   S    
C123  C125  S    
C14   H69   S    
C55   C58   S    
C10   C39   A    
C64   N30   A    
C126  H59   S    
C22   H86   S    
C47   C51   S    
C102  H30   S    
C50   C59   S    
C115  H43   S    
Br5   C75   S    
Br18  C47   S    
N1    Ni1   S    
C93   C102  S    
C15   H70   S    
C23   O18   D    
C105  C114  S    
C54   C61   S    
C81   H36   S    
Br17  C116  S    
C80   H8    S    
C114  C121  S    
C102  H23   S    
C24   N26   A    
C43   C122  A    
C76   C94   S    
C28   O3    D    
C32   H96   S    
C77   H6    S    
C26   C82   S    
C62   C131  A    
C11   H66   S    
C7    C59   S    
C16   N17   A    
N23   Ni3   S    
C101  H29   S    
C30   H94   S    
C105  C119  S    
C17   O1    D    
C29   O4    D    
C82   C86   S    
C79   C90   S    
C106  C115  S    
C15   C41   A    
C17   C55   S    
C41   C61   S    
C35   C119  S    
C81   H9    S    
C56   N23   A    
C60   C66   S    
C43   C89   A    
C87   C130  S    
C92   C101  S    
C118  H53   S    
C56   H24   S    
C37   O11   D    
N14   Ni5   S    
C52   H57   S    
C110  H48   S    
C22   C66   S    
C29   C85   S    
C38   C107  S    
C72   H5    S    
C93   C97   S    
N10   Ni2   S    
Br24  C51   S    
C89   H73   S    
C54   H79   S    
N31   Ni8   S    
N11   Ni3   S    
C103  H25   S    
C83   C103  S    
C80   H34   S    
C94   C103  S    
C84   C88   S    
C104  C113  S    
C129  N8    A    
C104  C119  S    
C95   H37   S    
Br27  C54   S    
C48   C52   S    
C95   H15   S    
N7    N8    A    
C27   O2    D    
C84   H21   S    
C96   H16   S    
C45   C131  A    
N19   Ni5   S    
C32   O7    D    
C70   C87   S    
C82   H19   S    
C67   N27   A    
C29   H93   S    
N20   N26   A    
C117  C124  S    
C24   H80   S    
Br3   C71   S    
C81   C98   S    
N16   N17   A    
C49   C59   S    
Br7   C73   S    
C69   C86   S    
C100  N20   A    
C21   H85   S    
N12   Ni2   S    
C19   O14   D    
C91   C99   S    
Br28  C69   S    
C53   H68   S    
C44   C93   S    
Br25  C52   S    
N32   Ni6   S    
C33   H97   S    
C20   H84   S    
C126  N5    A    
C56   C132  A    
N3    N4    A    
Br20  C49   S    
C19   C57   S    
Br19  C48   S    
C16   H71   S    
C30   O5    D    
C96   H38   S    
C80   C86   S    
C9    C35   A    
C30   C104  S    
N1    N29   A    
Br21  C50   S    
N28   Ni5   S    
C37   C106  S    
C36   H99   S    
C53   C61   S    
C11   N13   A    
N9    N10   A    
C25   C68   S    
C51   C60   S    
C117  C119  S    
C118  C120  S    
C6    C126  A    
N21   N25   A    
Br16  C115  S    
C108  N32   A    
C4    C108  A    
N22   Ni2   S    
N23   N31   A    
C55   C66   S    
C65   C132  A    
N17   Ni8   S    
C49   C53   S    
C5    C110  A    
C99   H28   S    
N27   N30   A    
C16   C41   A    
Br13  C76   S    
C8    H63   S    
C21   O16   D    
C10   H65   S    
C14   N15   A    
C46   C94   S    
N6    Ni1   S    
C42   C78   A    
C83   H20   S    
C72   C90   S    
C18   H82   S    
C48   C58   S    
C74   C92   S    
C36   C105  S    
C67   H35   S    
Br22  C49   S    
C45   N12   A    
C118  H52   S    
C69   H90   S    
C25   H88   S    
C19   H83   S    
C118  C125  S    
N8    Ni3   S    
C3    C67   A    
C28   H92   S    
N25   Ni4   S    
N2    N32   A    
N26   Ni3   S    
C82   C102  S    
Br23  C50   S    
C127  N6    A    
C18   C55   S    
C12   C40   A    
C39   C120  S    
C125  H56   S    
C36   O10   D    
N21   Ni7   S    
C113  C121  S    
C85   C101  S    
C43   C92   S    
C44   C100  A    
N29   Ni6   S    
C113  H41   S    
C6    C58   S    
C122  H76   S    
C5    C112  A    
C65   H14   S    
C99   H26   S    
N27   Ni4   S    
C122  N22   A    
N19   N22   A    
C4    C121  S    
C84   C99   S    
C1    N1    A    
C8    N9    A    
C80   C97   S    
C8    C35   A    
N5    N6    A    
C2    C42   A    
N15   Ni6   S    
C23   C68   S    
Br14  C113  S    
N18   N24   A    
C14   C40   A    
C25   O19   D    
C77   H32   S    
C57   C59   S    
C100  H74   S    
C124  H55   S    
C65   N31   A    
Br1   C47   S    
C1    H1    S    
C37   H100  S    
C7    C128  A    
C121  C124  S    
C22   O17   D    
C31   C105  S    
C85   C90   S    
C128  H61   S    
C94   C98   S    
C85   H22   S    
C12   N14   A    
C42   C91   S    
C62   H10   S    
C2    N24   A    
C97   H39   S    
C125  H58   S    
C5    C123  S    
C107  C116  S    
C107  C120  S    
Br4   C72   S    
C97   H17   S    
C129  H62   S    
C40   C60   S    
C27   H91   S    
C9    N10   A    
C2    H77   S    
C114  H42   S    
C17   H81   S    
C3    C88   S    
C79   H33   S    
C33   O8    D    
C117  H50   S    
C109  H47   S    
N11   N13   A    
C11   C39   A    
N30   Ni7   S    
C9    H64   S    
Br11  C75   S    
C103  H31   S    
N12   N28   A    
C51   H46   S    
C106  C120  S    
C46   C111  A    
C12   H67   S    
Br12  C48   S    
C4    C109  A    
C89   N19   A    
C111  H75   S    
C128  N7    A    
N24   Ni1   S    
C70   C76   S    
N5    Ni2   S    
C78   H72   S    
C38   H3    S    
C45   H13   S    
N7    Ni4   S    
C86   C131  S    
C81   C87   S    
C71   H4    S    
C110  N3    A    
Br2   C70   S    
Br9   C73   S    
C3    C64   A    
C20   C57   S    
C83   C87   S    
C117  H51   S    
Br8   C74   S    
C28   C84   S    
C31   O6    D    
C92   C96   S    
