data_mof_unit_55561.cif
_audit_creation_date              2012-10-26T20:44:04-0400
_audit_creation_method            fapswitch 2.2
_symmetry_space_group_name_H-M    P1
_symmetry_Int_Tables_number       1
_space_group_crystal_system       triclinic
_cell_length_a                    10.799593
_cell_length_b                    9.520005
_cell_length_c                    19.425919
_cell_angle_alpha                 89.955508
_cell_angle_beta                  90.101444
_cell_angle_gamma                 89.995474
_cell_volume                      1997.21732938

loop_
_atom_site_label
_atom_site_type_symbol
_atom_type_description
_atom_site_fract_x
_atom_site_fract_y
_atom_site_fract_z
_atom_type_partial_charge
C1    C     C_R   0.871382 0.499894 0.500039 -0.026423
C2    C     C_R   0.737401 0.499976 0.500026 0.556354
C3    C     C_R   0.499791 0.500021 0.367636 0.560755
C4    C     C_R   0.500208 0.499979 0.632364 0.560754
C5    C     C_R   0.064538 0.430983 0.446641 -0.049903
C6    C     C_R   0.935463 0.569025 0.553356 -0.049902
C7    C     C_R   0.935152 0.430735 0.446724 -0.048868
C8    C     C_R   0.064848 0.569262 0.553276 -0.048869
C9    C     C_R   0.528492 0.376672 0.744251 -0.128016
C10   C     C_R   0.471508 0.623328 0.255748 -0.128013
C11   C     C_R   0.526822 0.376496 0.255890 -0.106602
C12   C     C_R   0.128618 0.500106 0.499960 -0.026422
C13   C     C_R   0.473178 0.623504 0.744110 -0.106601
C14   C     C_R   0.529458 0.376105 0.816076 -0.016283
C15   C     C_R   0.470542 0.623895 0.183923 -0.016283
C16   C     C_R   0.527717 0.375878 0.184081 -0.015756
C17   C     C_R   0.472283 0.624122 0.815919 -0.015757
C18   C     C_R   0.500776 0.500097 0.852464 -0.007670
C19   C     C_R   0.499223 0.499903 0.147536 -0.007669
C20   C     C_R   0.424847 0.074478 0.456231 0.024462
C21   C     C_R   0.575153 0.925523 0.543769 0.024461
C22   C     C_R   0.575167 0.074339 0.543766 0.024646
C23   C     C_R   0.388460 0.514096 0.963860 -0.082422
C24   C     C_R   0.424832 0.925661 0.456234 0.024645
C25   C     C_R   0.500617 0.500025 0.707926 0.000611
C26   C     C_R   0.499383 0.499975 0.292074 0.000614
C27   C     C_1   0.131570 0.364679 0.390585 0.216864
C28   C     C_1   0.868431 0.635350 0.609405 0.216876
C29   C     C_1   0.867792 0.363363 0.390980 0.231269
C30   C     C_1   0.132210 0.636621 0.609025 0.231266
C31   C     C_1   0.558551 0.246632 0.851440 0.208356
C32   C     C_1   0.441448 0.753367 0.148560 0.208356
C33   C     C_1   0.556751 0.246366 0.148895 0.214333
C34   C     C_R   0.611540 0.485903 0.036140 -0.082422
C35   C     C_1   0.443249 0.753634 0.851105 0.214333
C36   C     C_R   0.388065 0.514068 0.035545 -0.081823
C37   C     C_R   0.611934 0.485931 0.964455 -0.081823
C38   C     C_R   0.499608 0.499972 0.071825 0.030956
C39   C     C_R   0.500392 0.500028 0.928175 0.030956
C40   C     C_R   0.262599 0.500024 0.499975 0.556356
Cu1   Cu    Cu3+1 0.500000 0.640660 0.500000 0.980531
Cu2   Cu    Cu3+1 0.500000 0.359340 0.500000 0.980530
H1    H     H_    0.364653 0.130591 0.421161 0.136833
H2    H     H_    0.698149 0.475341 0.063875 0.126371
H3    H     H_    0.301160 0.524596 0.062817 0.126176
H4    H     H_    0.698840 0.475404 0.937183 0.126175
H5    H     H_    0.635346 0.869409 0.578839 0.136843
H6    H     H_    0.635399 0.130359 0.578834 0.116608
H7    H     H_    0.364601 0.869641 0.421166 0.116608
H8    H     H_    0.550383 0.280811 0.716706 0.133521
H9    H     H_    0.449617 0.719188 0.283294 0.133521
H10   H     H_    0.548613 0.280593 0.283535 0.153529
H11   H     H_    0.451387 0.719406 0.716465 0.153530
H12   H     H_    0.301850 0.524659 0.936124 0.126372
N1    N     N_R   0.500000 0.852070 0.500000 -0.229809
N2    N     N_1   0.419784 0.857198 0.879366 -0.233393
N3    N     N_R   0.500000 0.147930 0.500000 -0.229808
N4    N     N_1   0.185014 0.312088 0.345900 -0.296235
N5    N     N_1   0.814989 0.687962 0.654081 -0.296248
N6    N     N_1   0.814091 0.309757 0.346589 -0.283726
N7    N     N_1   0.185911 0.690212 0.653420 -0.283728
N8    N     N_1   0.582060 0.143102 0.879845 -0.236029
N9    N     N_1   0.417939 0.856898 0.120154 -0.236029
N10   N     N_1   0.580217 0.142801 0.120634 -0.233393
O1    O     O_R   0.319640 0.618740 0.500000 -0.498047
O2    O     O_R   0.680360 0.381260 0.500000 -0.498047
O3    O     O_R   0.680360 0.618740 0.500000 -0.495365
O4    O     O_R   0.319640 0.381260 0.500000 -0.495367
O5    O     O_R   0.500020 0.618830 0.400190 -0.510860
O6    O     O_R   0.499980 0.381170 0.599810 -0.510860
O7    O     O_R   0.499980 0.618830 0.599810 -0.494949
O8    O     O_R   0.500020 0.381170 0.400190 -0.494949

loop_
_geom_bond_atom_site_label_1
_geom_bond_atom_site_label_2
_ccdc_geom_bond_type
C12   C40   S    
C22   H6    S    
C9    C14   A    
C2    O2    A    
C4    O6    A    
C7    C29   S    
C19   C38   S    
C16   C33   S    
C34   C37   A    
C5    C7    A    
Cu1   Cu2   S    
C14   C18   A    
C3    C26   S    
Cu1   O1    S    
C29   N6    T    
C13   C17   A    
C14   C31   S    
Cu1   O7    S    
C8    C30   S    
C5    C27   S    
C10   C26   A    
C22   N3    A    
C36   C38   A    
C17   C18   A    
C37   H4    S    
C33   N10   T    
C36   H3    S    
Cu1   O3    S    
C1    C7    A    
C21   C22   A    
C24   N1    A    
C15   C19   A    
C31   N8    T    
C13   C25   A    
C5    C12   A    
C16   C19   A    
C23   C39   A    
C10   H9    S    
Cu2   N3    S    
Cu2   O8    S    
C3    O5    A    
C3    O8    A    
C13   H11   S    
C40   O1    A    
Cu2   O4    S    
C40   O4    A    
C30   N7    T    
C9    C25   A    
C1    C6    A    
C23   C36   A    
C4    C25   S    
Cu2   O6    S    
C20   H1    S    
C34   H2    S    
C23   H12   S    
C37   C39   A    
C1    C2    S    
C11   C16   A    
C28   N5    T    
C24   H7    S    
Cu2   O2    S    
C18   C39   S    
C20   C24   A    
Cu1   N1    S    
C21   N1    A    
C6    C8    A    
C11   H10   S    
C17   C35   S    
C11   C26   A    
C21   H5    S    
C35   N2    T    
C34   C38   A    
Cu1   O5    S    
C20   N3    A    
C4    O7    A    
C6    C28   S    
C9    H8    S    
C8    C12   A    
C32   N9    T    
C10   C15   A    
C2    O3    A    
C27   N4    T    
C15   C32   S    
