data_mof_unit_9351.cif
_audit_creation_date              2013-03-05T16:07:04-0500
_audit_creation_method            fapswitch 2.2
_symmetry_space_group_name_H-M    P1
_symmetry_Int_Tables_number       1
_space_group_crystal_system       triclinic
_cell_length_a                    16.848179
_cell_length_b                    7.265766
_cell_length_c                    16.979227
_cell_angle_alpha                 90.051537
_cell_angle_beta                  100.445971
_cell_angle_gamma                 89.984728
_cell_volume                      2044.06139846

loop_
_atom_site_label
_atom_site_type_symbol
_atom_site_description
_atom_site_fract_x
_atom_site_fract_y
_atom_site_fract_z
_atom_type_partial_charge
O1    O     O_R   0.413450 0.494370 0.415710 -0.558243
O2    O     O_R   0.586550 0.994370 0.584290 -0.561206
O3    O     O_R   0.578420 0.819350 0.429360 -0.601027
O4    O     O_R   0.421580 0.319350 0.570640 -0.579953
C1    C     C_R   0.604035 0.654543 0.413151 0.954019
C2    C     C_R   0.396024 0.154652 0.586885 1.044737
O5    O     O_R   0.413570 0.823780 0.406240 -0.579874
O6    O     O_R   0.586430 0.323780 0.593760 -0.562292
O7    O     O_R   0.420530 0.998740 0.561000 -0.582148
O8    O     O_R   0.579470 0.498740 0.439000 -0.565241
C3    C     C_R   0.386906 0.654906 0.382973 0.928810
C4    C     C_R   0.613096 0.155006 0.617060 0.991570
O9    O     O_3   0.502480 0.662320 0.550800 -0.231243
O10   O     O_3   0.497520 0.162320 0.449200 -0.240380
V1    V     V_3+5 0.499540 0.935370 0.490580 1.285277
V2    V     V_3+5 0.500460 0.435370 0.509420 1.303137
C5    C     C_R   0.735832 0.998076 0.695209 0.161430
C6    C     C_R   0.263909 0.498070 0.305120 0.171887
C7    C     C_R   0.681184 0.144885 0.686380 -0.245696
C8    C     C_R   0.318733 0.644564 0.313784 -0.231044
C9    C     C_R   0.691166 0.277373 0.747480 -0.264735
C10   C     C_R   0.308880 0.776547 0.252626 -0.307938
H1    H     H_    0.645930 0.382978 0.745675 0.204642
H2    H     H_    0.354476 0.881250 0.254140 0.178998
C11   C     C_R   0.752908 0.262595 0.815757 -0.013260
C12   C     C_R   0.246832 0.762072 0.184614 0.001952
C13   C     C_R   0.812783 0.121644 0.819744 -0.166438
C14   C     C_R   0.186897 0.621563 0.180642 -0.164841
C15   C     C_R   0.803106 0.991694 0.757461 -0.036964
C16   C     C_R   0.196577 0.491728 0.242883 -0.038091
C17   C     C_3   0.796386 0.787552 0.766324 -0.501352
C18   C     C_3   0.203203 0.287594 0.233899 -0.506115
C19   C     C_3   0.718466 0.797786 0.704264 0.310915
C20   C     C_3   0.281110 0.297620 0.296003 0.310701
H3    H     H_    0.787919 0.746547 0.827332 0.146016
H4    H     H_    0.211642 0.246715 0.172842 0.146056
C21   C     C_R   0.333066 0.138815 0.638290 -0.363713
C22   C     C_R   0.667832 0.638341 0.362685 -0.388799
C23   C     C_R   0.169929 0.128319 0.866734 -0.359657
C24   C     C_R   0.831823 0.628093 0.135378 -0.349110
C25   C     C_R   0.306996 0.220450 0.853103 -0.102823
C26   C     C_R   0.695379 0.721499 0.149563 0.000162
C27   C     C_R   0.246273 0.202408 0.901014 -0.090331
C28   C     C_R   0.757833 0.715549 0.103834 -0.143502
C29   C     C_R   0.156016 0.063686 0.786620 0.573370
C30   C     C_R   0.844284 0.553983 0.213939 0.586510
C31   C     C_R   0.217560 0.077759 0.739327 -0.088684
C32   C     C_R   0.783673 0.573357 0.262194 -0.126179
C33   C     C_R   0.290302 0.174001 0.769673 -0.083697
C34   C     C_R   0.711958 0.673682 0.232448 0.019016
C35   C     C_R   0.344541 0.217687 0.715978 -0.139691
C36   C     C_R   0.658090 0.720259 0.285881 -0.145564
C37   C     C_R   0.263861 0.029344 0.611507 0.325664
C38   C     C_R   0.736276 0.526234 0.389515 0.374972
C39   C     C_R   0.206493 0.999443 0.661369 0.527104
C40   C     C_R   0.794051 0.495132 0.340072 0.540060
O11   O     O_R   0.920630 0.775410 0.061150 -0.586170
O12   O     O_R   0.079370 0.275410 0.938850 -0.600791
O13   O     O_R   0.086500 0.441450 0.093690 -0.614539
O14   O     O_R   0.913500 0.941450 0.906310 -0.609631
C41   C     C_R   0.115712 0.609918 0.114309 0.957158
C42   C     C_R   0.884115 0.109897 0.885889 0.982152
O15   O     O_R   0.921670 0.445960 0.070740 -0.543515
O16   O     O_R   0.078330 0.945960 0.929260 -0.546280
O17   O     O_R   0.913380 0.271130 0.915780 -0.545999
O18   O     O_R   0.086620 0.771130 0.084220 -0.541642
C43   C     C_R   0.895973 0.614907 0.085659 0.910884
C44   C     C_R   0.105032 0.114743 0.915538 0.905352
O19   O     O_3   0.997500 0.603030 0.949220 -0.258189
O20   O     O_3   0.002500 0.103030 0.050780 -0.251609
V3    V     V_3+5 0.000470 0.329940 0.009420 1.263338
V4    V     V_3+5 0.999530 0.829940 0.990580 1.267254
O21   O     O_3   0.139359 0.890046 0.635605 -0.671832
H5    H     H_    0.139241 0.840810 0.581283 0.369007
O22   O     O_3   0.860977 0.385550 0.366353 -0.666001
H6    H     H_    0.861032 0.338271 0.420949 0.367966
C45   C     C_2   0.262104 0.254878 0.988178 0.525138
H7    H     H_    0.213055 0.289544 0.018645 0.023428
O23   O     O_2   0.329866 0.254646 0.028531 -0.597372
C46   C     C_2   0.745504 0.793422 0.021229 0.566283
H8    H     H_    0.772725 0.727894 0.975331 -0.009023
O24   O     O_2   0.709016 0.937545 0.004936 -0.563732
O25   O     O_3   0.081607 0.992060 0.751908 -0.679709
H9    H     H_    0.038743 0.037144 0.779844 0.292957
O26   O     O_3   0.916534 0.469379 0.246352 -0.673213
H10   H     H_    0.960470 0.513001 0.219568 0.292502
C47   C     C_2   0.744748 0.382441 0.884556 0.629988
H11   H     H_    0.710303 0.508942 0.874230 -0.079397
O27   O     O_2   0.770316 0.335441 0.953471 -0.564807
C48   C     C_2   0.254557 0.881954 0.115959 0.551521
H12   H     H_    0.287487 0.010130 0.126669 0.016993
O28   O     O_2   0.230359 0.833255 0.046975 -0.590760
C49   C     C_2   0.865286 0.689158 0.739057 0.697035
H13   H     H_    0.884193 0.728177 0.683537 0.063148
O29   O     O_2   0.900313 0.564398 0.779158 -0.579909
C50   C     C_2   0.134209 0.189496 0.261037 0.702362
H14   H     H_    0.115712 0.227576 0.316881 0.062219
O30   O     O_2   0.098595 0.066139 0.220432 -0.575662
C51   C     C_2   0.643384 0.767018 0.739985 0.446495
H15   H     H_    0.640534 0.820581 0.799148 0.031530
O31   O     O_2   0.584997 0.686330 0.702788 -0.512780
C52   C     C_2   0.356241 0.266346 0.260391 0.427443
H16   H     H_    0.359439 0.320901 0.201534 0.065247
O32   O     O_2   0.414313 0.184288 0.297384 -0.525919
O33   O     O_3   0.719367 0.700776 0.632899 -0.736237
H17   H     H_    0.720945 0.568218 0.646927 0.325180
O34   O     O_3   0.280065 0.200827 0.367319 -0.738219
H18   H     H_    0.278448 0.068220 0.353254 0.329612
C53   C     C_2   0.408918 0.358238 0.737735 0.652323
H19   H     H_    0.394474 0.489401 0.762351 -0.027989
O35   O     O_2   0.478728 0.325631 0.731971 -0.571431
C54   C     C_2   0.595051 0.864503 0.265016 0.680492
H20   H     H_    0.535201 0.845163 0.278825 0.007774
O36   O     O_2   0.610413 0.008609 0.233978 -0.558849
O37   O     O_3   0.249242 0.951712 0.535801 -0.756831
H21   H     H_    0.275083 0.026948 0.499127 0.344751
O38   O     O_3   0.749701 0.447132 0.464861 -0.757306
H22   H     H_    0.724300 0.523373 0.501607 0.346830
C55   C     C_2   0.389777 0.271883 0.893050 0.642988
H23   H     H_    0.400296 0.400899 0.925535 0.046507
O39   O     O_2   0.446302 0.167580 0.891362 -0.529699
C56   C     C_2   0.610414 0.740558 0.106325 0.572546
H24   H     H_    0.593948 0.839498 0.058580 0.105986
O40   O     O_2   0.557728 0.639340 0.122419 -0.574523

loop_
_geom_bond_atom_site_label_1
_geom_bond_atom_site_label_2
_geom_bond_distance
_ccdc_geom_bond_type
C47   H11   1.084176 S    
C49   H13   1.086247 S    
C13   C15   1.404336 A    
C5    C15   1.403469 A    
O21   H5    0.988648 S    
O1    C3    1.334261 A    
O2    C4    1.334438 A    
C2    O7    1.308272 A    
C54   O36   1.221315 D    
C31   C33   1.423833 A    
C45   H7    1.081036 S    
O5    C3    1.341072 A    
C20   C52   1.515485 S    
C5    C19   1.497992 S    
C20   O34   1.403718 S    
O16   C44   1.341417 A    
C7    C9    1.402208 A    
C45   O23   1.220329 D    
C53   O35   1.220909 D    
O26   H10   0.988778 S    
C21   C35   1.418447 A    
O12   V3    1.984000 S    
C22   C36   1.416166 A    
O14   V4    2.013468 S    
O37   H21   0.987513 S    
C11   C47   1.482580 S    
O14   C42   1.342180 A    
C23   C44   1.490192 S    
C29   C31   1.425680 A    
C17   H3    1.111889 S    
C41   O18   1.335377 A    
O18   V4    2.004595 S    
O25   H9    0.988762 S    
C33   C35   1.438682 A    
C24   C43   1.490172 S    
C50   O30   1.219780 D    
C34   C36   1.434996 A    
O34   H18   0.991633 S    
C17   C19   1.528998 S    
O20   V3    1.790478 S    
C6    C16   1.403912 A    
C23   C29   1.417429 A    
C30   O26   1.385573 S    
C21   C37   1.416532 A    
C14   C41   1.491344 S    
C32   C34   1.423109 A    
O6    V2    2.013797 S    
C40   O22   1.386434 S    
C1    C22   1.495711 S    
C25   C27   1.423965 A    
C29   O25   1.386262 S    
C26   C28   1.417089 A    
O11   C43   1.330249 A    
C25   C33   1.433327 A    
C54   H20   1.085062 S    
C38   C40   1.413947 A    
C37   C39   1.412573 A    
O15   C43   1.340660 A    
C3    C8    1.488497 S    
O13   C41   1.341705 A    
C28   C46   1.492036 S    
C19   O33   1.403721 S    
O4    C2    1.318101 A    
C23   C27   1.418226 A    
O5    V1    2.013069 S    
C17   C49   1.505599 S    
C19   C51   1.515476 S    
C18   C20   1.529099 S    
O4    V2    2.015043 S    
O19   V4    1.789331 S    
C24   C30   1.418796 A    
O22   H6    0.988729 S    
C13   C42   1.491187 S    
C48   O28   1.220464 D    
C51   H15   1.086114 S    
C22   C38   1.417894 A    
O6    C4    1.340978 A    
C50   H14   1.085986 S    
C2    C21   1.495373 S    
O1    V2    2.004883 S    
C25   C55   1.483803 S    
C52   O32   1.218522 D    
O2    V1    2.004439 S    
C6    C20   1.498254 S    
C55   O39   1.221306 D    
C26   C34   1.427435 A    
O12   C44   1.329404 A    
C51   O31   1.218457 D    
C8    C10   1.401659 A    
C9    H1    1.077877 S    
C11   C13   1.430334 A    
C10   H2    1.078274 S    
C38   O38   1.383639 S    
C12   C48   1.480344 S    
C56   O40   1.221533 D    
C18   H4    1.111794 S    
O3    V1    2.013966 S    
C26   C56   1.492094 S    
C31   C39   1.421207 A    
C32   C40   1.421116 A    
C9    C11   1.414390 A    
C42   O17   1.334751 A    
C18   C50   1.505594 S    
O15   V3    2.014031 S    
C46   H8    1.083135 S    
O3    C1    1.318366 A    
C55   H23   1.085395 S    
C27   C45   1.504237 S    
O33   H17   0.991558 S    
C12   C14   1.429072 A    
C47   O27   1.220350 D    
O7    V1    1.997374 S    
C1    O8    1.308598 A    
C15   C17   1.497383 S    
O17   V3    2.004152 S    
O38   H22   0.987597 S    
C16   C18   1.497085 S    
C48   H12   1.082388 S    
C4    C7    1.489033 S    
C14   C16   1.404481 A    
C5    C7    1.399191 A    
C46   O24   1.220459 D    
C6    C8    1.399536 A    
O16   V4    2.015109 S    
O11   V4    1.984574 S    
C52   H16   1.085806 S    
C39   O21   1.386704 S    
C30   C32   1.427262 A    
C24   C28   1.415171 A    
C49   O29   1.220119 D    
C10   C12   1.414050 A    
O9    V2    1.789740 S    
C36   C54   1.488484 S    
O10   V1    1.790887 S    
O8    V2    1.998036 S    
C35   C53   1.486741 S    
C56   H24   1.081808 S    
C53   H19   1.085437 S    
C37   O37   1.383868 S    
O13   V3    2.012744 S    
