data_mof_unit_38163.cif
_audit_creation_date              2012-12-11T14:14:11-0500
_audit_creation_method            fapswitch 2.2
_symmetry_space_group_name_H-M    P1
_symmetry_Int_Tables_number       1
_space_group_crystal_system       triclinic
_cell_length_a                    16.990446
_cell_length_b                    7.258579
_cell_length_c                    16.895462
_cell_angle_alpha                 90.010312
_cell_angle_beta                  99.225357
_cell_angle_gamma                 89.99818
_cell_volume                      2056.7068073

loop_
_atom_site_label
_atom_site_type_symbol
_atom_type_description
_atom_site_fract_x
_atom_site_fract_y
_atom_site_fract_z
_atom_type_partial_charge
O1    O     O_R   0.414560 0.494370 0.416770 -0.535644
O2    O     O_R   0.585440 0.994370 0.583230 -0.535574
O3    O     O_R   0.578370 0.819590 0.429320 -0.538280
O4    O     O_R   0.421630 0.319590 0.570680 -0.538291
C1    C     C_R   0.604473 0.655455 0.413656 0.691985
C2    C     C_R   0.395534 0.155477 0.586352 0.691958
O5    O     O_R   0.414740 0.823790 0.407360 -0.539585
O6    O     O_R   0.585260 0.323790 0.592640 -0.539592
O7    O     O_R   0.420650 0.998510 0.561120 -0.534348
O8    O     O_R   0.579350 0.498510 0.438880 -0.534341
C3    C     C_R   0.389395 0.654670 0.384149 0.714268
C4    C     C_R   0.610598 0.154689 0.615857 0.714164
O9    O     O_3   0.502130 0.662240 0.550470 -0.376028
O10   O     O_3   0.497870 0.162240 0.449530 -0.376063
V1    V     V_3+5 0.499600 0.935390 0.490640 1.435546
V2    V     V_3+5 0.500400 0.435390 0.509360 1.435574
C5    C     C_2   0.775714 0.255243 0.796948 -0.149343
C6    C     C_2   0.224364 0.755151 0.202987 -0.149311
C7    C     C_2   0.829404 0.115854 0.810031 0.128298
C8    C     C_2   0.170564 0.615977 0.189983 0.128176
H1    H     H_    0.778136 0.364276 0.841313 0.165046
H2    H     H_    0.222054 0.863939 0.158541 0.165327
C9    C     C_2   0.714097 0.278062 0.724232 -0.105536
C10   C     C_2   0.285977 0.778025 0.275706 -0.105338
C11   C     C_2   0.672384 0.136321 0.687647 -0.247180
C12   C     C_2   0.327576 0.636254 0.312383 -0.247244
H3    H     H_    0.699053 0.417567 0.704158 0.153938
H4    H     H_    0.301144 0.917553 0.295681 0.153724
H5    H     H_    0.682358 0.998806 0.712304 0.192288
H6    H     H_    0.317487 0.498669 0.287811 0.192155
C13   C     C_R   0.330374 0.147160 0.635084 -0.063748
C14   C     C_R   0.669630 0.647038 0.364921 -0.063840
C15   C     C_R   0.167710 0.121173 0.863838 -0.099350
C16   C     C_R   0.832281 0.621309 0.136149 -0.099464
C17   C     C_R   0.308421 0.145606 0.851644 -0.165920
C18   C     C_R   0.691636 0.647675 0.148370 -0.165997
C19   C     C_R   0.248263 0.136787 0.899580 0.249888
C20   C     C_R   0.751786 0.638601 0.100430 0.249866
C21   C     C_R   0.148471 0.115468 0.779823 -0.264763
C22   C     C_R   0.851475 0.614260 0.220147 -0.264797
C23   C     C_R   0.208749 0.125970 0.731549 0.131113
C24   C     C_R   0.791216 0.625141 0.268431 0.131062
C25   C     C_R   0.289386 0.140542 0.767647 0.097198
C26   C     C_R   0.710632 0.641313 0.232354 0.097238
C27   C     C_R   0.349548 0.150341 0.719255 -0.224488
C28   C     C_R   0.650485 0.651413 0.280757 -0.224490
C29   C     C_R   0.249230 0.135189 0.598890 0.061740
C30   C     C_R   0.750738 0.633682 0.401100 0.061763
C31   C     C_R   0.189505 0.123754 0.647723 -0.176490
C32   C     C_R   0.810438 0.621844 0.352252 -0.176563
H7    H     H_    0.411538 0.160421 0.747000 0.120346
H8    H     H_    0.588527 0.662625 0.253023 0.120387
H9    H     H_    0.370060 0.157037 0.880173 0.161449
H10   H     H_    0.630038 0.660359 0.119857 0.161430
H11   H     H_    0.127486 0.115114 0.619907 0.124380
H12   H     H_    0.872432 0.612147 0.380057 0.124493
H13   H     H_    0.086485 0.104241 0.752174 0.133510
H14   H     H_    0.913423 0.601819 0.247784 0.133789
O11   O     O_R   0.920750 0.773600 0.061260 -0.528929
O12   O     O_R   0.079250 0.273600 0.938740 -0.529092
O13   O     O_R   0.085340 0.439850 0.092570 -0.507936
O14   O     O_R   0.914660 0.939850 0.907430 -0.507769
C33   C     C_R   0.110828 0.608475 0.115819 0.706453
C34   C     C_R   0.889167 0.108451 0.884181 0.706527
O15   O     O_R   0.921720 0.444130 0.070790 -0.534961
O16   O     O_R   0.078280 0.944130 0.929210 -0.534862
O17   O     O_R   0.914480 0.269530 0.916840 -0.550211
O18   O     O_R   0.085520 0.769530 0.083160 -0.550061
C35   C     C_R   0.896378 0.612475 0.086406 0.745301
C36   C     C_R   0.103615 0.112451 0.913585 0.745278
O19   O     O_3   0.997840 0.601520 0.949550 -0.375596
O20   O     O_3   0.002160 0.101520 0.050450 -0.375570
V3    V     V_3+5 0.000400 0.328340 0.009360 1.544079
V4    V     V_3+5 0.999600 0.828340 0.990640 1.544526
Br1   Br    Br    0.841614 0.933091 0.729835 -0.628017
Br2   Br    Br    0.158130 0.433832 0.270323 -0.628542
C37   C     C_3   0.223371 0.140384 0.508873 -0.354451
C38   C     C_3   0.196515 0.949420 0.476097 -0.325502
C39   C     C_3   0.152521 0.962297 0.390142 -0.678858
H15   H     H_    0.095591 0.038474 0.388594 0.235066
H16   H     H_    0.189592 0.035051 0.351646 0.255461
H17   H     H_    0.138877 0.821741 0.365847 0.241556
H18   H     H_    0.249619 0.859126 0.477674 0.202076
H19   H     H_    0.155886 0.884827 0.513510 0.200873
H20   H     H_    0.173533 0.240654 0.494993 0.195950
H21   H     H_    0.271741 0.190786 0.477359 0.173619
C40   C     C_3   0.776622 0.638197 0.491125 -0.354305
C41   C     C_3   0.803240 0.446916 0.523673 -0.324991
C42   C     C_3   0.847701 0.459297 0.609464 -0.679876
H22   H     H_    0.904816 0.534538 0.610711 0.234463
H23   H     H_    0.811105 0.532770 0.648219 0.255568
H24   H     H_    0.861050 0.318585 0.633681 0.241887
H25   H     H_    0.749986 0.357219 0.522331 0.201982
H26   H     H_    0.843492 0.381857 0.485975 0.200814
H27   H     H_    0.826589 0.738104 0.505111 0.195986
H28   H     H_    0.728337 0.688752 0.522729 0.173424
Br3   Br    Br    0.278506 0.145264 0.013949 -0.556199
Br4   Br    Br    0.721604 0.648954 0.986081 -0.555658

loop_
_geom_bond_atom_site_label_1
_geom_bond_atom_site_label_2
_ccdc_geom_bond_type
C40   C41   S    
C17   H9    S    
C14   C30   A    
O1    C3    A    
C20   Br4   S    
O2    C4    A    
C2    O7    A    
C19   Br3   S    
C7    Br1   S    
C29   C31   A    
C37   C38   S    
O5    C3    A    
C15   C21   A    
C16   C22   A    
C17   C19   A    
C10   C12   D    
C27   H7    S    
O18   V4    S    
C21   H13   S    
C28   H8    S    
O12   V3    S    
O15   V3    S    
C8    Br2   S    
O13   C33   A    
O14   C34   A    
C33   O18   A    
C38   H18   S    
C40   H27   S    
O17   V3    S    
C9    H3    S    
C42   H23   S    
C17   C25   A    
C1    C14   S    
C30   C32   A    
C2    C13   S    
C37   H20   S    
O6    V2    S    
C13   C29   A    
C23   C25   A    
C24   C26   A    
C23   C31   A    
C26   C28   A    
C11   H5    S    
C41   H26   S    
C22   H14   S    
C34   O17   A    
C21   C23   A    
C39   H16   S    
C38   C39   S    
C3    C12   S    
O13   V3    S    
C31   H11   S    
C15   C19   A    
O4    V2    S    
C39   H17   S    
C22   C24   A    
C16   C35   S    
O12   C36   A    
C7    C34   S    
O6    C4    A    
C40   H28   S    
C30   C40   S    
O1    V2    S    
C5    C9    S    
C42   H24   S    
O2    V1    S    
C25   C27   A    
O11   V4    S    
C15   C36   S    
C24   C32   A    
O4    C2    A    
O11   C35   A    
C37   H21   S    
C12   H6    S    
C6    C10   S    
C18   C26   A    
C29   C37   S    
C18   C20   A    
O3    V1    S    
C41   H25   S    
C16   C20   A    
C14   C28   A    
C10   H4    S    
O20   V3    S    
O3    C1    A    
O19   V4    S    
C4    C11   S    
C8    C33   S    
C6    H2    S    
O7    V1    S    
C1    O8    A    
O8    V2    S    
C32   H12   S    
O16   C36   A    
O15   C35   A    
O5    V1    S    
C5    C7    D    
C6    C8    D    
C9    C11   D    
C5    H1    S    
C18   H10   S    
C39   H15   S    
C38   H19   S    
C41   C42   S    
C13   C27   A    
O9    V2    S    
O10   V1    S    
O14   V4    S    
C42   H22   S    
O16   V4    S    
