data_mof_unit_11586.cif
_audit_creation_date              2012-12-11T14:10:27-0500
_audit_creation_method            fapswitch 2.2
_symmetry_space_group_name_H-M    P1
_symmetry_Int_Tables_number       1
_space_group_crystal_system       triclinic
_cell_length_a                    6.937244
_cell_length_b                    14.763267
_cell_length_c                    16.368327
_cell_angle_alpha                 90.099228
_cell_angle_beta                  90.198044
_cell_angle_gamma                 90.473715
_cell_volume                      1676.31497812

loop_
_atom_site_label
_atom_site_type_symbol
_atom_type_description
_atom_site_fract_x
_atom_site_fract_y
_atom_site_fract_z
_atom_type_partial_charge
O1    O     O_R   0.505720 0.582850 0.414440 -0.546533
O2    O     O_R   0.175970 0.593740 0.584970 -0.540911
O3    O     O_R   0.005630 0.417150 0.585560 -0.522071
C1    C     C_R   0.346032 0.616067 0.612695 0.788590
O4    O     O_R   0.176010 0.593740 0.415050 -0.546829
O5    O     O_R   0.005680 0.417150 0.414430 -0.541821
C2    C     C_R   0.345617 0.614705 0.386400 0.741023
O6    O     O_R   0.505680 0.582850 0.585570 -0.548389
O7    O     O_3   0.339190 0.442060 0.500000 -0.354483
V1    V     V_3+5 0.064350 0.510750 0.500000 1.468805
O8    O     O_R   0.675960 0.406260 0.415030 -0.531214
C3    C     C_R   0.842887 0.386223 0.385391 0.673454
O9    O     O_R   0.675920 0.406260 0.584950 -0.513644
C4    C     C_R   0.844418 0.387314 0.614994 0.757804
V2    V     V_3+5 0.564340 0.489250 0.500000 1.507254
O10   O     O_3   0.839370 0.557940 0.500000 -0.388083
C5    C     C_2   0.722727 0.212694 0.784780 0.387495
C6    C     C_2   0.885535 0.174144 0.813716 -0.407130
H1    H     H_    0.020867 0.186041 0.782201 0.109071
C7    C     C_2   0.725648 0.265245 0.706356 0.275340
C8    C     C_2   0.854527 0.333333 0.691367 -0.273257
C9    C     C_2   0.005538 0.293217 0.280251 -0.199367
C10   C     C_2   0.840479 0.327377 0.311469 -0.160029
H2    H     H_    0.141443 0.311704 0.308835 0.190735
C11   C     C_2   0.018870 0.232798 0.207302 -0.086740
C12   C     C_2   0.881790 0.171729 0.186846 -0.267846
H3    H     H_    0.150037 0.236882 0.171405 0.137328
H4    H     H_    0.755800 0.162350 0.224890 0.137448
C13   C     C_2   0.240541 0.816303 0.762380 0.446832
C14   C     C_2   0.377984 0.814831 0.821557 -0.365459
H5    H     H_    0.481777 0.760573 0.824912 0.090817
C15   C     C_2   0.223850 0.743109 0.697908 -0.224481
C16   C     C_2   0.364059 0.683810 0.679400 -0.357823
H6    H     H_    0.094487 0.741197 0.660551 0.140366
H7    H     H_    0.502306 0.687484 0.710266 0.129517
C17   C     C_2   0.222554 0.763731 0.197685 0.004007
C18   C     C_2   0.380097 0.815807 0.179485 -0.343563
H8    H     H_    0.505353 0.814748 0.219157 0.157364
C19   C     C_2   0.209950 0.707918 0.274067 -0.179326
C20   C     C_2   0.363025 0.678238 0.316755 -0.323674
H9    H     H_    0.067502 0.684920 0.292610 0.167822
H10   H     H_    0.507999 0.695287 0.297247 0.158653
O11   O     O_R   0.230590 0.917060 0.914490 -0.513086
O12   O     O_R   0.560420 0.906240 0.084970 -0.535659
O13   O     O_R   0.730590 0.082870 0.085560 -0.545669
C21   C     C_R   0.390449 0.882269 0.111346 0.775450
O14   O     O_R   0.560310 0.906240 0.915050 -0.562080
O15   O     O_R   0.730490 0.082870 0.914420 -0.516713
C22   C     C_R   0.390709 0.885114 0.886374 0.810010
O16   O     O_R   0.230690 0.917070 0.085620 -0.533068
O17   O     O_3   0.397030 0.057890 0.000040 -0.379055
V3    V     V_3+5 0.671930 0.989260 0.999990 1.453989
O18   O     O_R   0.060200 0.093830 0.914980 -0.542380
C23   C     C_R   0.891584 0.113670 0.885633 0.791565
O19   O     O_R   0.060300 0.093830 0.084900 -0.548796
C24   C     C_R   0.892515 0.113354 0.114244 0.727245
V4    V     V_3+5 0.171920 0.010860 0.999920 1.477401
O20   O     O_3   0.896950 0.942110 0.999960 -0.375271
O21   O     O_3   0.546210 0.191373 0.819931 -0.553488
C25   C     C_3   0.458899 0.270648 0.850729 0.154389
H11   H     H_    0.301378 0.257543 0.854051 0.147335
H12   H     H_    0.478438 0.330552 0.810164 0.158833
C26   C     C_3   0.532161 0.292165 0.937195 -0.337005
H13   H     H_    0.501358 0.234013 0.978208 0.213145
H14   H     H_    0.690477 0.303360 0.936274 0.220023
C27   C     C_3   0.436100 0.376667 0.971392 -0.810380
H15   H     H_    0.454326 0.434609 0.928816 0.244847
H16   H     H_    0.503552 0.395266 0.030664 0.255519
H17   H     H_    0.280143 0.363549 0.981405 0.221117
C28   C     C_2   0.054222 0.757107 0.141351 0.788006
O22   O     O_2   0.890710 0.754116 0.168966 -0.581570
O23   O     O_R   0.082956 0.750183 0.057017 -0.658442
H18   H     H_    0.957440 0.745022 0.025363 0.291980
O24   O     O_3   0.576927 0.249156 0.651117 -0.543067
C29   C     C_3   0.606943 0.166271 0.609623 0.111644
H19   H     H_    0.463371 0.134590 0.598549 0.150484
H20   H     H_    0.691961 0.116148 0.645357 0.103745
C30   C     C_3   0.703318 0.184161 0.527029 -0.318091
H21   H     H_    0.615626 0.233230 0.491710 0.227202
H22   H     H_    0.849030 0.214007 0.537017 0.169860
C31   C     C_3   0.723426 0.097386 0.477197 -0.825720
H23   H     H_    0.817708 0.048759 0.509714 0.230269
H24   H     H_    0.789404 0.113541 0.417171 0.240317
H25   H     H_    0.579803 0.065676 0.466403 0.233071
C32   C     C_2   0.997181 0.364611 0.753838 0.671796
O25   O     O_2   0.159789 0.387172 0.733141 -0.548364
O26   O     O_R   0.942767 0.372476 0.835638 -0.684413
H26   H     H_    0.050454 0.397002 0.871533 0.290195
C33   C     C_2   0.652081 0.315969 0.268908 0.760524
O27   O     O_2   0.511068 0.289704 0.306963 -0.581303
O28   O     O_R   0.636160 0.335405 0.185629 -0.660212
H27   H     H_    0.501263 0.323557 0.163899 0.279883
O29   O     O_3   0.131397 0.894812 0.756053 -0.570597
C34   C     C_3   0.932055 0.877405 0.745812 0.104099
H28   H     H_    0.855683 0.914119 0.795212 0.147608
H29   H     H_    0.888479 0.804864 0.751910 0.086987
C35   C     C_3   0.866803 0.915910 0.663604 -0.340400
H30   H     H_    0.912583 0.988072 0.659503 0.201101
H31   H     H_    0.936637 0.878259 0.613061 0.191613
C36   C     C_3   0.648603 0.909905 0.653362 -0.828041
H32   H     H_    0.601148 0.838104 0.654621 0.239713
H33   H     H_    0.606068 0.939369 0.593706 0.231423
H34   H     H_    0.575618 0.948048 0.702801 0.243428

loop_
_geom_bond_atom_site_label_1
_geom_bond_atom_site_label_2
_ccdc_geom_bond_type
C27   H16   S    
O26   H26   S    
C26   H14   S    
O29   C34   S    
C1    O6    A    
C35   C36   S    
C35   H30   S    
O14   C22   A    
O18   C23   A    
O15   C23   A    
C3    C10   S    
C18   H8    S    
C25   C26   S    
C4    C8    S    
C17   C18   D    
C13   C15   S    
O5    C3    A    
C14   H5    S    
C30   H22   S    
C27   H17   S    
V2    O10   S    
C5    C7    S    
C25   H12   S    
C6    H1    S    
C35   H31   S    
O8    V2    S    
O13   C24   A    
C17   C28   S    
C9    C11   S    
C2    C20   S    
C10   C33   S    
C28   O22   D    
O17   V4    S    
C33   O28   S    
O7    V1    S    
O12   V3    S    
C20   H10   S    
C27   H15   S    
C26   C27   S    
O21   C25   S    
O9    C4    A    
C31   H24   S    
O12   C21   A    
C31   H23   S    
C32   O26   S    
C8    C32   S    
O24   C29   S    
O17   V3    S    
C19   H9    S    
C33   O27   D    
O28   H27   S    
O4    C2    A    
O18   V4    S    
C30   H21   S    
O11   C22   A    
C34   C35   S    
C11   C12   D    
C32   O25   D    
C36   H34   S    
C25   H11   S    
C15   H6    S    
O2    C1    A    
C29   H19   S    
C13   C14   D    
O19   C24   A    
C36   H33   S    
C5    C6    D    
O11   V4    S    
C7    O24   S    
C34   H29   S    
C29   H20   S    
O3    C4    A    
V3    O20   S    
C5    O21   S    
O1    V2    S    
C14   C22   S    
O6    V2    S    
O19   V4    S    
C9    H2    S    
O2    V1    S    
C19   C20   D    
C31   H25   S    
C1    C16   S    
O1    C2    A    
O16   V4    S    
C17   C19   S    
O23   H18   S    
C12   C24   S    
O5    V1    S    
O8    C3    A    
O14   V3    S    
C11   H3    S    
C21   O16   A    
C12   H4    S    
O13   V3    S    
C15   C16   D    
O9    V2    S    
O7    V2    S    
O4    V1    S    
O3    V1    S    
V1    O10   S    
C13   O29   S    
C30   C31   S    
V4    O20   S    
C36   H32   S    
C16   H7    S    
C34   H28   S    
C29   C30   S    
C6    C23   S    
C26   H13   S    
O15   V3    S    
C7    C8    D    
C9    C10   D    
C28   O23   S    
C18   C21   S    
