data_mof_unit_14823.cif
_audit_creation_date              2012-12-10T18:33:47-0500
_audit_creation_method            fapswitch 2.2
_symmetry_space_group_name_H-M    P1
_symmetry_Int_Tables_number       1
_space_group_crystal_system       triclinic
_cell_length_a                    10.510656
_cell_length_b                    14.980391
_cell_length_c                    15.466821
_cell_angle_alpha                 82.344964
_cell_angle_beta                  89.695107
_cell_angle_gamma                 104.426685
_cell_volume                      2335.61569744

loop_
_atom_site_label
_atom_site_type_symbol
_atom_type_description
_atom_site_fract_x
_atom_site_fract_y
_atom_site_fract_z
_atom_type_partial_charge
C1    C     C_R   0.478302 0.441843 0.662245 0.861886
C2    C     C_R   0.398270 0.482395 0.046178 0.070796
C3    C     C_R   0.354461 0.385922 0.076690 -0.231172
C4    C     C_R   0.422187 0.607981 0.925134 -0.233923
C5    C     C_R   0.336720 0.320470 0.019123 -0.238770
C6    C     C_R   0.444075 0.673547 0.982682 -0.240254
C7    C     C_R   0.680851 0.839176 0.645411 -0.305985
C8    C     C_R   0.317787 0.160939 0.354919 -0.305228
C9    C     C_R   0.657946 0.752377 0.617720 0.014067
C10   C     C_R   0.342064 0.247965 0.382195 0.016056
C11   C     C_R   0.516562 0.794868 0.509628 -0.051809
C12   C     C_R   0.514984 0.557976 0.337807 0.863433
C13   C     C_R   0.482119 0.204670 0.490862 -0.050864
C14   C     C_R   0.546641 0.887093 0.528480 0.002861
C15   C     C_R   0.450788 0.112349 0.472300 0.002059
C16   C     C_R   0.742492 0.500886 0.500031 0.890002
C17   C     C_R   0.257546 0.499143 0.499873 0.886412
C18   C     C_R   0.621058 0.905653 0.602916 0.127082
C19   C     C_R   0.376329 0.093978 0.397856 0.128480
C20   C     C_R   0.497118 0.958609 0.480878 0.008824
C21   C     C_R   0.499430 0.040571 0.520129 0.008867
C22   C     C_R   0.550605 0.047052 0.605253 0.193804
C23   C     C_R   0.447342 0.472603 0.811208 -0.266366
C24   C     C_R   0.445480 0.952095 0.395854 0.196982
C25   C     C_R   0.623772 0.985775 0.639644 -0.222060
C26   C     C_R   0.372533 0.013527 0.361485 -0.220473
C27   C     C_3   0.933931 0.433570 0.560771 0.241344
C28   C     C_3   0.066239 0.566477 0.438927 0.239339
C29   C     C_3   0.048019 0.514816 0.578943 -0.221891
C30   C     C_3   0.952112 0.485240 0.420769 -0.222225
C31   C     C_3   0.122156 0.498071 0.499463 -0.031542
C32   C     C_3   0.877957 0.501986 0.500267 -0.033973
C33   C     C_3   0.009747 0.415902 0.482098 -0.186598
C34   C     C_R   0.463187 0.524960 0.189613 -0.266814
C35   C     C_3   0.990413 0.584169 0.517604 -0.188089
C36   C     C_R   0.445177 0.407229 0.754571 -0.060433
C37   C     C_R   0.501986 0.591344 0.245879 -0.061215
C38   C     C_R   0.363959 0.283083 0.873520 -0.205553
C39   C     C_R   0.494978 0.713069 0.127704 -0.203033
C40   C     C_R   0.401952 0.312029 0.785624 -0.196999
C41   C     C_R   0.516609 0.685721 0.215033 -0.203771
C42   C     C_3   0.513319 0.106177 0.668340 -0.960500
C43   C     C_3   0.482309 0.893012 0.332643 -0.967435
C44   C     C_3   0.855531 0.358148 0.630268 -0.924575
C45   C     C_R   0.404398 0.445512 0.898309 0.091195
C46   C     C_3   0.144951 0.641714 0.369379 -0.921983
C47   C     C_R   0.435990 0.550142 0.103065 0.091312
C48   C     C_R   0.367150 0.349183 0.930413 0.178092
C49   C     C_R   0.457305 0.646034 0.071085 0.177414
C50   C     C_R   0.407519 0.512310 0.955438 0.068619
H1    H     H_    0.090742 0.525724 0.643375 0.149246
H2    H     H_    0.979335 0.652795 0.531310 0.155910
H3    H     H_    0.304730 0.247125 0.044640 0.142449
H4    H     H_    0.456642 0.746362 0.957299 0.144853
H5    H     H_    0.458999 0.453335 0.213559 0.162135
H6    H     H_    0.487221 0.545179 0.786974 0.161866
H7    H     H_    0.545366 0.738010 0.258009 0.166540
H8    H     H_    0.397932 0.260319 0.742342 0.163245
H9    H     H_    0.333586 0.209249 0.897209 0.135023
H10   H     H_    0.509522 0.786483 0.104158 0.135754
H11   H     H_    0.330763 0.359374 0.144792 0.141529
H12   H     H_    0.909443 0.474307 0.356331 0.149161
H13   H     H_    0.414604 0.633665 0.857240 0.150375
H14   H     H_    0.670199 0.994892 0.701495 0.151267
H15   H     H_    0.325847 0.004396 0.299715 0.150749
H16   H     H_    0.490441 0.065124 0.734374 0.244185
H17   H     H_    0.596270 0.167425 0.673830 0.240883
H18   H     H_    0.422504 0.127863 0.650062 0.244329
H19   H     H_    0.504027 0.933788 0.266422 0.244837
H20   H     H_    0.573724 0.871904 0.350365 0.245837
H21   H     H_    0.399468 0.831531 0.327748 0.240127
H22   H     H_    0.922632 0.321023 0.666091 0.244884
H23   H     H_    0.555093 0.228644 0.536768 0.151189
H24   H     H_    0.805821 0.390027 0.676843 0.235077
H25   H     H_    0.780563 0.307713 0.598984 0.244991
H26   H     H_    0.078101 0.678944 0.333405 0.243648
H27   H     H_    0.219967 0.692087 0.400674 0.244342
H28   H     H_    0.194658 0.609677 0.322922 0.239819
H29   H     H_    0.443451 0.770533 0.463942 0.151423
H30   H     H_    0.299150 0.300984 0.348968 0.126886
H31   H     H_    0.701752 0.699717 0.650666 0.131956
H32   H     H_    0.740507 0.852963 0.701399 0.142513
H33   H     H_    0.258147 0.147349 0.298883 0.139210
H34   H     H_    0.020867 0.347288 0.468383 0.155933
N1    N     N_R   0.574200 0.731700 0.552740 -0.103556
N2    N     N_R   0.425800 0.268300 0.447260 -0.102624
O1    O     O_R   0.462600 0.383110 0.605620 -0.617214
O2    O     O_R   0.537400 0.616890 0.394380 -0.617131
O3    O     O_R   0.510210 0.531900 0.639510 -0.624976
O4    O     O_R   0.489790 0.468100 0.360490 -0.624198
O5    O     O_R   0.662240 0.425610 0.483080 -0.614617
O6    O     O_R   0.337760 0.574390 0.516920 -0.617135
O7    O     O_R   0.709860 0.574400 0.516970 -0.625889
O8    O     O_R   0.290140 0.425600 0.483030 -0.627619
Zn1   Zn    Zn3+2 0.468210 0.400660 0.477370 0.934368
Zn2   Zn    Zn3+2 0.531790 0.599340 0.522630 0.933035

loop_
_geom_bond_atom_site_label_1
_geom_bond_atom_site_label_2
_ccdc_geom_bond_type
C1    O1    A    
C30   C32   S    
O2    Zn2   S    
C23   C45   A    
C27   C29   S    
C34   C37   A    
C14   C18   A    
C46   H26   S    
C23   H6    S    
C39   C41   A    
C27   C33   S    
C15   C19   A    
C17   O6    A    
C4    H13   S    
C28   C46   S    
C16   O7    A    
C5    H3    S    
C24   C26   A    
C30   H12   S    
N1    Zn2   S    
C8    H33   S    
O6    Zn2   S    
C12   C37   S    
C19   C26   A    
C2    C50   A    
C9    N1    A    
C27   C44   S    
C20   C24   A    
C28   C35   S    
C22   C25   A    
O1    Zn1   S    
C13   N2    A    
C43   H21   S    
C31   C33   S    
C38   C48   A    
C34   H5    S    
C43   H19   S    
C21   C22   A    
C42   H18   S    
C18   C25   A    
C6    H4    S    
C3    H11   S    
C5    C48   A    
C8    C19   A    
C40   H8    S    
C12   O2    A    
C32   C35   S    
C14   C20   A    
C36   C40   A    
C47   C49   A    
C46   H28   S    
C10   H30   S    
C4    C50   A    
C25   H14   S    
C44   H25   S    
C7    C18   A    
C44   H24   S    
C11   H29   S    
C4    C6    A    
C39   C49   A    
C13   H23   S    
C43   H20   S    
C13   C15   A    
C42   H17   S    
C17   C31   S    
C16   C32   S    
C29   H1    S    
C45   C48   A    
C12   O4    A    
C7    C9    A    
C10   N2    A    
C1    O3    A    
C30   C33   S    
C27   C32   S    
C26   H15   S    
C28   C31   S    
C3    C5    A    
O4    Zn1   S    
C46   H27   S    
C34   C47   A    
C2    C47   A    
O7    Zn2   S    
C29   C35   S    
O3    Zn2   S    
C28   C30   S    
C2    C3    A    
C41   H7    S    
C29   C31   S    
C38   C40   A    
C22   C42   S    
C45   C50   A    
C11   N1    A    
C39   H10   S    
C11   C14   A    
C44   H22   S    
C6    C49   A    
C37   C41   A    
O8    Zn1   S    
C33   H34   S    
N2    Zn1   S    
O5    Zn1   S    
C38   H9    S    
C15   C21   A    
C7    H32   S    
C20   C21   A    
C16   O5    A    
C8    C10   A    
C23   C36   A    
C35   H2    S    
C42   H16   S    
C24   C43   S    
C17   O8    A    
C1    C36   S    
C9    H31   S    
