data_mof_unit_67913.cif
_audit_creation_date              2013-03-05T16:10:56-0500
_audit_creation_method            fapswitch 2.2
_symmetry_space_group_name_H-M    P1
_symmetry_Int_Tables_number       1
_space_group_crystal_system       triclinic
_cell_length_a                    15.506972
_cell_length_b                    15.580463
_cell_length_c                    10.00649
_cell_angle_alpha                 89.974592
_cell_angle_beta                  90.640706
_cell_angle_gamma                 90.334576
_cell_volume                      2417.43351026

loop_
_atom_site_label
_atom_site_type_symbol
_atom_site_description
_atom_site_fract_x
_atom_site_fract_y
_atom_site_fract_z
_atom_type_partial_charge
O1    O     O_R   0.091610 0.408380 0.614620 -0.583187
O2    O     O_R   0.908390 0.591620 0.385380 -0.599407
O3    O     O_R   0.908390 0.591620 0.614620 -0.568768
O4    O     O_R   0.091610 0.408380 0.385380 -0.577175
O5    O     O_R   0.908390 0.408380 0.385380 -0.541025
O6    O     O_R   0.091610 0.591620 0.614620 -0.585201
O7    O     O_R   0.091610 0.591620 0.385380 -0.551418
O8    O     O_R   0.908390 0.408380 0.614620 -0.562985
O9    O     O_R   0.591610 0.908380 0.614620 -0.583145
O10   O     O_R   0.408390 0.091620 0.385380 -0.599029
O11   O     O_R   0.408390 0.091620 0.614620 -0.568945
O12   O     O_R   0.591610 0.908380 0.385380 -0.577242
O13   O     O_R   0.408390 0.908380 0.385380 -0.540664
O14   O     O_R   0.591610 0.091620 0.614620 -0.585225
O15   O     O_R   0.591610 0.091620 0.385380 -0.551482
O16   O     O_R   0.408390 0.908380 0.614620 -0.562990
C1    C     C_R   0.119702 0.379719 0.500301 0.889267
C2    C     C_R   0.877048 0.616926 0.499189 0.898342
C3    C     C_R   0.880640 0.379976 0.499035 0.887354
C4    C     C_R   0.124102 0.616191 0.500268 0.926282
C5    C     C_R   0.619682 0.879697 0.500292 0.889254
C6    C     C_R   0.377089 0.116967 0.499198 0.898355
C7    C     C_R   0.380570 0.880051 0.499047 0.887801
C8    C     C_R   0.624143 0.116150 0.500259 0.926029
N1    N     N_R   0.000000 0.500000 0.857200 -0.228455
N2    N     N_R   1.000000 0.500000 0.142800 -0.222707
N3    N     N_R   0.500000 1.000000 0.857200 -0.228459
N4    N     N_R   0.500000 0.000000 0.142800 -0.222679
Zn1   Zn    Zn3+2 1.000000 0.500000 0.653120 1.038265
Zn2   Zn    Zn3+2 0.000000 0.500000 0.346880 1.041256
Zn3   Zn    Zn3+2 0.500000 0.000000 0.653120 1.038298
Zn4   Zn    Zn3+2 0.500000 0.000000 0.346880 1.041398
C9    C     C_R   0.019483 0.572306 0.071393 0.379817
C10   C     C_R   0.976838 0.428656 0.928599 0.438626
C11   C     C_R   0.973916 0.429623 0.071134 0.451948
C12   C     C_R   0.013331 0.573652 0.929090 0.404100
C13   C     C_R   0.519468 0.072313 0.071393 0.379769
C14   C     C_R   0.476789 0.928672 0.928597 0.438552
C15   C     C_R   0.473880 0.929636 0.071134 0.452178
C16   C     C_R   0.513348 0.073651 0.929090 0.404358
C17   C     C_R   0.768217 0.293361 0.382922 0.367659
C18   C     C_R   0.254536 0.688543 0.608532 0.319421
C19   C     C_R   0.217385 0.719902 0.378506 0.364416
C20   C     C_R   0.823006 0.246604 0.597683 0.365244
C21   C     C_R   0.218280 0.278644 0.620432 0.356600
C22   C     C_R   0.771175 0.710495 0.376140 0.329352
C23   C     C_R   0.768355 0.704640 0.619993 0.328144
C24   C     C_R   0.206051 0.271528 0.378456 0.330319
C25   C     C_R   0.267816 0.793764 0.383204 0.366857
C26   C     C_R   0.754667 0.188412 0.608501 0.319477
C27   C     C_R   0.717768 0.219510 0.378311 0.364085
C28   C     C_R   0.322848 0.746750 0.597705 0.364993
C29   C     C_R   0.718257 0.778602 0.620375 0.356773
C30   C     C_R   0.271415 0.210716 0.376193 0.329491
C31   C     C_R   0.268438 0.204722 0.620031 0.328062
C32   C     C_R   0.705808 0.771313 0.378421 0.330546
C33   C     C_R   0.198412 0.675880 0.497769 -0.443607
C34   C     C_R   0.820616 0.308149 0.495479 -0.437111
C35   C     C_R   0.804073 0.676905 0.497800 -0.426633
C36   C     C_R   0.182571 0.309733 0.499906 -0.411857
C37   C     C_R   0.698592 0.175696 0.497695 -0.443780
C38   C     C_R   0.320412 0.808353 0.495586 -0.436701
C39   C     C_R   0.304198 0.177028 0.497840 -0.426452
C40   C     C_R   0.682476 0.809639 0.499867 -0.411833
F1    F     F_    0.039895 0.645315 0.137377 -0.648486
F2    F     F_    0.952571 0.356814 0.862994 -0.606637
F3    F     F_    0.944095 0.359789 0.136503 -0.626249
F4    F     F_    0.013226 0.649987 0.865003 -0.659001
F5    F     F_    0.539889 0.145326 0.137366 -0.648479
F6    F     F_    0.452435 0.856862 0.862984 -0.606702
F7    F     F_    0.444002 0.859827 0.136505 -0.626573
F8    F     F_    0.513258 0.149987 0.865008 -0.658767
O17   O     O_3   0.774641 0.342685 0.268572 -0.562612
C41   C     C_3   0.729378 0.420485 0.284903 0.175265
H1    H     H_    0.742076 0.460214 0.194813 0.186402
H2    H     H_    0.753455 0.458738 0.371523 0.106844
C42   C     C_3   0.632136 0.405368 0.298843 -0.425376
H3    H     H_    0.611949 0.348606 0.239535 0.279699
H4    H     H_    0.617127 0.392385 0.405392 0.197266
C43   C     C_3   0.582243 0.483297 0.251797 -1.023734
H5    H     H_    0.614748 0.541843 0.288930 0.278001
H6    H     H_    0.515619 0.480522 0.290852 0.286911
H7    H     H_    0.580222 0.485390 0.141187 0.280867
O18   O     O_3   0.248969 0.639902 0.723107 -0.629702
C44   C     C_3   0.193139 0.681711 0.812195 0.158841
H8    H     H_    0.173046 0.633162 0.886637 0.178526
H9    H     H_    0.134606 0.706928 0.760484 0.210431
C45   C     C_3   0.235666 0.756333 0.887247 -0.355374
H10   H     H_    0.292355 0.733188 0.944609 0.276346
H11   H     H_    0.257231 0.806986 0.817153 0.247026
C46   C     C_3   0.170189 0.796677 0.979612 -0.876043
H12   H     H_    0.116055 0.824407 0.920784 0.257783
H13   H     H_    0.201922 0.847766 0.038820 0.297906
H14   H     H_    0.142485 0.748292 0.046793 0.356293
O19   O     O_3   0.189376 0.691534 0.254989 -0.565763
C47   C     C_3   0.236522 0.617754 0.216917 0.205327
H15   H     H_    0.209715 0.595851 0.119318 0.162204
H16   H     H_    0.227930 0.563385 0.287590 0.131672
C48   C     C_3   0.333267 0.635226 0.201981 -0.410431
H17   H     H_    0.343638 0.695462 0.145802 0.284127
H18   H     H_    0.364223 0.642353 0.302208 0.206788
C49   C     C_3   0.375105 0.560569 0.130804 -1.030848
H19   H     H_    0.361144 0.500285 0.185564 0.279210
H20   H     H_    0.445509 0.569989 0.129937 0.285959
H21   H     H_    0.350636 0.555622 0.026272 0.281822
O20   O     O_3   0.890624 0.243225 0.689148 -0.541081
C50   C     C_3   0.967380 0.219816 0.622605 0.196834
H22   H     H_    0.023271 0.248900 0.675873 0.189984
H23   H     H_    0.972007 0.244203 0.518289 0.086615
C51   C     C_3   0.976783 0.122806 0.621755 -0.412620
H24   H     H_    0.989495 0.099920 0.725030 0.251308
H25   H     H_    0.915955 0.093232 0.583708 0.239408
C52   C     C_3   0.049674 0.096278 0.530768 -1.029610
H26   H     H_    0.035418 0.119447 0.428152 0.264719
H27   H     H_    0.055408 0.025413 0.529905 0.287333
H28   H     H_    0.111655 0.124454 0.565127 0.264314
O21   O     O_3   0.211346 0.323457 0.739193 -0.605418
C53   C     C_3   0.273733 0.390675 0.740967 0.131624
H29   H     H_    0.262250 0.430073 0.831517 0.164132
H30   H     H_    0.265948 0.434391 0.653535 0.139836
C54   C     C_3   0.366563 0.356152 0.747850 -0.327649
H31   H     H_    0.372667 0.311974 0.833780 0.286228
H32   H     H_    0.382446 0.319861 0.656206 0.221635
C55   C     C_3   0.433160 0.427212 0.757737 -1.026420
H33   H     H_    0.441847 0.455157 0.657222 0.279434
H34   H     H_    0.495157 0.398776 0.790468 0.286265
H35   H     H_    0.413820 0.477841 0.829147 0.278999
O22   O     O_3   0.793156 0.677409 0.252936 -0.646338
C56   C     C_3   0.867189 0.719360 0.203347 0.224437
H36   H     H_    0.892342 0.676430 0.125551 0.216260
H37   H     H_    0.918269 0.729166 0.281241 0.172259
C57   C     C_3   0.848620 0.804886 0.134864 -0.405626
H38   H     H_    0.802423 0.795697 0.050725 0.253139
H39   H     H_    0.821942 0.851159 0.207368 0.242933
C58   C     C_3   0.932581 0.842010 0.082398 -0.976847
H40   H     H_    0.975925 0.855396 0.167664 0.289231
H41   H     H_    0.920196 0.902599 0.028770 0.285586
H42   H     H_    0.964777 0.796277 0.014413 0.326865
O23   O     O_3   0.794223 0.671470 0.742716 -0.588232
C59   C     C_3   0.763243 0.586333 0.757540 0.194325
H43   H     H_    0.813961 0.548326 0.809584 0.174853
H44   H     H_    0.749045 0.552798 0.660957 0.104598
C60   C     C_3   0.683791 0.585256 0.843640 -0.400742
H45   H     H_    0.702630 0.601828 0.947822 0.238654
H46   H     H_    0.637110 0.632339 0.803646 0.249759
C61   C     C_3   0.643363 0.496659 0.842735 -1.034817
H47   H     H_    0.621787 0.478990 0.740299 0.283888
H48   H     H_    0.587445 0.494845 0.910538 0.279206
H49   H     H_    0.692594 0.450412 0.876520 0.285339
O24   O     O_3   0.174192 0.301716 0.258049 -0.616385
C62   C     C_3   0.112109 0.243780 0.207081 0.137372
H50   H     H_    0.048546 0.257810 0.252243 0.192591
H51   H     H_    0.128140 0.175715 0.227341 0.129401
C63   C     C_3   0.107703 0.254650 0.056211 -0.262437
H52   H     H_    0.099570 0.323022 0.030208 0.238271
H53   H     H_    0.169521 0.234740 0.012184 0.218537
C64   C     C_3   0.034697 0.201180 0.996586 -0.846643
H54   H     H_    0.048236 0.132169 0.011064 0.227338
H55   H     H_    0.029226 0.214255 0.888959 0.296908
H56   H     H_    0.972498 0.217342 0.042551 0.322598
O25   O     O_3   0.274222 0.843156 0.268928 -0.563007
C65   C     C_3   0.228847 0.920874 0.285352 0.174559
H57   H     H_    0.241621 0.960717 0.195409 0.186721
H58   H     H_    0.252817 0.959026 0.372169 0.106152
C66   C     C_3   0.131577 0.905598 0.298903 -0.424990
H59   H     H_    0.111632 0.848618 0.239902 0.279744
H60   H     H_    0.116385 0.892871 0.405459 0.196991
C67   C     C_3   0.081533 0.983239 0.250994 -1.022566
H61   H     H_    0.113844 0.042002 0.287626 0.277604
H62   H     H_    0.014859 0.980493 0.289867 0.286842
H63   H     H_    0.079640 0.984893 0.140363 0.280614
O26   O     O_3   0.749003 0.139860 0.723149 -0.629709
C68   C     C_3   0.693161 0.181772 0.812097 0.159126
H64   H     H_    0.673186 0.133347 0.886824 0.178703
H65   H     H_    0.634577 0.206811 0.760332 0.210538
C69   C     C_3   0.735589 0.256649 0.886644 -0.355485
H66   H     H_    0.792617 0.233850 0.943514 0.277234
H67   H     H_    0.756642 0.307345 0.816235 0.245765
C70   C     C_3   0.670243 0.296725 0.979498 -0.875924
H68   H     H_    0.615873 0.324334 0.921051 0.258053
H69   H     H_    0.701993 0.347862 0.038558 0.297441
H70   H     H_    0.642885 0.248217 0.046818 0.356202
O27   O     O_3   0.689570 0.191195 0.254871 -0.565897
C71   C     C_3   0.736319 0.117152 0.216907 0.205601
H71   H     H_    0.708874 0.094892 0.119907 0.162520
H72   H     H_    0.728099 0.063075 0.288256 0.130791
C72   C     C_3   0.832964 0.134426 0.200392 -0.409425
H73   H     H_    0.843067 0.194553 0.143824 0.283461
H74   H     H_    0.864578 0.141683 0.300133 0.206713
C73   C     C_3   0.874124 0.059548 0.128741 -1.029252
H75   H     H_    0.860592 0.999425 0.184226 0.278786
H76   H     H_    0.944525 0.068844 0.126180 0.285694
H77   H     H_    0.848686 0.054307 0.024747 0.281497
O28   O     O_3   0.390527 0.743300 0.689048 -0.541068
C74   C     C_3   0.467200 0.719802 0.622370 0.196386
H78   H     H_    0.523146 0.748976 0.675375 0.189805
H79   H     H_    0.471695 0.744013 0.517932 0.086485
C75   C     C_3   0.476601 0.622797 0.621883 -0.412127
H80   H     H_    0.489324 0.600058 0.725236 0.251317
H81   H     H_    0.415767 0.593175 0.583949 0.239528
C76   C     C_3   0.549484 0.596140 0.530990 -1.030138
H82   H     H_    0.535217 0.619165 0.428295 0.264998
H83   H     H_    0.555213 0.525271 0.530376 0.287362
H84   H     H_    0.611468 0.624365 0.565248 0.264377
O29   O     O_3   0.711528 0.823541 0.739055 -0.605376
C77   C     C_3   0.774027 0.890665 0.740527 0.131594
H85   H     H_    0.762798 0.930068 0.831152 0.164248
H86   H     H_    0.766106 0.934396 0.653145 0.139727
C78   C     C_3   0.866830 0.856016 0.746899 -0.327984
H87   H     H_    0.873044 0.811712 0.832654 0.286646
H88   H     H_    0.882492 0.819838 0.655048 0.221218
C79   C     C_3   0.933548 0.926963 0.756764 -1.026645
H89   H     H_    0.942076 0.955072 0.656325 0.279492
H90   H     H_    0.995567 0.898379 0.789083 0.286266
H91   H     H_    0.914430 0.977491 0.828494 0.279088
O30   O     O_3   0.293464 0.177685 0.252984 -0.646118
C80   C     C_3   0.367450 0.219751 0.203456 0.224270
H92   H     H_    0.392474 0.177062 0.125221 0.216468
H93   H     H_    0.418633 0.229243 0.281272 0.172549
C81   C     C_3   0.348844 0.305526 0.135726 -0.405468
H94   H     H_    0.302445 0.296656 0.051763 0.253111
H95   H     H_    0.322382 0.351618 0.208714 0.242680
C82   C     C_3   0.432730 0.342740 0.083159 -0.977689
H96   H     H_    0.476152 0.355957 0.168376 0.289372
H97   H     H_    0.420282 0.403434 0.029852 0.285755
H98   H     H_    0.464857 0.297130 0.014896 0.326278
O31   O     O_3   0.294268 0.171518 0.742753 -0.588161
C83   C     C_3   0.263273 0.086381 0.757514 0.194633
H99   H     H_    0.313964 0.048361 0.809596 0.174873
H100  H     H_    0.249117 0.052866 0.660901 0.104429
C84   C     C_3   0.183781 0.085288 0.843522 -0.400573
H101  H     H_    0.202570 0.101841 0.947732 0.238624
H102  H     H_    0.137117 0.132382 0.803511 0.249741
C85   C     C_3   0.143362 0.996684 0.842514 -1.034853
H103  H     H_    0.122023 0.978961 0.739982 0.283792
H104  H     H_    0.087273 0.994907 0.909978 0.279135
H105  H     H_    0.192520 0.950453 0.876646 0.285379
O32   O     O_3   0.673941 0.801518 0.258024 -0.616371
C86   C     C_3   0.611866 0.743608 0.206932 0.137280
H106  H     H_    0.548288 0.757629 0.252046 0.192629
H107  H     H_    0.627865 0.675525 0.227119 0.129617
C87   C     C_3   0.607530 0.754594 0.056065 -0.262578
H108  H     H_    0.599521 0.823003 0.030190 0.238255
H109  H     H_    0.669333 0.734639 0.012073 0.218367
C88   C     C_3   0.534496 0.701298 0.996134 -0.846595
H110  H     H_    0.547851 0.632238 0.010477 0.227560
H111  H     H_    0.529229 0.714472 0.888515 0.296883
H112  H     H_    0.472257 0.717570 0.041865 0.323017

loop_
_geom_bond_atom_site_label_1
_geom_bond_atom_site_label_2
_geom_bond_distance
_ccdc_geom_bond_type
C58   H42   1.109932 S    
C14   F6    1.347460 S    
C21   C36   1.408359 A    
C64   H54   1.105887 S    
C24   O24   1.380525 S    
C22   C35   1.415927 A    
O2    C2    1.305225 A    
C76   H83   1.108286 S    
O17   C41   1.414698 S    
C51   H25   1.110887 S    
O13   Zn4   2.047506 S    
O19   C47   1.420364 S    
C27   C37   1.409382 A    
C59   C60   1.511300 S    
O14   Zn3   2.047504 S    
O22   C56   1.412486 S    
C10   F2    1.347476 S    
C81   H95   1.108201 S    
O25   C65   1.414595 S    
C82   H98   1.109929 S    
C9    F1    1.349767 S    
O15   Zn4   2.041756 S    
C42   H3    1.106977 S    
O10   C6    1.305253 A    
O16   Zn3   2.041759 S    
C24   C30   1.391891 A    
C72   C73   1.517273 S    
C26   O26   1.377230 S    
C66   H59   1.107042 S    
C41   H2    1.111994 S    
O3    C2    1.309624 A    
O8    Zn1   2.041759 S    
C32   O32   1.380578 S    
C86   H106  1.111790 S    
C59   H44   1.117970 S    
C17   C34   1.399807 A    
C61   H47   1.109012 S    
C13   C16   1.426213 A    
C27   O27   1.377569 S    
C44   H8    1.107272 S    
C14   C15   1.427597 A    
C29   C40   1.408348 A    
C77   H86   1.114424 S    
C42   C43   1.515498 S    
C30   C39   1.415754 A    
N3    C14   1.369444 A    
O14   C8    1.311632 A    
C60   H45   1.109664 S    
C61   H49   1.103056 S    
C47   C48   1.532094 S    
C9    C12   1.426230 A    
C71   H71   1.110351 S    
O13   C7    1.297275 A    
C49   H21   1.111255 S    
C60   H46   1.105321 S    
C10   C11   1.427587 A    
C76   H82   1.108672 S    
C62   C63   1.519893 S    
C31   O31   1.388154 S    
O3    Zn1   2.053087 S    
C53   H29   1.111244 S    
C81   H94   1.108200 S    
C5    C40   1.467030 S    
C73   H77   1.111610 S    
C78   H88   1.108387 S    
C6    C39   1.471561 S    
C51   H24   1.109011 S    
C69   C70   1.519528 S    
C82   H96   1.099388 S    
C20   C34   1.401956 A    
C57   H38   1.108147 S    
C54   C55   1.512127 S    
C41   C42   1.532754 S    
C31   C39   1.416722 A    
C29   O29   1.384128 S    
C62   H50   1.111806 S    
C32   C40   1.406164 A    
C69   H66   1.106476 S    
C75   H80   1.109024 S    
C11   F3    1.351226 S    
C84   C85   1.512771 S    
C63   H53   1.105570 S    
N1    C10   1.369457 A    
C23   C29   1.393554 A    
C70   H70   1.098698 S    
C45   H10   1.106564 S    
C83   C84   1.511274 S    
C67   H62   1.109323 S    
O28   C74   1.419825 S    
O11   Zn3   2.053087 S    
C66   H60   1.112028 S    
O7    Zn2   2.041756 S    
C68   H64   1.107370 S    
C88   H110  1.105909 S    
O12   Zn4   2.053087 S    
C50   H23   1.113604 S    
C85   H104  1.107173 S    
C43   H7    1.107384 S    
C18   C33   1.414715 A    
C83   H100  1.117960 S    
C83   H99   1.111943 S    
C24   C36   1.406015 A    
C61   H48   1.107190 S    
C7    C38   1.451365 S    
C3    C34   1.451594 S    
N1    Zn1   2.042124 S    
C87   C88   1.518569 S    
C54   H32   1.108358 S    
C41   H1    1.112058 S    
C44   H9    1.113316 S    
N3    Zn3   2.042124 S    
O8    C3    1.306081 A    
C70   H69   1.102633 S    
C58   H40   1.099521 S    
C28   O28   1.385257 S    
O30   C80   1.412487 S    
C63   C64   1.518540 S    
C43   H6    1.109261 S    
C60   C61   1.512729 S    
C46   H12   1.109422 S    
C19   C33   1.409251 A    
C77   H85   1.111237 S    
C19   C25   1.388104 A    
C19   O19   1.377625 S    
C1    C36   1.466962 S    
N4    C15   1.367195 A    
C80   H92   1.102772 S    
O29   C77   1.421652 S    
C23   C35   1.416675 A    
O12   C5    1.304622 A    
C86   H107  1.108759 S    
C74   H78   1.107211 S    
C47   H16   1.111627 S    
C80   C81   1.525746 S    
C85   H105  1.103143 S    
C30   O30   1.383409 S    
O27   C71   1.420208 S    
C73   H75   1.108887 S    
C46   H13   1.102759 S    
C65   C66   1.533140 S    
C13   F5    1.349805 S    
N2    C11   1.367200 A    
N2    C9    1.367888 A    
C87   H109  1.105429 S    
O31   C83   1.416447 S    
C79   H91   1.109427 S    
N4    Zn4   2.042124 S    
N3    C16   1.368125 A    
C50   H22   1.107208 S    
C47   H15   1.110230 S    
C48   C49   1.516925 S    
C75   C76   1.518508 S    
O1    Zn1   2.059276 S    
C78   H87   1.104772 S    
C54   H31   1.104760 S    
C42   H4    1.112041 S    
C18   O18   1.377289 S    
C84   H102  1.105336 S    
O20   C50   1.419895 S    
O18   C44   1.411698 S    
C49   H20   1.100849 S    
C51   C52   1.518617 S    
C63   H52   1.104087 S    
C68   H65   1.113214 S    
C8    C37   1.477285 S    
O4    C1    1.304673 A    
C57   H39   1.108133 S    
O15   C8    1.306594 A    
C48   H18   1.112353 S    
C45   H11   1.108275 S    
N2    Zn2   2.042124 S    
O16   C7    1.305924 A    
C55   H35   1.109434 S    
C50   C51   1.519351 S    
C74   H79   1.113671 S    
C80   H93   1.114929 S    
C85   H103  1.109043 S    
C23   O23   1.388127 S    
O26   C68   1.411677 S    
C55   H34   1.107087 S    
C52   H26   1.108634 S    
C44   C45   1.526901 S    
C20   C26   1.395714 A    
C58   H41   1.102428 S    
O32   C86   1.407590 S    
C67   H61   1.102030 S    
C73   H76   1.101008 S    
C25   C38   1.399660 A    
C16   F8    1.350945 S    
C87   H108  1.104115 S    
C25   O25   1.382220 S    
O5    Zn2   2.047506 S    
C79   H90   1.107133 S    
C43   H5    1.102231 S    
C68   C69   1.526807 S    
O23   C59   1.416443 S    
C12   F4    1.350955 S    
C52   H28   1.105677 S    
C66   C67   1.515759 S    
O5    C3    1.297196 A    
C20   O20   1.385294 S    
C64   H56   1.103682 S    
C65   H57   1.112064 S    
O6    C4    1.311487 A    
O11   C6    1.309507 A    
O1    C1    1.308294 A    
C48   H17   1.105647 S    
O2    Zn2   2.059276 S    
C71   C72   1.531846 S    
C56   C57   1.525586 S    
C88   H111  1.098411 S    
C56   H36   1.102642 S    
C72   H73   1.105615 S    
C65   H58   1.112136 S    
C28   C38   1.401978 A    
O21   C53   1.421583 S    
C46   H14   1.098636 S    
C82   H97   1.102452 S    
C77   C78   1.540613 S    
O9    C5    1.308378 A    
C45   C46   1.519620 S    
N4    C13   1.367918 A    
C57   C58   1.520383 S    
C59   H43   1.111945 S    
C69   H67   1.108389 S    
C76   H84   1.105716 S    
C71   H72   1.111799 S    
C86   C87   1.520030 S    
C62   H51   1.108732 S    
C49   H19   1.108673 S    
C53   H30   1.114444 S    
C21   O21   1.384110 S    
C72   H74   1.112536 S    
O9    Zn3   2.059276 S    
N1    C12   1.368101 A    
C17   O17   1.382269 S    
C70   H68   1.109467 S    
C74   C75   1.519258 S    
O10   Zn4   2.059276 S    
C2    C35   1.471749 S    
C53   C54   1.540475 S    
O6    Zn1   2.047504 S    
C79   H89   1.105129 S    
C21   C31   1.393570 A    
C64   H55   1.098424 S    
O7    C4    1.306618 A    
C22   O22   1.383419 S    
C88   H112  1.103640 S    
C22   C32   1.391990 A    
C84   H101  1.109666 S    
C26   C37   1.414707 A    
C15   F7    1.351229 S    
O24   C62   1.407482 S    
C75   H81   1.110892 S    
C67   H63   1.107379 S    
C56   H37   1.114969 S    
C4    C33   1.476982 S    
C78   C79   1.512109 S    
C17   C27   1.388106 A    
C81   C82   1.520270 S    
O4    Zn2   2.053087 S    
C18   C28   1.395554 A    
C55   H33   1.105124 S    
C52   H27   1.108257 S    
