data_mof_unit_38784.cif
_audit_creation_date              2012-12-10T20:31:55-0500
_audit_creation_method            fapswitch 2.2
_symmetry_space_group_name_H-M    P1
_symmetry_Int_Tables_number       1
_space_group_crystal_system       triclinic
_cell_length_a                    9.870178
_cell_length_b                    10.674909
_cell_length_c                    15.511211
_cell_angle_alpha                 90.073055
_cell_angle_beta                  67.684319
_cell_angle_gamma                 90.063161
_cell_volume                      1511.90965667

loop_
_atom_site_label
_atom_site_type_symbol
_atom_type_description
_atom_site_fract_x
_atom_site_fract_y
_atom_site_fract_z
_atom_type_partial_charge
C1    C     C_R   0.498241 0.740063 0.502996 0.879303
C2    C     C_R   0.402552 0.450707 0.915850 0.096768
C3    C     C_R   0.258583 0.491453 0.970793 0.175614
C4    C     C_R   0.504118 0.424466 0.958250 0.070465
C5    C     C_R   0.464866 0.454798 0.053497 0.068812
C6    C     C_R   0.317282 0.485844 0.107664 -0.234043
C7    C     C_R   0.215787 0.502774 0.066766 -0.248015
C8    C     C_R   0.644330 0.371835 0.908653 -0.233735
C9    C     C_R   0.746081 0.357823 0.950008 -0.242759
C10   C     C_R   0.713317 0.398769 0.040881 0.177715
C11   C     C_R   0.573990 0.451190 0.091985 0.095864
C12   C     C_R   0.408290 0.497977 0.675962 0.862889
C13   C     C_R   0.817344 0.387037 0.082041 -0.223479
C14   C     C_R   0.783003 0.425649 0.173932 -0.210882
C15   C     C_R   0.548558 0.500584 0.179960 -0.262867
C16   C     C_R   0.363685 0.935949 0.523374 0.130225
C17   C     C_R   0.488980 0.871414 0.518444 -0.107074
C18   C     C_R   0.603643 0.935521 0.531741 -0.231763
C19   C     C_R   0.603387 0.064924 0.532051 -0.225921
C20   C     C_R   0.488841 0.128658 0.518515 -0.105145
C21   C     C_R   0.363710 0.063804 0.523269 0.139613
C22   C     C_3   0.277657 0.070628 0.462175 -0.490943
C23   C     C_R   0.498209 0.259943 0.502975 0.881323
C24   C     C_3   0.277458 0.928560 0.462384 -0.475760
C25   C     C_R   0.899107 0.587568 0.550322 0.216822
C26   C     C_R   0.961405 0.421166 0.443936 -0.156111
C27   C     C_R   0.105310 0.421083 0.443981 -0.131449
C28   C     C_R   0.041935 0.587517 0.550092 0.164520
C29   C     C_3   0.989001 0.606282 0.652712 -0.523370
C30   C     C_3   0.834198 0.604721 0.653857 -0.051759
C31   C     C_R   0.591559 0.498966 0.323972 0.871519
C32   C     C_R   0.349982 0.488741 0.777264 -0.055446
C33   C     C_R   0.646824 0.480829 0.223342 -0.059353
C34   C     C_R   0.160423 0.524130 0.928625 -0.216254
C35   C     C_R   0.206380 0.523737 0.831954 -0.206349
C36   C     C_R   0.443951 0.447492 0.819271 -0.259798
H1    H     H_    0.104842 0.529760 0.110075 0.151325
H2    H     H_    0.922995 0.344409 0.044260 0.147767
H3    H     H_    0.698051 0.886993 0.534668 0.173784
H4    H     H_    0.697331 0.113814 0.535683 0.170902
H5    H     H_    0.167145 0.111769 0.498993 0.203596
H6    H     H_    0.341201 0.111705 0.392581 0.203317
H7    H     H_    0.166855 0.887564 0.499436 0.201315
H8    H     H_    0.340763 0.886996 0.392886 0.205711
H9    H     H_    0.933166 0.355782 0.400065 0.147704
H10   H     H_    0.185587 0.355525 0.400176 0.148789
H11   H     H_    0.012578 0.524330 0.688895 0.190949
H12   H     H_    0.450357 0.553024 0.217465 0.153428
H13   H     H_    0.024961 0.697978 0.670811 0.206471
H14   H     H_    0.770063 0.522288 0.691114 0.177868
H15   H     H_    0.860095 0.408692 0.207048 0.152767
H16   H     H_    0.851703 0.316400 0.910136 0.150046
H17   H     H_    0.050448 0.555391 0.970153 0.151506
H18   H     H_    0.131822 0.554844 0.800204 0.152988
H19   H     H_    0.552158 0.419175 0.774431 0.144150
H20   H     H_    0.276264 0.495605 0.182460 0.149374
H21   H     H_    0.677686 0.336874 0.838451 0.140858
N1    N     N_R   0.856900 0.500860 0.500610 -0.118371
N2    N     N_R   0.142540 0.500820 0.500610 -0.100889
O1    O     O_R   0.385310 0.683210 0.499990 -0.611641
O2    O     O_R   0.614650 0.683240 0.500000 -0.617715
O3    O     O_R   0.319830 0.499970 0.632240 -0.614891
O4    O     O_R   0.549170 0.500000 0.632250 -0.623323
O5    O     O_R   0.385350 0.316760 0.500000 -0.614548
O6    O     O_R   0.614690 0.316790 0.500010 -0.624534
O7    O     O_R   0.450830 0.500000 0.367750 -0.616887
O8    O     O_R   0.680170 0.500030 0.367760 -0.611929
Zn1   Zn    Zn3+2 0.346870 0.499980 0.499990 0.937674
Zn2   Zn    Zn3+2 0.653130 0.500020 0.500010 0.934181
C37   C     C_3   0.752875 0.729064 0.683557 -0.855174
H22   H     H_    0.819974 0.808743 0.643483 0.228248
H23   H     H_    0.648612 0.725809 0.672057 0.258725
H24   H     H_    0.726899 0.744805 0.758921 0.247279

loop_
_geom_bond_atom_site_label_1
_geom_bond_atom_site_label_2
_ccdc_geom_bond_type
C8    C9    A    
C31   O7    A    
O7    Zn1   S    
C16   C21   A    
C19   C20   A    
C4    C8    A    
C14   C33   A    
C29   H13   S    
C25   C28   A    
C31   O8    A    
C26   C27   A    
C29   H11   S    
C32   C36   A    
C28   C29   S    
C5    C11   A    
C3    C7    A    
C5    C6    A    
N2    Zn1   S    
C22   H5    S    
O2    Zn2   S    
C34   C35   A    
C26   H9    S    
C11   C15   A    
O4    Zn2   S    
C16   C17   A    
C31   C33   S    
C37   H22   S    
C9    C10   A    
C30   H14   S    
C16   C24   S    
C21   C22   S    
C12   C32   S    
C35   H18   S    
C9    H16   S    
C15   H12   S    
C30   C37   S    
C32   C35   A    
C19   H4    S    
C1    O1    A    
C12   O4    A    
C18   C19   A    
C3    C34   A    
O8    Zn2   S    
C2    C4    A    
C18   H3    S    
C29   C30   S    
C8    H21   S    
C12   O3    A    
C14   H15   S    
C20   C23   S    
C37   H24   S    
C17   C18   A    
C7    H1    S    
C26   N1    A    
C13   H2    S    
C27   H10   S    
C23   O5    A    
C24   H8    S    
C22   C24   S    
C25   N1    A    
O5    Zn1   S    
C28   N2    A    
C2    C36   A    
C25   C30   S    
C6    H20   S    
C4    C5    A    
C10   C13   A    
C1    O2    A    
N1    Zn2   S    
C6    C7    A    
C1    C17   S    
O3    Zn1   S    
C23   O6    A    
C2    C3    A    
C36   H19   S    
C27   N2    A    
C22   H6    S    
O6    Zn2   S    
C10   C11   A    
C20   C21   A    
O1    Zn1   S    
C34   H17   S    
C24   H7    S    
C37   H23   S    
C13   C14   A    
C15   C33   A    
