data_mof_unit_35885.cif
_audit_creation_date              2012-12-10T17:23:43-0500
_audit_creation_method            fapswitch 2.2
_symmetry_space_group_name_H-M    P1
_symmetry_Int_Tables_number       1
_space_group_crystal_system       triclinic
_cell_length_a                    9.579745
_cell_length_b                    10.84183
_cell_length_c                    17.352187
_cell_angle_alpha                 93.286711
_cell_angle_beta                  85.938874
_cell_angle_gamma                 91.886351
_cell_volume                      1793.99634506

loop_
_atom_site_label
_atom_site_type_symbol
_atom_type_description
_atom_site_fract_x
_atom_site_fract_y
_atom_site_fract_z
_atom_type_partial_charge
C1    C     C_R   0.502544 0.737052 0.495625 0.794957
C2    C     C_R   0.342556 0.494959 0.776374 -0.201071
C3    C     C_R   0.412688 0.511447 0.146885 -0.149015
C4    C     C_R   0.405715 0.512658 0.226994 -0.217626
C5    C     C_R   0.657058 0.488083 0.223333 -0.205735
C6    C     C_R   0.663897 0.486515 0.142903 -0.175527
C7    C     C_R   0.541603 0.496061 0.104235 0.194507
C8    C     C_2   0.446088 0.452906 0.977276 -0.233309
C9    C     C_2   0.552125 0.493301 0.019477 -0.231010
C10   C     C_R   0.527578 0.500202 0.265802 -0.021693
C11   C     C_R   0.296029 0.865099 0.415523 -0.226984
C12   C     C_R   0.481577 0.497239 0.649664 0.788673
C13   C     C_R   0.166852 0.912832 0.405121 -0.354810
C14   C     C_R   0.125882 0.024468 0.444858 0.495682
C15   C     C_R   0.225403 0.093106 0.487220 0.360221
C16   C     C_R   0.366838 0.053287 0.486537 -0.100792
C17   C     C_R   0.390362 0.929052 0.463155 0.046641
C18   C     C_R   0.505543 0.870774 0.490109 -0.079561
C19   C     C_R   0.612544 0.941459 0.523103 -0.223986
C20   C     C_R   0.605799 0.068948 0.528822 -0.203088
C21   C     C_R   0.485485 0.127206 0.509416 -0.098623
C22   C     C_R   0.864976 0.345720 0.390129 -0.119399
C23   C     C_R   0.495815 0.262113 0.504006 0.787318
C24   C     C_R   0.942614 0.278414 0.332661 -0.194041
C25   C     C_R   0.086354 0.276961 0.333661 -0.191343
C26   C     C_R   0.153035 0.344633 0.391371 -0.086779
C27   C     C_R   0.079134 0.423973 0.446296 0.244987
C28   C     C_R   0.929544 0.424163 0.446091 0.212448
C29   C     C_R   0.922206 0.572648 0.551092 -0.079638
C30   C     C_R   0.070252 0.572650 0.551048 -0.078713
C31   C     C_R   0.518281 0.500018 0.350193 0.756518
C32   C     C_R   0.471646 0.484744 0.733279 -0.028992
C33   C     C_R   0.591606 0.457453 0.770214 -0.209252
C34   C     C_R   0.583470 0.443367 0.849315 -0.152596
C35   C     C_R   0.455462 0.458066 0.892886 0.193729
C36   C     C_R   0.334546 0.481028 0.855828 -0.172414
Cu1   Cu    Cu3+1 0.359340 0.500010 0.500010 0.940083
Cu2   Cu    Cu3+1 0.640660 0.499990 0.499990 0.926632
H1    H     H_    0.691843 0.445987 0.738009 0.153687
H2    H     H_    0.764391 0.476249 0.110763 0.120539
H3    H     H_    0.702067 0.898308 0.543883 0.165403
H4    H     H_    0.320983 0.776568 0.386635 0.181891
H5    H     H_    0.097815 0.856985 0.369818 0.160013
H6    H     H_    0.694757 0.122135 0.549491 0.188761
H7    H     H_    0.863689 0.632259 0.592871 0.135670
H8    H     H_    0.755110 0.330885 0.388507 0.190712
H9    H     H_    0.890125 0.222035 0.289319 0.134425
H10   H     H_    0.304763 0.524122 0.258430 0.154385
H11   H     H_    0.146177 0.218962 0.291414 0.137723
H12   H     H_    0.261818 0.328719 0.391710 0.186745
H13   H     H_    0.122509 0.632197 0.592849 0.137261
H14   H     H_    0.752652 0.479016 0.252056 0.153157
H15   H     H_    0.650394 0.525623 0.991417 0.143585
H16   H     H_    0.234725 0.491199 0.888678 0.121907
H17   H     H_    0.317318 0.524612 0.118913 0.121394
H18   H     H_    0.248289 0.514653 0.748951 0.148350
H19   H     H_    0.347452 0.420899 0.004996 0.142653
H20   H     H_    0.677313 0.420436 0.876002 0.122580
N1    N     N_R   0.852190 0.498790 0.499250 -0.201951
N2    N     N_R   0.148060 0.498710 0.499220 -0.197491
O1    O     O_R   0.381190 0.680360 0.500010 -0.577739
O2    O     O_R   0.618760 0.680340 0.500000 -0.583412
O3    O     O_R   0.367440 0.500030 0.613600 -0.592685
O4    O     O_R   0.605010 0.500010 0.613590 -0.586151
O5    O     O_R   0.381240 0.319660 0.500000 -0.548520
O6    O     O_R   0.618810 0.319640 0.499990 -0.600773
O7    O     O_R   0.394990 0.499990 0.386410 -0.618070
O8    O     O_R   0.632560 0.499970 0.386400 -0.604920
O9    O     O_3   0.990522 0.070078 0.448289 -0.549930
C37   C     C_3   0.900130 0.004608 0.398611 -0.331423
H21   H     H_    0.875042 0.910263 0.418502 0.169245
H22   H     H_    0.944155 0.001875 0.337493 0.152051
H23   H     H_    0.800557 0.054170 0.400229 0.201123
O10   O     O_3   0.175830 0.191652 0.534316 -0.567344
C38   C     C_3   0.169630 0.160767 0.612409 0.097077
H24   H     H_    0.277139 0.156161 0.632376 0.136074
H25   H     H_    0.112710 0.070452 0.620505 0.125310
C39   C     C_3   0.091008 0.261124 0.661539 -0.303715
H26   H     H_    0.143622 0.352336 0.652123 0.239008
H27   H     H_    0.982306 0.264508 0.643296 0.221690
C40   C     C_3   0.086190 0.237060 0.747461 -0.964575
H28   H     H_    0.030868 0.147504 0.758553 0.259010
H29   H     H_    0.029231 0.312043 0.781342 0.252586
H30   H     H_    0.193964 0.235148 0.767078 0.268282

loop_
_geom_bond_atom_site_label_1
_geom_bond_atom_site_label_2
_ccdc_geom_bond_type
C30   H13   S    
C16   C21   A    
C19   C20   A    
C1    O2    A    
C40   H28   S    
C31   O7    A    
C26   C27   A    
Cu1   Cu2   S    
C23   O6    A    
C34   C35   A    
C3    C7    A    
C27   N2    A    
C26   H12   S    
C5    C6    A    
C12   O4    A    
C39   H27   S    
C15   C16   A    
C11   H4    S    
C2    C32   A    
C18   C19   A    
C20   H6    S    
Cu1   O3    S    
C3    H17   S    
C10   C31   S    
Cu2   O6    S    
C16   C17   A    
C30   N2    A    
C5    H14   S    
C37   H21   S    
C22   C28   A    
C13   C14   A    
C12   C32   S    
C40   H29   S    
C33   C34   A    
Cu2   O4    S    
C31   O8    A    
O10   C38   S    
C29   N1    A    
C24   C25   A    
C12   O3    A    
C39   H26   S    
C8    C9    D    
C25   C26   A    
C29   H7    S    
C35   C36   A    
C38   H24   S    
C29   C30   A    
C8    H19   S    
C37   H23   S    
C17   C18   A    
C1    C18   S    
C33   H1    S    
C38   H25   S    
Cu1   O5    S    
C22   H8    S    
Cu2   O8    S    
C21   C23   S    
C14   O9    S    
C22   C24   A    
C9    H15   S    
C4    C10   A    
C3    C4    A    
C13   H5    S    
C40   H30   S    
C4    H10   S    
C28   N1    A    
C2    C36   A    
C7    C9    S    
C11   C17   A    
C24   H9    S    
C1    O1    A    
Cu1   O1    S    
C6    C7    A    
C32   C33   A    
C23   O5    A    
C5    C10   A    
C2    H18   S    
C11   C13   A    
C39   C40   S    
Cu1   O7    S    
C6    H2    S    
O9    C37   S    
C38   C39   S    
C25   H11   S    
Cu1   N2    S    
C36   H16   S    
Cu2   N1    S    
C15   O10   S    
C20   C21   A    
C27   C28   A    
C34   H20   S    
C14   C15   A    
C37   H22   S    
C8    C35   S    
C19   H3    S    
Cu2   O2    S    
