data_mof_unit_38997.cif
_audit_creation_date              2012-10-26T19:35:20-0400
_audit_creation_method            fapswitch 2.2
_symmetry_space_group_name_H-M    P1
_symmetry_Int_Tables_number       1
_space_group_crystal_system       triclinic
_cell_length_a                    10.845205
_cell_length_b                    10.853827
_cell_length_c                    9.53408
_cell_angle_alpha                 90.832177
_cell_angle_beta                  89.686425
_cell_angle_gamma                 90.870504
_cell_volume                      1122.01205606

loop_
_atom_site_label
_atom_site_type_symbol
_atom_type_description
_atom_site_fract_x
_atom_site_fract_y
_atom_site_fract_z
_atom_type_partial_charge
C1    C     C_R   0.495599 0.262398 0.498956 0.549909
C2    C     C_R   0.459514 0.932671 0.375445 -0.076701
C3    C     C_R   0.482564 0.871014 0.501438 -0.027643
C4    C     C_R   0.262244 0.509210 0.501639 0.561872
C5    C     C_R   0.483557 0.939974 0.626419 -0.018862
C6    C     C_3   0.570162 0.941735 0.748081 0.292197
C7    C     C_3   0.568686 0.081077 0.744225 0.309011
C8    C     C_R   0.602881 0.536249 0.073548 0.055751
C9    C     C_R   0.405728 0.446917 0.073553 0.527129
C10   C     C_R   0.405581 0.447690 0.924823 0.119673
C11   C     C_R   0.603613 0.534391 0.926043 0.093938
C12   C     C_R   0.059965 0.506475 0.634952 0.043989
C13   C     C_3   0.668885 0.655531 0.920672 0.316946
C14   C     C_3   0.668070 0.658218 0.079599 0.263051
C15   C     C_R   0.497107 0.737915 0.500799 0.599264
C16   C     C_R   0.737396 0.489943 0.499847 0.551328
C17   C     C_R   0.108402 0.534644 0.770028 0.412734
C18   C     C_R   0.049906 0.489611 0.890054 -0.033172
C19   C     C_R   0.941093 0.420989 0.877982 -0.113960
C20   C     C_R   0.883090 0.410288 0.748160 -0.049513
C21   C     C_R   0.936789 0.464358 0.627725 0.009868
C22   C     C_R   0.127385 0.517680 0.506842 0.011478
C23   C     C_R   0.063963 0.517744 0.379224 -0.126913
C24   C     C_R   0.936963 0.505180 0.377132 -0.134792
C25   C     C_R   0.871808 0.480301 0.500940 0.015307
C26   C     C_R   0.482442 0.066797 0.623933 -0.033042
C27   C     C_R   0.480310 0.129479 0.497653 -0.021644
C28   C     C_R   0.458894 0.061354 0.372934 0.383701
Cu1   Cu    Cu3+1 0.499990 0.499980 0.640670 1.070526
Cu2   Cu    Cu3+1 0.500010 0.500020 0.359330 1.137317
F1    F     F_    0.684713 0.895483 0.712540 -0.608791
F2    F     F_    0.510882 0.132302 0.860545 -0.586109
F3    F     F_    0.310308 0.391469 0.141062 -0.596906
F4    F     F_    0.786455 0.646705 0.865347 -0.607808
F5    F     F_    0.594518 0.751104 0.132094 -0.634628
F6    F     F_    0.202116 0.617533 0.788429 -0.614227
F7    F     F_    0.443892 0.117706 0.248096 -0.533502
H1    H     H_    0.112356 0.529056 0.280442 0.177605
H2    H     H_    0.889996 0.514355 0.277962 0.131488
H3    H     H_    0.527959 0.904242 0.845116 0.180500
H4    H     H_    0.658401 0.125827 0.716796 0.141685
H5    H     H_    0.328831 0.406256 0.868715 0.161239
H6    H     H_    0.088694 0.508625 0.992642 0.151355
H7    H     H_    0.897732 0.382550 0.970419 0.134549
H8    H     H_    0.447204 0.882203 0.277739 0.230643
H9    H     H_    0.612421 0.725759 0.871324 0.192882
H10   H     H_    0.760796 0.654686 0.128212 0.149349
H11   H     H_    0.796861 0.359104 0.743179 0.145678
N1    N     N_R   0.500790 0.500930 0.147930 -0.215086
N2    N     N_R   0.500790 0.500890 0.852020 -0.293697
O1    O     O_R   0.500000 0.319640 0.618810 -0.512881
O2    O     O_R   0.500010 0.319680 0.381230 -0.409750
O3    O     O_R   0.319640 0.499980 0.618820 -0.473097
O4    O     O_R   0.319650 0.500020 0.381230 -0.456515
O5    O     O_R   0.499990 0.680320 0.618770 -0.475068
O6    O     O_R   0.500000 0.680360 0.381190 -0.462628
O7    O     O_R   0.680350 0.499980 0.618770 -0.477036
O8    O     O_R   0.680360 0.500020 0.381180 -0.527995

loop_
_geom_bond_atom_site_label_1
_geom_bond_atom_site_label_2
_ccdc_geom_bond_type
C12   C17   A    
C2    C28   A    
C23   C24   A    
C6    C7    S    
C16   C25   S    
C17   F6    S    
C13   C14   S    
C4    O3    A    
C10   H5    S    
C23   H1    S    
C1    O1    A    
C9    C10   A    
C19   C20   A    
C16   O7    A    
C15   O6    A    
C20   C21   A    
C17   C18   A    
C3    C15   S    
C13   F4    S    
C11   N2    A    
C16   O8    A    
C18   H6    S    
C24   C25   A    
C9    F3    S    
Cu2   O4    S    
C26   C27   A    
C20   H11   S    
C7    C26   S    
Cu1   O3    S    
C28   F7    S    
C8    C11   A    
Cu2   O8    S    
Cu2   N1    S    
Cu1   O7    S    
C2    C3    A    
Cu1   N2    S    
C7    H4    S    
C2    H8    S    
C5    C6    S    
C1    O2    A    
C6    H3    S    
C8    N1    A    
Cu1   Cu2   S    
C5    C26   A    
C6    F1    S    
C12   C22   A    
C11   C13   S    
C24   H2    S    
C9    N1    A    
C19   H7    S    
C18   C19   A    
Cu1   O1    S    
C27   C28   A    
C1    C27   S    
C4    C22   S    
C21   C25   A    
C13   H9    S    
C8    C14   S    
C7    F2    S    
Cu1   O5    S    
C4    O4    A    
C22   C23   A    
C14   H10   S    
Cu2   O6    S    
C12   C21   A    
C14   F5    S    
C15   O5    A    
Cu2   O2    S    
C3    C5    A    
C10   N2    A    
