data_mof_unit_66160.cif
_audit_creation_date              2013-03-05T16:37:04-0500
_audit_creation_method            fapswitch 2.2
_symmetry_space_group_name_H-M    P1
_symmetry_Int_Tables_number       1
_space_group_crystal_system       orthorhombic
_cell_length_a                    36.236553
_cell_length_b                    25.690609
_cell_length_c                    25.676773
_cell_angle_alpha                 90.0
_cell_angle_beta                  90.0
_cell_angle_gamma                 90.0
_cell_volume                      23903.5123232

loop_
_atom_site_label
_atom_site_type_symbol
_atom_site_description
_atom_site_fract_x
_atom_site_fract_y
_atom_site_fract_z
_atom_type_partial_charge
Zn1   Zn    Zn3+2 0.719300 0.249980 0.438970 0.975307
Zn2   Zn    Zn3+2 0.280700 0.249980 0.438970 0.975307
Zn3   Zn    Zn3+2 0.280700 0.249980 0.561030 0.975307
Zn4   Zn    Zn3+2 0.719300 0.249980 0.561030 0.975307
Zn5   Zn    Zn3+2 0.219300 0.749980 0.938970 0.975306
Zn6   Zn    Zn3+2 0.780700 0.749980 0.938970 0.975306
Zn7   Zn    Zn3+2 0.780700 0.749980 0.061030 0.975306
Zn8   Zn    Zn3+2 0.219300 0.749980 0.061030 0.975306
Zn9   Zn    Zn3+2 0.780720 0.311020 0.500000 0.977366
Zn10  Zn    Zn3+2 0.219280 0.311020 0.500000 0.977366
Zn11  Zn    Zn3+2 0.280720 0.811020 0.000000 0.977367
Zn12  Zn    Zn3+2 0.719280 0.811020 0.000000 0.977367
Zn13  Zn    Zn3+2 0.780730 0.188950 0.500000 0.977341
Zn14  Zn    Zn3+2 0.219270 0.188950 0.500000 0.977342
Zn15  Zn    Zn3+2 0.280730 0.688950 0.000000 0.977342
Zn16  Zn    Zn3+2 0.719270 0.688950 0.000000 0.977343
O1    O     O_3   0.750020 0.249980 0.500000 -0.479273
O2    O     O_3   0.249980 0.249980 0.500000 -0.479273
O3    O     O_3   0.250020 0.749980 0.000000 -0.479274
O4    O     O_3   0.749980 0.749980 0.000000 -0.479274
O5    O     O_R   0.728520 0.310110 0.602800 -0.637054
O6    O     O_R   0.271480 0.310110 0.602800 -0.637053
O7    O     O_R   0.271480 0.310110 0.397200 -0.637051
O8    O     O_R   0.728520 0.310110 0.397200 -0.637051
O9    O     O_R   0.228520 0.810110 0.102800 -0.637048
O10   O     O_R   0.771480 0.810110 0.102800 -0.637048
O11   O     O_R   0.771480 0.810110 0.897200 -0.637057
O12   O     O_R   0.228520 0.810110 0.897200 -0.637057
O13   O     O_R   0.728520 0.189860 0.397190 -0.637061
O14   O     O_R   0.271480 0.189860 0.397190 -0.637061
O15   O     O_R   0.271480 0.189860 0.602810 -0.637059
O16   O     O_R   0.728520 0.189860 0.602810 -0.637059
O17   O     O_R   0.228520 0.689860 0.897190 -0.637057
O18   O     O_R   0.771480 0.689860 0.897190 -0.637057
O19   O     O_R   0.771480 0.689860 0.102810 -0.637065
O20   O     O_R   0.228520 0.689860 0.102810 -0.637065
O21   O     O_R   0.771490 0.352810 0.439870 -0.636472
O22   O     O_R   0.228510 0.352810 0.439870 -0.636472
O23   O     O_R   0.228510 0.352810 0.560130 -0.636471
O24   O     O_R   0.771490 0.352810 0.560130 -0.636472
O25   O     O_R   0.271490 0.852810 0.939870 -0.636456
O26   O     O_R   0.728510 0.852810 0.939870 -0.636456
O27   O     O_R   0.728510 0.852810 0.060130 -0.636487
O28   O     O_R   0.271490 0.852810 0.060130 -0.636487
O29   O     O_R   0.771530 0.147160 0.560090 -0.636300
O30   O     O_R   0.228470 0.147160 0.560090 -0.636299
O31   O     O_R   0.228470 0.147160 0.439910 -0.636298
O32   O     O_R   0.771530 0.147160 0.439910 -0.636298
O33   O     O_R   0.271530 0.647160 0.060090 -0.636283
O34   O     O_R   0.728470 0.647160 0.060090 -0.636283
O35   O     O_R   0.728470 0.647160 0.939910 -0.636314
O36   O     O_R   0.271530 0.647160 0.939910 -0.636314
O37   O     O_R   0.832000 0.292700 0.500000 -0.637699
O38   O     O_R   0.168000 0.292700 0.500000 -0.637698
O39   O     O_R   0.332000 0.792700 0.000000 -0.637698
O40   O     O_R   0.668000 0.792700 0.000000 -0.637697
O41   O     O_R   0.668030 0.249990 0.542720 -0.637630
O42   O     O_R   0.331970 0.249990 0.542720 -0.637630
O43   O     O_R   0.331970 0.249990 0.457280 -0.637630
O44   O     O_R   0.668030 0.249990 0.457280 -0.637630
O45   O     O_R   0.168030 0.749990 0.042720 -0.637630
O46   O     O_R   0.831970 0.749990 0.042720 -0.637630
O47   O     O_R   0.831970 0.749990 0.957280 -0.637630
O48   O     O_R   0.168030 0.749990 0.957280 -0.637630
O49   O     O_R   0.832010 0.207260 0.500000 -0.637544
O50   O     O_R   0.167990 0.207260 0.500000 -0.637544
O51   O     O_R   0.332010 0.707260 0.000000 -0.637543
O52   O     O_R   0.667990 0.707260 0.000000 -0.637543
C1    C     C_R   0.749996 0.349070 0.599085 0.826193
C2    C     C_R   0.250004 0.349070 0.599085 0.826194
C3    C     C_R   0.250004 0.349070 0.400915 0.826194
C4    C     C_R   0.749996 0.349070 0.400915 0.826194
C5    C     C_R   0.249996 0.849070 0.099085 0.826187
C6    C     C_R   0.750004 0.849070 0.099085 0.826187
C7    C     C_R   0.750004 0.849070 0.900914 0.826200
C8    C     C_R   0.249996 0.849070 0.900914 0.826200
C9    C     C_R   0.750022 0.150905 0.400941 0.825712
C10   C     C_R   0.249978 0.150905 0.400941 0.825712
C11   C     C_R   0.249978 0.150905 0.599059 0.825713
C12   C     C_R   0.750022 0.150905 0.599059 0.825713
C13   C     C_R   0.250022 0.650905 0.900941 0.825706
C14   C     C_R   0.749978 0.650905 0.900941 0.825706
C15   C     C_R   0.749978 0.650905 0.099058 0.825719
C16   C     C_R   0.250022 0.650905 0.099058 0.825719
C17   C     C_R   0.849542 0.249984 0.500000 0.829844
C18   C     C_R   0.150457 0.249984 0.500000 0.829844
C19   C     C_R   0.349542 0.749984 0.000000 0.829842
C20   C     C_R   0.650458 0.749984 0.000000 0.829841
C21   C     C_R   0.650296 0.249993 0.500000 0.827295
C22   C     C_R   0.349704 0.249993 0.500000 0.827295
C23   C     C_R   0.150296 0.749993 0.000000 0.827295
C24   C     C_R   0.849703 0.749993 0.000000 0.827295
C25   C     C_3   0.521433 0.221755 0.548955 -0.387677
C26   C     C_3   0.478567 0.221754 0.548955 -0.387678
C27   C     C_3   0.478567 0.221754 0.451046 -0.387682
C28   C     C_3   0.521433 0.221754 0.451046 -0.387682
C29   C     C_3   0.021433 0.721754 0.048954 -0.387680
C30   C     C_3   0.978567 0.721754 0.048954 -0.387681
C31   C     C_3   0.978567 0.721754 0.951046 -0.387679
C32   C     C_3   0.021433 0.721754 0.951046 -0.387679
H1    H     H_    0.468324 0.180922 0.549878 0.167502
H2    H     H_    0.531676 0.180922 0.549878 0.167502
H3    H     H_    0.531676 0.180921 0.450124 0.167495
H4    H     H_    0.468324 0.180921 0.450124 0.167495
H5    H     H_    0.968324 0.680922 0.049877 0.167499
H6    H     H_    0.031676 0.680922 0.049877 0.167499
H7    H     H_    0.031676 0.680921 0.950124 0.167498
H8    H     H_    0.968324 0.680921 0.950124 0.167498
H9    H     H_    0.531676 0.241372 0.415204 0.169487
H10   H     H_    0.468324 0.241372 0.415204 0.169487
H11   H     H_    0.468324 0.241373 0.584797 0.169486
H12   H     H_    0.531676 0.241373 0.584797 0.169486
H13   H     H_    0.031676 0.741372 0.915203 0.169486
H14   H     H_    0.968324 0.741372 0.915203 0.169486
H15   H     H_    0.968324 0.741373 0.084796 0.169487
H16   H     H_    0.031676 0.741373 0.084797 0.169486
C33   C     C_1   0.389399 0.249999 0.500000 -0.142379
C34   C     C_1   0.610601 0.249999 0.500000 -0.142379
C35   C     C_1   0.889399 0.749999 0.000000 -0.142379
C36   C     C_1   0.110601 0.749999 0.000000 -0.142379
C37   C     C_3   0.536498 0.250002 0.500000 0.345017
C38   C     C_3   0.463501 0.250002 0.500000 0.345017
C39   C     C_3   0.036498 0.750002 0.000000 0.345018
C40   C     C_3   0.963501 0.750002 0.000000 0.345017
C41   C     C_3   0.478567 0.306499 0.499999 -0.388731
C42   C     C_3   0.521433 0.306499 0.499999 -0.388730
C43   C     C_3   0.978567 0.806499 0.999999 -0.388731
C44   C     C_3   0.021433 0.806499 0.999999 -0.388731
C45   C     C_1   0.422737 0.250001 0.500000 -0.125636
C46   C     C_1   0.577263 0.250001 0.500000 -0.125636
C47   C     C_1   0.922737 0.750001 0.000000 -0.125636
C48   C     C_1   0.077263 0.750001 0.000000 -0.125636
H17   H     H_    0.531676 0.327714 0.534919 0.167872
H18   H     H_    0.468324 0.327714 0.534919 0.167872
H19   H     H_    0.468324 0.327713 0.465079 0.167880
H20   H     H_    0.531676 0.327713 0.465079 0.167880
H21   H     H_    0.031676 0.827714 0.034919 0.167876
H22   H     H_    0.968324 0.827714 0.034919 0.167876
H23   H     H_    0.968324 0.827713 0.965079 0.167877
H24   H     H_    0.031676 0.827713 0.965079 0.167877
H25   H     H_    0.704833 0.072490 0.245317 0.141637
H26   H     H_    0.295167 0.072490 0.245318 0.141637
H27   H     H_    0.295147 0.072513 0.754705 0.141649
H28   H     H_    0.704853 0.072513 0.754706 0.141649
H29   H     H_    0.204833 0.572490 0.745318 0.141642
H30   H     H_    0.795167 0.572490 0.745318 0.141642
H31   H     H_    0.795148 0.572512 0.254705 0.141643
H32   H     H_    0.204852 0.572512 0.254705 0.141643
C49   C     C_R   0.224610 0.502420 0.709038 -0.180555
C50   C     C_R   0.775390 0.502420 0.709038 -0.180554
C51   C     C_R   0.775379 0.502433 0.290975 -0.180552
C52   C     C_R   0.224621 0.502433 0.290975 -0.180551
C53   C     C_R   0.724610 0.002420 0.209038 -0.180572
C54   C     C_R   0.275390 0.002420 0.209038 -0.180572
C55   C     C_R   0.275379 0.002433 0.790975 -0.180534
C56   C     C_R   0.724622 0.002433 0.790975 -0.180534
H33   H     H_    0.204838 0.504626 0.677463 0.141959
H34   H     H_    0.795162 0.504626 0.677463 0.141959
H35   H     H_    0.795143 0.504648 0.322560 0.141960
H36   H     H_    0.204857 0.504649 0.322560 0.141960
H37   H     H_    0.704838 0.004626 0.177463 0.141945
H38   H     H_    0.295162 0.004626 0.177463 0.141945
H39   H     H_    0.295142 0.004649 0.822560 0.141975
H40   H     H_    0.704858 0.004649 0.822560 0.141975
C57   C     C_R   0.250027 0.461383 0.711426 0.163283
C58   C     C_R   0.749973 0.461383 0.711426 0.163282
C59   C     C_R   0.749973 0.461383 0.288574 0.163275
C60   C     C_R   0.250027 0.461383 0.288574 0.163275
C61   C     C_R   0.750027 0.961383 0.211426 0.163285
C62   C     C_R   0.249973 0.961383 0.211426 0.163285
C63   C     C_R   0.249973 0.961383 0.788574 0.163272
C64   C     C_R   0.750027 0.961383 0.788574 0.163272
C65   C     C_R   0.275441 0.459027 0.752490 -0.181204
C66   C     C_R   0.724559 0.459028 0.752490 -0.181204
C67   C     C_R   0.724570 0.459014 0.247497 -0.181193
C68   C     C_R   0.275430 0.459014 0.247497 -0.181191
C69   C     C_R   0.775441 0.959027 0.252490 -0.181198
C70   C     C_R   0.224559 0.959027 0.252490 -0.181198
C71   C     C_R   0.224570 0.959015 0.747498 -0.181200
C72   C     C_R   0.775430 0.959015 0.747497 -0.181198
H41   H     H_    0.295215 0.427473 0.754721 0.141622
H42   H     H_    0.704785 0.427473 0.754720 0.141622
H43   H     H_    0.704804 0.427450 0.245256 0.141634
H44   H     H_    0.295195 0.427450 0.245256 0.141634
H45   H     H_    0.795215 0.927473 0.254721 0.141627
H46   H     H_    0.204785 0.927473 0.254720 0.141627
H47   H     H_    0.204804 0.927451 0.745257 0.141629
H48   H     H_    0.795196 0.927450 0.745256 0.141628
C73   C     C_R   0.775438 0.997543 0.291000 -0.180559
C74   C     C_R   0.224562 0.997543 0.291000 -0.180558
C75   C     C_R   0.224573 0.997531 0.708987 -0.180553
C76   C     C_R   0.775427 0.997530 0.708987 -0.180555
C77   C     C_R   0.275438 0.497543 0.791000 -0.180575
C78   C     C_R   0.724562 0.497543 0.791000 -0.180575
C79   C     C_R   0.724573 0.497530 0.208987 -0.180538
C80   C     C_R   0.275427 0.497530 0.208987 -0.180538
H49   H     H_    0.795210 0.995337 0.322576 0.141956
H50   H     H_    0.204789 0.995338 0.322575 0.141956
H51   H     H_    0.204809 0.995315 0.677402 0.141956
H52   H     H_    0.795191 0.995315 0.677401 0.141956
H53   H     H_    0.295210 0.495338 0.822576 0.141942
H54   H     H_    0.704789 0.495338 0.822575 0.141942
H55   H     H_    0.704809 0.495315 0.177401 0.141971
H56   H     H_    0.295190 0.495314 0.177401 0.141971
C81   C     C_R   0.750021 0.038580 0.288612 0.163263
C82   C     C_R   0.249979 0.038580 0.288612 0.163263
C83   C     C_R   0.249978 0.038581 0.711387 0.163255
C84   C     C_R   0.750022 0.038581 0.711387 0.163255
C85   C     C_R   0.250021 0.538580 0.788613 0.163265
C86   C     C_R   0.749979 0.538580 0.788613 0.163265
C87   C     C_R   0.749979 0.538580 0.211387 0.163253
C88   C     C_R   0.250021 0.538580 0.211387 0.163253
C89   C     C_R   0.724607 0.040936 0.247548 -0.181194
C90   C     C_R   0.275393 0.040936 0.247548 -0.181194
C91   C     C_R   0.275381 0.040949 0.752465 -0.181183
C92   C     C_R   0.724619 0.040949 0.752465 -0.181182
C93   C     C_R   0.224607 0.540936 0.747548 -0.181187
C94   C     C_R   0.775393 0.540936 0.747548 -0.181188
C95   C     C_R   0.775382 0.540948 0.252464 -0.181190
C96   C     C_R   0.224618 0.540949 0.252464 -0.181190
C97   C     C_1   0.250028 0.421749 0.671796 -0.077350
C98   C     C_1   0.749972 0.421749 0.671796 -0.077350
C99   C     C_1   0.749973 0.421749 0.328203 -0.077343
C100  C     C_1   0.250027 0.421749 0.328203 -0.077343
C101  C     C_1   0.750028 0.921749 0.171796 -0.077359
C102  C     C_1   0.249972 0.921749 0.171796 -0.077359
C103  C     C_1   0.249972 0.921750 0.828204 -0.077334
C104  C     C_1   0.750028 0.921750 0.828204 -0.077334
C105  C     C_1   0.750018 0.078214 0.328242 -0.077350
C106  C     C_1   0.249982 0.078214 0.328242 -0.077350
C107  C     C_1   0.249982 0.078214 0.671758 -0.077343
C108  C     C_1   0.750018 0.078214 0.671758 -0.077343
C109  C     C_1   0.250018 0.578214 0.828241 -0.077359
C110  C     C_1   0.749982 0.578214 0.828241 -0.077359
C111  C     C_1   0.749982 0.578214 0.171758 -0.077334
C112  C     C_1   0.250018 0.578214 0.171758 -0.077334
C113  C     C_1   0.750018 0.111409 0.361437 -0.141221
C114  C     C_1   0.249982 0.111409 0.361437 -0.141221
C115  C     C_1   0.249982 0.111409 0.638563 -0.141217
C116  C     C_1   0.750018 0.111409 0.638563 -0.141217
C117  C     C_1   0.250018 0.611409 0.861437 -0.141233
C118  C     C_1   0.749982 0.611409 0.861437 -0.141233
C119  C     C_1   0.749982 0.611409 0.138563 -0.141205
C120  C     C_1   0.250018 0.611409 0.138563 -0.141205
C121  C     C_1   0.250022 0.388558 0.638598 -0.141382
C122  C     C_1   0.749978 0.388558 0.638598 -0.141382
C123  C     C_1   0.749978 0.388558 0.361402 -0.141378
C124  C     C_1   0.250021 0.388558 0.361402 -0.141378
C125  C     C_1   0.750022 0.888558 0.138598 -0.141394
C126  C     C_1   0.249978 0.888558 0.138598 -0.141394
C127  C     C_1   0.249978 0.888558 0.861402 -0.141366
C128  C     C_1   0.750022 0.888558 0.861402 -0.141366
C129  C     C_R   0.019256 0.297244 0.499988 -0.181400
C130  C     C_R   0.980744 0.297244 0.499988 -0.181400
C131  C     C_R   0.519256 0.797212 0.001743 -0.181399
C132  C     C_R   0.480744 0.797212 0.001743 -0.181399
C133  C     C_R   0.038496 0.249998 0.500000 0.165037
C134  C     C_R   0.961504 0.249998 0.500000 0.165037
C135  C     C_R   0.538496 0.749998 1.000000 0.165040
C136  C     C_R   0.461504 0.749998 1.000000 0.165040
C137  C     C_R   0.019256 0.202752 0.500012 -0.181402
C138  C     C_R   0.980744 0.202752 0.500012 -0.181402
C139  C     C_R   0.519256 0.702784 0.998256 -0.181400
C140  C     C_R   0.480744 0.702784 0.998256 -0.181400
H57   H     H_    0.033999 0.166057 0.500021 0.142272
H58   H     H_    0.966001 0.166057 0.500021 0.142272
H59   H     H_    0.533999 0.666114 0.996903 0.142267
H60   H     H_    0.466001 0.666114 0.996903 0.142267
C141  C     C_1   0.077981 0.249996 0.500000 -0.079081
C142  C     C_1   0.922019 0.249996 0.500000 -0.079081
C143  C     C_1   0.577981 0.749996 1.000000 -0.079080
C144  C     C_1   0.422019 0.749996 1.000000 -0.079080
C145  C     C_1   0.888890 0.249992 0.500000 -0.138934
C146  C     C_1   0.111110 0.249992 0.500000 -0.138935
C147  C     C_1   0.388890 0.749992 1.000000 -0.138934
C148  C     C_1   0.611110 0.749992 1.000000 -0.138934
H61   H     H_    0.966001 0.333938 0.499979 0.142271
H62   H     H_    0.033999 0.333938 0.499979 0.142271
H63   H     H_    0.466001 0.833881 0.003097 0.142267
H64   H     H_    0.533999 0.833881 0.003097 0.142267

loop_
_geom_bond_atom_site_label_1
_geom_bond_atom_site_label_2
_geom_bond_distance
_ccdc_geom_bond_type
C41   H18   1.113008 S    
Zn6   O47   1.916412 S    
C52   H36   1.083454 S    
C136  C144  1.430815 S    
C25   C26   1.553298 S    
C80   C88   1.401258 A    
C39   C48   1.477165 S    
Zn2   O2    1.922199 S    
O13   C9    1.271978 A    
C64   C104  1.439499 S    
Zn14  O2    1.922676 S    
C132  H63   1.083552 S    
C81   C105  1.439497 S    
C61   C69   1.401250 A    
Zn16  O35   1.909028 S    
C11   C115  1.434735 S    
C37   C46   1.477165 S    
C54   C90   1.398874 A    
O46   C24   1.271277 A    
C58   C98   1.439497 S    
C31   H14   1.113010 S    
C53   C89   1.398874 A    
C29   C30   1.553298 S    
C30   H15   1.113008 S    
C57   C97   1.439497 S    
C139  C140  1.395539 A    
Zn14  O30   1.909026 S    
Zn13  O49   1.916828 S    
O44   C21   1.271279 A    
Zn15  O33   1.909026 S    
C30   C40   1.550715 S    
C31   H8    1.113009 S    
Zn11  O3    1.922674 S    
O26   C7    1.271373 A    
Zn7   O10   1.910038 S    
O41   C21   1.271277 A    
C141  C146  1.200477 T    
C62   C70   1.401250 A    
C133  C137  1.399762 A    
C84   C92   1.401248 A    
C18   C146  1.425807 S    
C4    C123  1.434737 S    
H27   C91   1.083453 S    
Zn16  O4    1.922676 S    
C24   C35   1.438439 S    
C25   C37   1.550714 S    
Zn12  O27   1.910046 S    
C135  C139  1.399762 A    
C17   C145  1.425807 S    
C129  C130  1.395546 A    
C70   C74   1.398882 A    
C130  H61   1.083549 S    
O40   C20   1.268220 A    
C71   H47   1.083452 S    
C130  C134  1.399764 A    
C69   H45   1.083453 S    
C73   H49   1.083452 S    
O16   C12   1.271980 A    
C50   C58   1.401253 A    
C15   C119  1.434737 S    
C26   H11   1.113011 S    
C77   H53   1.083452 S    
O14   C10   1.271978 A    
C54   C62   1.401255 A    
Zn3   O2    1.922197 S    
C107  C115  1.205722 T    
Zn8   O20   1.909975 S    
C13   C117  1.434737 S    
C109  C117  1.205722 T    
Zn12  O26   1.910048 S    
C72   H48   1.083456 S    
C52   C60   1.401253 A    
C134  C142  1.430815 S    
C132  C136  1.399765 A    
C100  C124  1.205722 T    
O30   C11   1.271949 A    
C31   C32   1.553298 S    
C26   H1    1.113007 S    
C73   C81   1.401258 A    
C66   H42   1.083454 S    
O39   C19   1.268218 A    
C71   C75   1.398883 A    
Zn5   O17   1.909975 S    
O47   C24   1.271279 A    
C56   C92   1.398874 A    
C35   C47   1.208040 T    
C83   C107  1.439499 S    
Zn16  O52   1.916828 S    
C43   H22   1.113008 S    
C80   H56   1.083453 S    
H28   C92   1.083455 S    
C33   C45   1.208040 T    
C139  H59   1.083552 S    
C38   C45   1.477165 S    
C74   H50   1.083454 S    
C136  C140  1.399762 A    
Zn8   O45   1.916412 S    
C64   C72   1.401249 A    
O27   C6    1.271371 A    
C86   C110  1.439497 S    
C133  C141  1.430815 S    
C81   C89   1.401249 A    
C10   C114  1.434737 S    
C65   H41   1.083451 S    
C9    C113  1.434737 S    
Zn8   O9    1.910038 S    
C76   C84   1.401258 A    
C142  C145  1.200477 T    
C63   C71   1.401252 A    
C134  C138  1.399762 A    
C19   C147  1.425807 S    
C3    C124  1.434737 S    
C60   C100  1.439499 S    
O11   C7    1.271414 A    
O15   C11   1.271978 A    
C83   C91   1.401251 A    
C82   C106  1.439497 S    
C88   C112  1.439499 S    
C111  C119  1.205722 T    
C74   C82   1.401261 A    
O34   C15   1.271949 A    
O48   C23   1.271279 A    
Zn14  O50   1.916828 S    
C143  C148  1.200477 T    
Zn10  O2    1.922674 S    
C131  C135  1.399765 A    
C58   C66   1.401252 A    
Zn8   O3    1.922197 S    
C69   C73   1.398885 A    
O24   C1    1.271371 A    
H26   C90   1.083455 S    
C22   C33   1.438439 S    
O7    C3    1.271416 A    
C51   C95   1.398874 A    
C49   C57   1.401255 A    
C42   H17   1.113008 S    
Zn4   O1    1.922197 S    
C72   C76   1.398883 A    
Zn1   O44   1.916412 S    
H25   C89   1.083454 S    
O38   C18   1.268220 A    
O19   C15   1.271978 A    
Zn2   O43   1.916412 S    
C75   C83   1.401256 A    
C88   C96   1.401246 A    
C55   H39   1.083453 S    
C2    C121  1.434737 S    
O17   C13   1.271978 A    
C56   C64   1.401255 A    
Zn9   O24   1.910046 S    
Zn6   O18   1.909975 S    
C40   C47   1.477165 S    
O5    C1    1.271416 A    
Zn10  O23   1.910046 S    
O43   C22   1.271279 A    
C70   H46   1.083454 S    
O32   C9    1.271949 A    
Zn4   O41   1.916412 S    
Zn15  O3    1.922676 S    
C44   H21   1.113008 S    
Zn7   O46   1.916412 S    
C137  H57   1.083549 S    
C34   C46   1.208040 T    
C67   C79   1.398883 A    
C55   C63   1.401255 A    
C131  C132  1.395546 A    
C78   C86   1.401258 A    
Zn5   O12   1.910038 S    
O42   C22   1.271277 A    
C79   C87   1.401258 A    
C43   H23   1.113008 S    
C77   C85   1.401258 A    
Zn6   O11   1.910038 S    
C140  H60   1.083552 S    
Zn15  O51   1.916828 S    
C68   H44   1.083456 S    
Zn12  O4    1.922674 S    
Zn9   O21   1.910048 S    
C50   C94   1.398876 A    
Zn5   O48   1.916412 S    
H29   C93   1.083455 S    
Zn11  O28   1.910046 S    
C16   C120  1.434737 S    
C38   C41   1.550711 S    
C49   C93   1.398876 A    
Zn15  O36   1.909028 S    
C68   C80   1.398883 A    
C29   H16   1.113010 S    
Zn3   O15   1.909975 S    
C30   H5    1.113007 S    
H32   C96   1.083454 S    
O35   C14   1.271949 A    
C59   C99   1.439499 S    
Zn12  O40   1.916887 S    
C110  C118  1.205722 T    
C40   C43   1.550711 S    
C60   C68   1.401249 A    
C29   H6    1.113007 S    
C28   C37   1.550715 S    
C27   C38   1.550715 S    
Zn9   O1    1.922674 S    
C84   C108  1.439499 S    
C66   C78   1.398882 A    
C62   C102  1.439497 S    
C65   C77   1.398885 A    
C41   C42   1.553298 S    
O52   C20   1.268212 A    
C61   C101  1.439497 S    
C106  C114  1.205722 T    
Zn9   O37   1.916891 S    
Zn2   O14   1.909975 S    
Zn1   O13   1.909975 S    
C105  C113  1.205722 T    
C43   C44   1.553298 S    
O12   C8    1.271414 A    
C26   C38   1.550715 S    
C55   C91   1.398874 A    
C6    C125  1.434739 S    
Zn11  O39   1.916891 S    
C27   H4    1.113009 S    
O8    C4    1.271416 A    
C59   C67   1.401249 A    
C5    C126  1.434737 S    
O33   C16   1.271949 A    
C102  C126  1.205723 T    
O22   C3    1.271371 A    
C32   H7    1.113009 S    
C101  C125  1.205722 T    
O6    C2    1.271416 A    
C50   H34   1.083456 S    
C36   C48   1.208040 T    
C67   H43   1.083453 S    
Zn7   O19   1.909975 S    
C54   H38   1.083453 S    
C32   H13   1.113010 S    
Zn16  O34   1.909026 S    
C27   H10   1.113010 S    
C25   H2    1.113010 S    
O50   C18   1.268212 A    
Zn13  O32   1.909028 S    
O49   C17   1.268212 A    
Zn14  O31   1.909028 S    
Zn5   O3    1.922199 S    
C135  C143  1.430815 S    
C131  H64   1.083552 S    
C87   C95   1.401246 A    
C28   H9    1.113009 S    
C63   C103  1.439499 S    
Zn1   O1    1.922199 S    
C86   C94   1.401247 A    
O36   C13   1.271949 A    
Zn13  O1    1.922676 S    
Zn10  O22   1.910048 S    
C32   C39   1.550715 S    
C99   C123  1.205722 T    
C12   C116  1.434735 S    
C41   H19   1.113010 S    
C138  H58   1.083549 S    
C44   H24   1.113008 S    
C85   C93   1.401247 A    
C37   C42   1.550711 S    
C29   C39   1.550715 S    
O25   C8    1.271373 A    
Zn13  O29   1.909026 S    
Zn4   O5    1.910038 S    
C98   C122  1.205722 T    
C82   C90   1.401246 A    
C39   C44   1.550711 S    
C137  C138  1.395539 A    
C97   C121  1.205722 T    
Zn6   O4    1.922199 S    
O20   C16   1.271978 A    
C144  C147  1.200477 T    
C51   C59   1.401258 A    
C103  C127  1.205720 T    
C52   C96   1.398876 A    
C7    C128  1.434739 S    
C75   H51   1.083456 S    
O23   C2    1.271371 A    
C87   C111  1.439499 S    
Zn11  O25   1.910048 S    
O29   C12   1.271947 A    
O9    C5    1.271416 A    
C76   H52   1.083453 S    
C20   C148  1.425807 S    
O28   C5    1.271371 A    
Zn10  O38   1.916887 S    
C85   C109  1.439497 S    
C112  C120  1.205722 T    
H31   C95   1.083453 S    
C129  H62   1.083549 S    
C8    C127  1.434739 S    
C25   H12   1.113010 S    
C42   H20   1.113010 S    
Zn4   O16   1.909975 S    
H30   C94   1.083455 S    
Zn3   O42   1.916412 S    
C129  C133  1.399764 A    
C1    C122  1.434737 S    
C79   H55   1.083454 S    
C21   C34   1.438439 S    
C56   H40   1.083454 S    
Zn1   O8    1.910038 S    
O10   C6    1.271416 A    
Zn7   O4    1.922197 S    
O21   C4    1.271371 A    
C53   C61   1.401255 A    
Zn2   O7    1.910038 S    
C108  C116  1.205722 T    
C23   C36   1.438439 S    
Zn3   O6    1.910038 S    
O37   C17   1.268218 A    
O18   C14   1.271978 A    
O31   C10   1.271949 A    
C28   H3    1.113009 S    
C57   C65   1.401252 A    
C49   H33   1.083453 S    
C14   C118  1.434737 S    
C53   H37   1.083453 S    
C27   C28   1.553298 S    
O45   C23   1.271277 A    
O51   C19   1.268212 A    
C51   H35   1.083452 S    
C31   C40   1.550715 S    
C104  C128  1.205720 T    
C78   H54   1.083454 S    
