data_mof_unit_25438.cif
_audit_creation_date              2012-12-10T16:49:25-0500
_audit_creation_method            fapswitch 2.2
_symmetry_space_group_name_H-M    P1
_symmetry_Int_Tables_number       1
_space_group_crystal_system       triclinic
_cell_length_a                    19.28008
_cell_length_b                    8.680055
_cell_length_c                    7.483406
_cell_angle_alpha                 103.32648
_cell_angle_beta                  94.608288
_cell_angle_gamma                 92.953625
_cell_volume                      1211.52968916

loop_
_atom_site_label
_atom_site_type_symbol
_atom_type_description
_atom_site_fract_x
_atom_site_fract_y
_atom_site_fract_z
_atom_type_partial_charge
C1    C     C_R   0.497870 0.199645 0.452943 0.851610
C2    C     C_R   0.502130 0.800355 0.547056 0.851609
C3    C     C_2   0.496943 0.031378 0.426868 -0.330535
C4    C     C_2   0.503057 0.968622 0.573131 -0.330525
C5    C     C_R   0.367758 0.499105 0.501686 0.796751
C6    C     C_R   0.632242 0.500896 0.498314 0.796751
C7    C     C_R   0.262475 0.621700 0.626499 -0.117231
C8    C     C_R   0.737526 0.378319 0.373479 -0.117235
C9    C     C_R   0.190034 0.629126 0.621212 0.338651
C10   C     C_R   0.809967 0.370892 0.378769 0.338647
C11   C     C_R   0.146198 0.509297 0.496067 -0.170011
C12   C     C_R   0.853802 0.490706 0.503938 -0.170014
C13   C     C_R   0.174897 0.385859 0.373731 0.405519
C14   C     C_R   0.825103 0.614127 0.626296 0.405522
C15   C     C_R   0.247877 0.377949 0.380038 0.315568
C16   C     C_R   0.752123 0.622038 0.619985 0.315571
C17   C     C_R   0.291729 0.498049 0.505111 -0.279964
C18   C     C_R   0.708272 0.501953 0.494891 -0.279971
C19   C     C_R   0.929908 0.493865 0.501765 0.457232
C20   C     C_R   0.070092 0.506137 0.498239 0.457234
Cu1   Cu    Cu3+1 0.507710 0.517380 0.684380 1.063436
Cu2   Cu    Cu3+1 0.492290 0.482620 0.315620 1.063436
H1    H     H_    0.491259 0.958894 0.286352 0.202051
H2    H     H_    0.508741 0.041106 0.713648 0.202053
N1    N     N_R   0.028268 0.488924 0.339255 -0.140312
N2    N     N_R   0.971733 0.511079 0.660749 -0.140301
N3    N     N_R   0.959292 0.483335 0.341055 -0.191159
N4    N     N_R   0.040709 0.516668 0.658949 -0.191162
N5    N     N_2   0.480680 0.456420 0.038530 0.141124
N6    N     N_2   0.519320 0.543580 0.961470 0.141124
O1    O     O_R   0.505010 0.286130 0.619770 -0.539106
O2    O     O_R   0.494990 0.713870 0.380230 -0.539108
O3    O     O_R   0.491990 0.256780 0.308370 -0.602690
O4    O     O_R   0.508010 0.743220 0.691630 -0.602691
O5    O     O_R   0.406650 0.514660 0.655750 -0.537065
O6    O     O_R   0.593350 0.485340 0.344250 -0.537068
O7    O     O_R   0.393640 0.485310 0.344340 -0.581517
O8    O     O_R   0.606360 0.514690 0.655660 -0.581517
C21   C     C_1   0.306518 0.748071 0.751484 0.415417
N7    N     N_1   0.341680 0.848986 0.851197 -0.256944
C22   C     C_1   0.693485 0.251963 0.248466 0.415434
N8    N     N_1   0.658324 0.151060 0.148728 -0.256941
O9    O     O_3   0.164207 0.756996 0.737362 -0.677346
H3    H     H_    0.116767 0.773327 0.687568 0.349103
O10   O     O_3   0.835793 0.243036 0.262596 -0.677349
H4    H     H_    0.883230 0.226683 0.312393 0.349106
O11   O     O_3   0.129764 0.270501 0.255632 -0.674133
H5    H     H_    0.156238 0.193553 0.173764 0.391614
O12   O     O_3   0.870235 0.729471 0.744421 -0.674130
H6    H     H_    0.843762 0.806407 0.826306 0.391613
O13   O     O_3   0.274255 0.250093 0.265357 -0.713582
H7    H     H_    0.320892 0.231779 0.318645 0.329821
O14   O     O_3   0.725745 0.749884 0.734687 -0.713584
H8    H     H_    0.679109 0.768209 0.681402 0.329824
O15   O     O_3   0.432813 0.355457 0.924750 -0.595184
H9    H     H_    0.408197 0.300206 0.005782 0.348869
O16   O     O_3   0.567187 0.644543 0.075249 -0.595186
H10   H     H_    0.591803 0.699793 0.994217 0.348867

loop_
_geom_bond_atom_site_label_1
_geom_bond_atom_site_label_2
_ccdc_geom_bond_type
C2    C4    S    
O15   H9    S    
C6    O8    A    
C15   C17   A    
N5    N6    D    
Cu1   O5    S    
Cu2   N5    S    
C15   O13   S    
N1    N3    A    
C11   C13   A    
Cu1   N6    S    
N2    N4    A    
O11   H5    S    
O9    H3    S    
C7    C9    A    
Cu1   O1    S    
C10   O10   S    
Cu2   O7    S    
C1    O3    A    
O14   H8    S    
C9    C11   A    
C2    O4    A    
O16   H10   S    
Cu2   O2    S    
Cu2   O3    S    
C4    H2    S    
C10   C12   A    
C12   C19   S    
C16   C18   A    
C19   N3    A    
C12   C14   A    
C5    O7    A    
C13   C15   A    
C6    C18   S    
C14   C16   A    
C11   C20   S    
C9    O9    S    
C14   O12   S    
C5    C17   S    
C20   N1    A    
C3    C4    D    
N6    O16   S    
C5    O5    A    
C1    O1    A    
Cu2   O6    S    
C8    C22   S    
C2    O2    A    
O12   H6    S    
C22   N8    T    
C21   N7    T    
C13   O11   S    
C19   N2    A    
C7    C21   S    
C16   O14   S    
Cu1   O4    S    
C20   N4    A    
C7    C17   A    
Cu1   Cu2   S    
O10   H4    S    
N5    O15   S    
C3    H1    S    
C8    C10   A    
C8    C18   A    
Cu1   O8    S    
O13   H7    S    
C6    O6    A    
C1    C3    S    
