data_mof_unit_42931.cif
_audit_creation_date              2012-12-11T15:44:49-0500
_audit_creation_method            fapswitch 2.2
_symmetry_space_group_name_H-M    P1
_symmetry_Int_Tables_number       1
_space_group_crystal_system       triclinic
_cell_length_a                    19.003886
_cell_length_b                    10.923465
_cell_length_c                    18.733387
_cell_angle_alpha                 89.695026
_cell_angle_beta                  90.200143
_cell_angle_gamma                 90.26381
_cell_volume                      3888.71194771

loop_
_atom_site_label
_atom_site_type_symbol
_atom_type_description
_atom_site_fract_x
_atom_site_fract_y
_atom_site_fract_z
_atom_type_partial_charge
C1    C     C_R   0.760739 0.535143 0.646858 0.535256
C2    C     C_R   0.240041 0.535584 0.353393 0.530170
C3    C     C_R   0.260739 0.035145 0.646858 0.535254
C4    C     C_R   0.740041 0.035582 0.353394 0.530169
C5    C     C_R   0.837537 0.114421 0.520008 -0.166783
C6    C     C_R   0.266164 0.038110 0.449511 -0.127911
C7    C     C_R   0.337537 0.614437 0.520004 -0.166791
C8    C     C_R   0.766187 0.538136 0.449510 -0.127912
C9    C     C_R   0.826253 0.088477 0.447929 -0.161829
C10   C     C_R   0.281239 0.009247 0.520323 -0.125666
C11   C     C_R   0.326255 0.588502 0.447923 -0.161839
C12   C     C_R   0.781262 0.509273 0.520323 -0.125671
C13   C     C_3   0.633774 0.159544 0.465255 -0.255966
C14   C     C_3   0.202551 0.299724 0.582162 -0.279733
C15   C     C_3   0.133765 0.659526 0.465256 -0.255960
C16   C     C_3   0.702485 0.799694 0.582167 -0.279724
C17   C     C_3   0.646695 0.184446 0.543914 -0.262590
C18   C     C_3   0.187957 0.332756 0.504894 -0.281084
C19   C     C_3   0.146684 0.684407 0.543919 -0.262587
C20   C     C_3   0.687883 0.832723 0.504899 -0.281084
C21   C     C_R   0.782932 0.161671 0.561540 -0.000330
C22   C     C_R   0.223397 0.138780 0.433928 0.032881
C23   C     C_R   0.282927 0.661663 0.561540 -0.000324
C24   C     C_R   0.723397 0.638778 0.433927 0.032875
C25   C     C_R   0.989746 0.329347 0.420939 -0.042002
C26   C     C_R   0.996359 0.347191 0.570979 -0.045121
C27   C     C_R   0.489751 0.829351 0.420942 -0.042015
C28   C     C_R   0.496364 0.847192 0.570982 -0.045137
C29   C     C_R   0.007235 0.105015 0.432430 -0.083776
C30   C     C_R   0.032054 0.130815 0.578002 -0.086325
C31   C     C_R   0.507240 0.605017 0.432433 -0.083775
C32   C     C_R   0.532057 0.630819 0.578005 -0.086321
C33   C     C_R   0.025382 0.003435 0.473718 -0.131338
C34   C     C_R   0.039167 0.016905 0.546098 -0.120409
C35   C     C_R   0.525385 0.503438 0.473722 -0.131338
C36   C     C_R   0.539170 0.516909 0.546102 -0.120404
C37   C     C_R   0.010006 0.233857 0.537914 -0.008042
C38   C     C_R   0.002417 0.222912 0.463015 0.007655
C39   C     C_R   0.510010 0.733860 0.537917 -0.008063
C40   C     C_R   0.502422 0.722915 0.463017 0.007640
C41   C     C_R   0.983233 0.453226 0.527300 0.004497
C42   C     C_R   0.968725 0.437724 0.454356 -0.000481
C43   C     C_R   0.483244 0.953229 0.527304 0.004501
C44   C     C_R   0.468734 0.937731 0.454360 -0.000478
C45   C     C_R   0.791829 0.172812 0.638912 0.564770
C46   C     C_R   0.208428 0.171062 0.361217 0.563821
C47   C     C_R   0.291827 0.672808 0.638911 0.564769
C48   C     C_R   0.708428 0.671061 0.361216 0.563821
C49   C     C_R   0.983555 0.575376 0.553384 -0.075658
C50   C     C_R   0.938912 0.535180 0.414588 -0.083771
C51   C     C_R   0.483572 0.075377 0.553390 -0.075654
C52   C     C_R   0.438925 0.035194 0.414594 -0.083744
C53   C     C_R   0.956895 0.672084 0.512780 -0.131959
C54   C     C_R   0.932175 0.651057 0.444176 -0.118092
C55   C     C_R   0.456915 0.172091 0.512787 -0.131961
C56   C     C_R   0.432195 0.151071 0.444184 -0.118093
C57   C     C_R   0.750030 0.087775 0.078005 0.013313
C58   C     C_R   0.244533 0.090230 0.920156 0.017112
C59   C     C_R   0.250030 0.587775 0.078005 0.013313
C60   C     C_R   0.744533 0.590230 0.920156 0.017112
C61   C     C_R   0.815805 0.083769 0.045204 0.017069
C62   C     C_R   0.183771 0.054729 0.957249 0.026658
C63   C     C_R   0.315805 0.583769 0.045204 0.017069
C64   C     C_R   0.683770 0.554729 0.957249 0.026657
C65   C     C_R   0.820552 0.089312 0.972162 0.046432
C66   C     C_R   0.181072 0.063071 0.030188 0.040207
C67   C     C_R   0.320552 0.589312 0.972162 0.046432
C68   C     C_R   0.681072 0.563071 0.030188 0.040207
C69   C     C_R   0.696184 0.123943 0.961390 -0.175050
C70   C     C_R   0.293772 0.162969 0.032199 -0.164346
C71   C     C_R   0.196184 0.623943 0.961390 -0.175050
C72   C     C_R   0.793772 0.662969 0.032199 -0.164346
C73   C     C_R   0.690816 0.118028 0.035828 -0.164474
C74   C     C_R   0.296340 0.156513 0.957390 -0.169239
C75   C     C_R   0.190816 0.618028 0.035828 -0.164474
C76   C     C_R   0.796340 0.656513 0.957390 -0.169239
C77   C     C_3   0.874433 0.992863 0.050206 -0.271546
C78   C     C_3   0.143485 0.936289 0.958407 -0.268661
C79   C     C_3   0.374433 0.492863 0.050206 -0.271546
C80   C     C_3   0.643485 0.436289 0.958407 -0.268661
C81   C     C_3   0.877402 0.995867 0.969600 -0.266125
C82   C     C_3   0.141679 0.945658 0.038832 -0.278471
C83   C     C_3   0.377402 0.495867 0.969600 -0.266125
C84   C     C_3   0.641679 0.445658 0.038832 -0.278471
C85   C     C_R   0.761086 0.101982 0.928779 0.019302
C86   C     C_R   0.237693 0.108175 0.069616 0.017498
C87   C     C_R   0.261086 0.601982 0.928779 0.019302
C88   C     C_R   0.737694 0.608175 0.069616 0.017498
C89   C     C_R   0.970924 0.347905 0.645869 0.520458
C90   C     C_R   0.026197 0.343946 0.351634 0.523625
C91   C     C_R   0.470926 0.847906 0.645871 0.520462
C92   C     C_R   0.526198 0.843946 0.351635 0.523621
C93   C     C_R   0.021368 0.341219 0.067911 0.021073
C94   C     C_R   0.010006 0.342819 0.919475 0.017166
C95   C     C_R   0.521368 0.841219 0.067911 0.021073
C96   C     C_R   0.510006 0.842819 0.919475 0.017167
C97   C     C_R   0.025838 0.450393 0.029811 0.033446
C98   C     C_R   0.020806 0.452072 0.957033 0.021415
C99   C     C_R   0.525838 0.950393 0.029811 0.033446
C100  C     C_R   0.520806 0.952072 0.957033 0.021415
C101  C     C_R   0.021106 0.231574 0.955296 -0.155947
C102  C     C_R   0.025782 0.230560 0.029948 -0.151844
C103  C     C_R   0.521105 0.731574 0.955296 -0.155947
C104  C     C_R   0.525782 0.730560 0.029948 -0.151844
C105  C     C_3   0.985016 0.565111 0.039235 -0.280467
C106  C     C_3   0.978877 0.568209 0.958973 -0.268939
C107  C     C_3   0.485016 0.065111 0.039235 -0.280467
C108  C     C_3   0.478877 0.068209 0.958973 -0.268938
C109  C     C_R   0.759791 0.533941 0.851639 0.544780
C110  C     C_R   0.239416 0.533076 0.147866 0.551660
C111  C     C_R   0.259791 0.033941 0.851639 0.544779
C112  C     C_R   0.739416 0.033076 0.147866 0.551661
C113  C     C_R   0.773088 0.127021 0.853813 0.551487
C114  C     C_R   0.226264 0.129577 0.145218 0.551908
C115  C     C_R   0.273088 0.627021 0.853813 0.551486
C116  C     C_R   0.726264 0.629577 0.145218 0.551908
C117  C     C_R   0.972086 0.347173 0.852348 0.548672
C118  C     C_R   0.033863 0.347020 0.143860 0.546398
C119  C     C_R   0.472086 0.847173 0.852348 0.548670
C120  C     C_R   0.533863 0.847020 0.143860 0.546399
C121  C     C_R   0.759521 0.107226 0.416512 0.003843
C122  C     C_R   0.252271 0.079265 0.575449 0.034337
C123  C     C_R   0.259519 0.607232 0.416510 0.003843
C124  C     C_R   0.752272 0.579267 0.575449 0.034322
C125  C     C_R   0.710882 0.176749 0.454499 0.012240
C126  C     C_R   0.202885 0.168882 0.559553 0.009896
C127  C     C_R   0.210873 0.676738 0.454502 0.012236
C128  C     C_R   0.702863 0.668847 0.559550 0.009918
C129  C     C_R   0.722371 0.202592 0.526029 0.025301
C130  C     C_R   0.189346 0.199383 0.489103 0.013446
C131  C     C_R   0.222360 0.702569 0.526033 0.025305
C132  C     C_R   0.689323 0.699346 0.489101 0.013475
Cr1   Cr    Cr6+3 0.885860 0.491680 0.749630 0.999452
Cr2   Cr    Cr6+3 0.114140 0.491680 0.250370 1.003663
Cr3   Cr    Cr6+3 0.385860 0.991680 0.749630 0.999452
Cr4   Cr    Cr6+3 0.614140 0.991680 0.250370 1.003663
Cr5   Cr    Cr6+3 0.730490 0.332970 0.748720 0.998533
Cr6   Cr    Cr6+3 0.269510 0.332970 0.251280 0.994954
Cr7   Cr    Cr6+3 0.230490 0.832970 0.748720 0.998535
Cr8   Cr    Cr6+3 0.769510 0.832970 0.251280 0.994953
Cr9   Cr    Cr6+3 0.887570 0.179310 0.750150 0.998850
Cr10  Cr    Cr6+3 0.112430 0.179310 0.249850 1.000450
Cr11  Cr    Cr6+3 0.387570 0.679310 0.750150 0.998850
Cr12  Cr    Cr6+3 0.612430 0.679310 0.249850 1.000450
H1    H     H_    0.886719 0.087713 0.544474 0.158017
H2    H     H_    0.288927 0.984239 0.407136 0.129251
H3    H     H_    0.386723 0.587742 0.544467 0.158018
H4    H     H_    0.788969 0.484287 0.407136 0.129248
H5    H     H_    0.955790 0.763587 0.534605 0.106980
H6    H     H_    0.910317 0.725455 0.412926 0.123515
H7    H     H_    0.455812 0.263592 0.534616 0.106978
H8    H     H_    0.410339 0.225472 0.412935 0.123502
H9    H     H_    0.649726 0.142525 0.929552 0.122422
H10   H     H_    0.336611 0.205718 0.060742 0.117245
H11   H     H_    0.149726 0.642525 0.929552 0.122423
H12   H     H_    0.836611 0.705718 0.060742 0.117245
H13   H     H_    0.639403 0.126540 0.059576 0.140732
H14   H     H_    0.341321 0.193925 0.929563 0.114148
H15   H     H_    0.139403 0.626540 0.059576 0.140732
H16   H     H_    0.841321 0.693925 0.929563 0.114148
H17   H     H_    0.858355 0.902451 0.071189 0.161674
H18   H     H_    0.175252 0.858189 0.939897 0.174214
H19   H     H_    0.358356 0.402451 0.071189 0.161674
H20   H     H_    0.675252 0.358189 0.939897 0.174214
H21   H     H_    0.927328 0.032645 0.948477 0.139259
H22   H     H_    0.087819 0.958094 0.060224 0.130283
H23   H     H_    0.427328 0.532645 0.948477 0.139259
H24   H     H_    0.587819 0.458094 0.060224 0.130283
H25   H     H_    0.859539 0.909310 0.944412 0.134627
H26   H     H_    0.173344 0.874310 0.066481 0.142917
H27   H     H_    0.359539 0.409310 0.944412 0.134627
H28   H     H_    0.673344 0.374310 0.066481 0.142917
H29   H     H_    0.020508 0.146284 0.926413 0.116039
H30   H     H_    0.030523 0.144232 0.057786 0.126887
H31   H     H_    0.520509 0.646284 0.926413 0.116039
H32   H     H_    0.530523 0.644232 0.057786 0.126887
H33   H     H_    0.017128 0.641505 0.061013 0.133124
H34   H     H_    0.924105 0.553636 0.940858 0.172344
H35   H     H_    0.517128 0.141505 0.061013 0.133124
H36   H     H_    0.424105 0.053635 0.940858 0.172344
H37   H     H_    0.934014 0.548958 0.066698 0.138231
H38   H     H_    0.007064 0.646788 0.933977 0.126315
H39   H     H_    0.434014 0.048958 0.066698 0.138231
H40   H     H_    0.507064 0.146788 0.933977 0.126314
H41   H     H_    0.866990 0.040048 0.419663 0.140650
H42   H     H_    0.315303 0.932411 0.532191 0.122816
H43   H     H_    0.366996 0.540090 0.419652 0.140643
H44   H     H_    0.815342 0.432454 0.532191 0.122829
H45   H     H_    0.115320 0.565132 0.454157 0.159889
H46   H     H_    0.754769 0.832062 0.601409 0.154975
H47   H     H_    0.615330 0.065147 0.454166 0.159888
H48   H     H_    0.254843 0.332038 0.601402 0.154983
H49   H     H_    0.602817 0.232391 0.438262 0.142506
H50   H     H_    0.157797 0.320334 0.618142 0.134695
H51   H     H_    0.102807 0.732382 0.438270 0.142503
H52   H     H_    0.657719 0.820256 0.618147 0.134679
H53   H     H_    0.621999 0.269924 0.562756 0.138609
H54   H     H_    0.134979 0.372065 0.496267 0.135028
H55   H     H_    0.121983 0.769876 0.562771 0.138600
H56   H     H_    0.634884 0.871968 0.496272 0.135055
H57   H     H_    0.637913 0.102770 0.578506 0.140241
H58   H     H_    0.232031 0.382988 0.479313 0.148734
H59   H     H_    0.137907 0.602716 0.578502 0.140228
H60   H     H_    0.731940 0.883018 0.479321 0.148698
H61   H     H_    0.028612 0.914093 0.449384 0.103933
H62   H     H_    0.054222 0.938840 0.578163 0.106314
H63   H     H_    0.528616 0.414098 0.449387 0.103933
H64   H     H_    0.554223 0.438846 0.578167 0.106310
H65   H     H_    0.993757 0.088820 0.377177 0.131094
H66   H     H_    0.045395 0.137827 0.634009 0.130108
H67   H     H_    0.493762 0.588821 0.377180 0.131095
H68   H     H_    0.545398 0.637830 0.634012 0.130102
H69   H     H_    0.921815 0.521919 0.359925 0.126656
H70   H     H_    0.006967 0.599547 0.604001 0.138035
H71   H     H_    0.421826 0.021937 0.359931 0.126664
H72   H     H_    0.506983 0.099542 0.604008 0.138030
O1    O     O_R   0.957020 0.451640 0.669920 -0.526660
O2    O     O_R   0.042980 0.451640 0.330080 -0.517895
O3    O     O_R   0.457020 0.951640 0.669920 -0.526655
O4    O     O_R   0.542980 0.951640 0.330080 -0.517897
O5    O     O_R   0.736470 0.210100 0.823360 -0.505343
O6    O     O_R   0.263530 0.210100 0.176640 -0.503729
O7    O     O_R   0.236470 0.710100 0.823360 -0.505343
O8    O     O_R   0.763530 0.710100 0.176640 -0.503729
O9    O     O_R   0.831960 0.093290 0.830130 -0.513299
O10   O     O_R   0.168040 0.093290 0.169870 -0.515830
O11   O     O_R   0.331960 0.593290 0.830130 -0.513299
O12   O     O_R   0.668040 0.593290 0.169870 -0.515830
O13   O     O_R   0.945600 0.250580 0.824860 -0.504035
O14   O     O_R   0.054400 0.250580 0.175140 -0.510712
O15   O     O_R   0.445600 0.750580 0.824860 -0.504036
O16   O     O_R   0.554400 0.750580 0.175140 -0.510711
O17   O     O_3   0.834640 0.334650 0.749500 -0.259937
O18   O     O_3   0.165360 0.334650 0.250500 -0.259981
O19   O     O_3   0.334640 0.834650 0.749500 -0.259935
O20   O     O_3   0.665360 0.834650 0.250500 -0.259981
O21   O     O_R   0.821450 0.543440 0.674610 -0.500177
O22   O     O_R   0.178550 0.543440 0.325390 -0.497516
O23   O     O_R   0.321450 0.043440 0.674610 -0.500175
O24   O     O_R   0.678550 0.043440 0.325390 -0.497515
O25   O     O_R   0.715320 0.458650 0.668100 -0.527392
O26   O     O_R   0.284680 0.458650 0.331900 -0.537096
O27   O     O_R   0.215320 0.958650 0.668100 -0.527391
O28   O     O_R   0.784680 0.958650 0.331900 -0.537094
O29   O     O_R   0.737170 0.209590 0.674530 -0.500655
O30   O     O_R   0.262830 0.209590 0.325470 -0.509200
O31   O     O_R   0.237170 0.709590 0.674530 -0.500651
O32   O     O_R   0.762830 0.709590 0.325470 -0.509205
O33   O     O_R   0.832710 0.092740 0.669580 -0.521355
O34   O     O_R   0.167290 0.092740 0.330420 -0.511875
O35   O     O_R   0.332710 0.592740 0.669580 -0.521353
O36   O     O_R   0.667290 0.592740 0.330420 -0.511871
O37   O     O_R   0.946290 0.250060 0.676040 -0.520206
O38   O     O_R   0.053710 0.250060 0.323960 -0.520962
O39   O     O_R   0.446290 0.750060 0.676040 -0.520204
O40   O     O_R   0.553710 0.750060 0.323960 -0.520962
O41   O     O_R   0.956270 0.452200 0.830470 -0.524883
O42   O     O_R   0.043730 0.452200 0.169530 -0.519716
O43   O     O_R   0.456270 0.952200 0.830470 -0.524884
O44   O     O_R   0.543730 0.952200 0.169530 -0.519715
O45   O     O_R   0.820760 0.543950 0.823440 -0.507877
O46   O     O_R   0.179240 0.543950 0.176560 -0.506439
O47   O     O_R   0.320760 0.043950 0.823440 -0.507878
O48   O     O_R   0.679240 0.043950 0.176560 -0.506439
O49   O     O_R   0.714570 0.459210 0.828640 -0.524695
O50   O     O_R   0.285430 0.459210 0.171360 -0.523679
O51   O     O_R   0.214570 0.959210 0.828640 -0.524695
O52   O     O_R   0.785430 0.959210 0.171360 -0.523679
H73   H     H_    0.922006 0.032199 0.076085 0.126261
H74   H     H_    0.090702 0.944710 0.933144 0.122675
H75   H     H_    0.422006 0.532199 0.076085 0.126261
H76   H     H_    0.590702 0.444710 0.933144 0.122674

loop_
_geom_bond_atom_site_label_1
_geom_bond_atom_site_label_2
_ccdc_geom_bond_type
C51   H72   S    
C58   C62   A    
C119  O43   A    
C55   C56   A    
C82   H26   S    
C67   C83   S    
C101  C102  A    
C72   H12   S    
C78   H74   S    
Cr5   O5    S    
Cr4   O48   S    
Cr9   O33   S    
C41   C42   A    
C14   C18   S    
C96   C119  S    
C101  H29   S    
C35   C36   A    
Cr10  O38   S    
C75   H15   S    
C72   C76   A    
C30   C34   A    
Cr7   O31   S    
Cr3   O43   S    
C120  O16   A    
C47   O31   A    
C97   C98   A    
C54   H6    S    
C63   C79   S    
C2    C123  S    
C34   H62   S    
C26   C89   S    
Cr1   O45   S    
Cr12  O40   S    
C33   H61   S    
C25   C90   S    
C50   C54   A    
Cr11  O35   S    
C116  O12   A    
Cr10  O34   S    
C79   H75   S    
C64   C68   A    
C115  O7    A    
C16   C20   S    
Cr3   O23   S    
C1    O25   A    
C9    H41   S    
C32   H68   S    
C94   C117  S    
C95   C99   A    
Cr10  O14   S    
C57   C112  S    
C66   C82   S    
C94   C98   A    
C113  O5    A    
Cr9   O13   S    
C12   H44   S    
C73   H13   S    
C17   H57   S    
C59   C110  S    
C117  O41   A    
C31   C40   A    
C108  H36   S    
Cr8   O32   S    
C51   C55   A    
C36   H64   S    
C32   C39   A    
C57   C73   A    
C92   O4    A    
C24   C132  A    
C46   O34   A    
Cr2   O42   S    
C60   C109  S    
C105  H37   S    
C45   O33   A    
C121  C125  A    
Cr5   O49   S    
C27   C44   A    
C106  H38   S    
C29   C33   A    
C61   C77   S    
C83   H27   S    
C29   C38   A    
C70   C74   A    
C9    C121  A    
C107  C108  S    
Cr8   O52   S    
C69   C73   A    
C81   H25   S    
C56   H8    S    
Cr7   O27   S    
C112  O52   A    
C47   O35   A    
Cr6   O30   S    
Cr6   O26   S    
C3    C122  S    
C119  O15   A    
C124  C128  A    
C97   C105  S    
C122  C126  A    
C44   C52   A    
Cr1   O41   S    
C15   H45   S    
C71   H11   S    
Cr2   O46   S    
C7    C23   A    
C15   C127  S    
C22   C130  A    
C53   H5    S    
C64   C80   S    
C8    H4    S    
C59   C75   A    
Cr1   O21   S    
C29   H65   S    
C20   C132  S    
Cr6   O18   S    
C128  C132  A    
C41   C49   A    
C72   C88   A    
C62   C78   S    
C7    C11   A    
C46   O30   A    
C21   C45   S    
C14   C126  S    
C19   C131  S    
C63   C67   A    
C100  C108  S    
C5    H1    S    
C103  H31   S    
Cr12  O20   S    
Cr11  O19   S    
C80   C84   S    
C68   C84   S    
C23   C47   S    
C88   C116  S    
C20   H60   S    
C104  H32   S    
C30   H66   S    
C45   O29   A    
C39   C40   A    
C126  C130  A    
C62   C66   A    
Cr8   O8    S    
Cr1   O17   S    
Cr6   O50   S    
C50   H69   S    
C1    O21   A    
C53   C54   A    
C83   H23   S    
C49   H70   S    
C60   C76   A    
C7    H3    S    
C80   H20   S    
C17   C129  S    
C58   C111  S    
C30   C37   A    
C107  H39   S    
Cr8   O28   S    
C5    C21   A    
C24   C48   S    
C116  O8    A    
C15   C19   S    
C43   C44   A    
C115  O11   A    
C37   C38   A    
C84   H24   S    
Cr10  O10   S    
C125  C129  A    
C25   C38   A    
C114  O10   A    
Cr9   O9    S    
Cr5   O29   S    
C78   C82   S    
C113  O9    A    
C99   C100  A    
C12   C124  A    
C77   C81   S    
C27   C40   A    
C8    C12   A    
Cr3   O3    S    
C19   H59   S    
C33   C34   A    
C4    O24   A    
C23   C131  A    
C27   C92   S    
C18   H58   S    
C3    O27   A    
Cr4   O44   S    
C114  O6    A    
C74   H14   S    
C17   H53   S    
C16   C128  S    
C21   C129  A    
C16   H46   S    
C42   C50   A    
C71   C87   A    
C92   O40   A    
C35   H63   S    
C22   C46   S    
C109  O49   A    
C112  O48   A    
C78   H18   S    
Cr4   O24   S    
Cr7   O19   S    
C91   O3    A    
C68   C88   A    
C11   H43   S    
C59   C63   A    
C79   H19   S    
C93   C118  S    
C109  O45   A    
C70   C86   A    
C93   C97   A    
C123  C127  A    
C110  O50   A    
C4    O28   A    
C69   C85   A    
C95   C104  A    
C58   C74   A    
C105  H33   S    
C69   H9    S    
C82   H22   S    
Cr7   O7    S    
C55   H7    S    
C2    O26   A    
Cr7   O51   S    
C14   H50   S    
C81   H21   S    
C94   C101  A    
C107  H35   S    
C86   C114  S    
C70   H10   S    
C93   C102  A    
C67   C87   A    
Cr12  O16   S    
C2    O22   A    
C71   C75   A    
Cr3   O19   S    
Cr11  O11   S    
C84   H28   S    
C13   H47   S    
C25   C42   A    
C66   C86   A    
Cr4   O20   S    
C32   C36   A    
C26   C37   A    
C57   C61   A    
Cr3   O47   S    
Cr4   O4    S    
C108  H40   S    
C11   C123  A    
C95   C120  S    
C102  H30   S    
C99   C107  S    
C105  C106  S    
C28   C39   A    
C28   C43   A    
C19   H55   S    
C98   C106  S    
C13   C17   S    
C60   C64   A    
Cr9   O37   S    
C127  C131  A    
C85   C113  S    
C120  O44   A    
C1    C124  S    
C15   H51   S    
C48   O32   A    
C65   C85   A    
Cr2   O2    S    
C110  O46   A    
C79   C83   S    
Cr11  O39   S    
C43   C51   A    
C96   C103  A    
C76   H16   S    
C91   O39   A    
Cr5   O25   S    
C118  O14   A    
C6    H2    S    
C96   C100  A    
C31   C35   A    
C117  O13   A    
C16   H52   S    
C10   H42   S    
C77   H17   S    
C87   C115  S    
C4    C121  S    
C28   C91   S    
C77   H73   S    
C14   H48   S    
C52   H71   S    
C48   O36   A    
C90   O38   A    
Cr11  O15   S    
C89   O37   A    
Cr1   O1    S    
C90   O2    A    
C49   C53   A    
C18   C130  S    
C6    C10   A    
Cr2   O22   S    
C111  O51   A    
C61   C65   A    
C10   C122  A    
Cr10  O18   S    
C31   H67   S    
C8    C24   A    
Cr9   O17   S    
C118  O42   A    
C89   O1    A    
C103  C104  A    
Cr8   O20   S    
Cr6   O6    S    
C65   C81   S    
Cr12  O12   S    
C13   H49   S    
C5    C9    A    
Cr12  O36   S    
C80   H76   S    
C111  O47   A    
Cr5   O17   S    
C13   C125  S    
C106  H34   S    
C20   H56   S    
C18   H54   S    
C52   C56   A    
C26   C41   A    
C3    O23   A    
Cr2   O18   S    
C6    C22   A    
