data_mof_unit_38957.cif
_audit_creation_date              2012-12-10T17:59:47-0500
_audit_creation_method            fapswitch 2.2
_symmetry_space_group_name_H-M    P1
_symmetry_Int_Tables_number       1
_space_group_crystal_system       triclinic
_cell_length_a                    10.799367
_cell_length_b                    9.523914
_cell_length_c                    15.895406
_cell_angle_alpha                 89.797255
_cell_angle_beta                  90.134759
_cell_angle_gamma                 89.663544
_cell_volume                      1634.83512781

loop_
_atom_site_label
_atom_site_type_symbol
_atom_type_description
_atom_site_fract_x
_atom_site_fract_y
_atom_site_fract_z
_atom_type_partial_charge
C1    C     C_R   0.262161 0.500678 0.499141 0.837050
C2    C     C_3   0.623165 0.572201 0.953721 -0.050966
C3    C     C_3   0.616347 0.560315 0.052484 -0.392824
C4    C     C_1   0.500905 0.499847 0.824706 0.072978
C5    C     C_1   0.493659 0.499920 0.175433 0.105945
C6    C     C_1   0.497014 0.500601 0.250833 -0.044025
C7    C     C_R   0.062663 0.409620 0.443476 -0.016281
C8    C     C_R   0.062262 0.595189 0.550838 -0.004144
C9    C     C_R   0.934066 0.405990 0.448018 -0.205705
C10   C     C_R   0.933918 0.593078 0.551178 -0.193703
C11   C     C_R   0.870694 0.498666 0.500404 -0.056311
C12   C     C_R   0.127701 0.502933 0.496913 -0.173983
C13   C     C_R   0.424304 0.075168 0.446890 0.006339
C14   C     C_R   0.424256 0.926401 0.446920 0.032295
C15   C     C_R   0.499813 0.500228 0.340259 0.852367
C16   C     C_R   0.575673 0.924794 0.553209 -0.008153
C17   C     C_R   0.575674 0.073583 0.553204 -0.010945
C18   C     C_R   0.737508 0.499563 0.500402 0.799096
C19   C     C_R   0.499780 0.499782 0.659779 0.818998
C20   C     C_3   0.381949 0.594811 0.047014 0.361135
C21   C     C_3   0.482697 0.341279 0.049212 0.352001
C22   C     C_3   0.489960 0.348261 0.950321 -0.483132
C23   C     C_3   0.386030 0.583298 0.948022 -0.480726
C24   C     C_1   0.500060 0.499375 0.749263 -0.075862
C25   C     C_3   0.490263 0.497832 0.082856 0.016352
C26   C     C_3   0.502248 0.501363 0.917210 0.045638
Cu1   Cu    Cu3+1 0.500020 0.640660 0.500000 0.991263
Cu2   Cu    Cu3+1 0.500020 0.359340 0.500000 0.991892
H1    H     H_    0.302718 0.530648 0.922213 0.218680
H2    H     H_    0.408484 0.299327 0.919785 0.208752
H3    H     H_    0.636369 0.868115 0.595791 0.135698
H4    H     H_    0.636364 0.128968 0.595770 0.135959
H5    H     H_    0.569652 0.285181 0.927749 0.234244
H6    H     H_    0.385450 0.689376 0.918663 0.203375
H7    H     H_    0.633207 0.662510 0.083850 0.229104
H8    H     H_    0.693204 0.493410 0.077193 0.212711
H9    H     H_    0.882400 0.335901 0.407532 0.179989
H10   H     H_    0.883005 0.663686 0.592094 0.152846
H11   H     H_    0.363667 0.131743 0.404277 0.161678
H12   H     H_    0.363450 0.871017 0.404425 0.145461
N1    N     N_R   0.500030 0.852070 0.500020 -0.167884
N2    N     N_R   0.500030 0.147930 0.500020 -0.172677
O1    O     O_R   0.319660 0.618740 0.500000 -0.555415
O2    O     O_R   0.319660 0.381260 0.500000 -0.570309
O3    O     O_R   0.500020 0.618840 0.379440 -0.587495
O4    O     O_R   0.500020 0.381160 0.379440 -0.552464
O5    O     O_R   0.680370 0.618830 0.500010 -0.585405
O6    O     O_R   0.680370 0.381170 0.500010 -0.585405
O7    O     O_R   0.500010 0.618730 0.620560 -0.570542
O8    O     O_R   0.500010 0.381270 0.620560 -0.584396
C27   C     C_2   0.255617 0.551779 0.083945 0.796849
O9    O     O_2   0.171311 0.511601 0.038640 -0.555947
O10   O     O_R   0.235077 0.564614 0.170443 -0.729712
H13   H     H_    0.148775 0.534631 0.187551 0.357251
C28   C     C_2   0.363789 0.269449 0.080652 0.763633
O11   O     O_2   0.349986 0.248501 0.156036 -0.562027
O12   O     O_R   0.272402 0.224376 0.024510 -0.772741
H14   H     H_    0.200094 0.178059 0.053971 0.351028
O13   O     O_3   0.589046 0.267665 0.081035 -0.598900
C29   C     C_3   0.586853 0.120793 0.066851 -0.177499
H15   H     H_    0.536738 0.090384 0.008612 0.160606
H16   H     H_    0.544469 0.066976 0.121658 0.195775
H17   H     H_    0.683611 0.082382 0.061201 0.212372
O14   O     O_3   0.409442 0.735804 0.071402 -0.565491
C30   C     C_3   0.312046 0.833287 0.056102 -0.220709
H18   H     H_    0.256059 0.846042 0.114080 0.191161
H19   H     H_    0.249934 0.804081 0.003179 0.154708
H20   H     H_    0.353037 0.936561 0.040692 0.192467
C31   C     C_2   0.630612 0.725190 0.923523 0.855332
O15   O     O_2   0.620484 0.823230 0.972513 -0.602627
O16   O     O_R   0.650205 0.753301 0.838107 -0.767719
H21   H     H_    0.653129 0.857557 0.825190 0.333809
C32   C     C_2   0.743634 0.502616 0.924106 0.866378
O17   O     O_2   0.842321 0.541160 0.953972 -0.548663
O18   O     O_R   0.744010 0.399716 0.861520 -0.770758
H22   H     H_    0.830401 0.364602 0.847777 0.351646
C33   C     C_2   0.124107 0.320276 0.379187 0.842058
O19   O     O_2   0.215467 0.362486 0.341737 -0.575656
O20   O     O_R   0.074107 0.189483 0.359029 -0.756179
H23   H     H_    0.123215 0.138966 0.313912 0.343082
C34   C     C_2   0.124486 0.691673 0.609717 0.848536
O21   O     O_2   0.128134 0.663380 0.684752 -0.587587
O22   O     O_R   0.175774 0.816503 0.579655 -0.732978
H24   H     H_    0.215895 0.873664 0.625870 0.335410

loop_
_geom_bond_atom_site_label_1
_geom_bond_atom_site_label_2
_ccdc_geom_bond_type
C28   O11   D    
C11   C18   S    
C32   O17   D    
C18   O5    A    
C34   O21   D    
O10   H13   S    
C16   H3    S    
Cu2   O4    S    
C29   H17   S    
C23   H1    S    
C21   O13   S    
C20   C27   S    
C5    C6    T    
C4    C24   T    
C20   C25   S    
C29   H16   S    
C23   C26   S    
C31   O16   S    
Cu1   N1    S    
C17   N2    A    
C6    C15   S    
Cu2   O8    S    
C1    O1    A    
C16   C17   A    
C30   H19   S    
C2    C31   S    
C7    C33   S    
C30   H20   S    
O13   C29   S    
C21   C22   S    
C32   O18   S    
C1    C12   S    
C13   N2    A    
C34   O22   S    
C33   O20   S    
C7    C12   A    
C8    C34   S    
C3    C25   S    
C21   C28   S    
C33   O19   D    
Cu2   O2    S    
C27   O9    D    
C29   H15   S    
C27   O10   S    
C20   O14   S    
O18   H22   S    
C19   O7    A    
C1    O2    A    
O22   H24   S    
C20   C23   S    
C3    H7    S    
C8    C12   A    
C23   H6    S    
C9    H9    S    
C2    C26   S    
C9    C11   A    
C2    C32   S    
C14   N1    A    
C5    C25   S    
C28   O12   S    
C15   O3    A    
Cu1   O5    S    
C7    C9    A    
C22   H5    S    
C21   C25   S    
Cu2   O6    S    
C22   H2    S    
C18   O6    A    
C4    C26   S    
C10   H10   S    
O14   C30   S    
C19   C24   S    
O16   H21   S    
C19   O8    A    
Cu1   O3    S    
O12   H14   S    
C3    H8    S    
Cu2   N2    S    
C2    C3    S    
C31   O15   D    
C13   H11   S    
C10   C11   A    
C14   H12   S    
O20   H23   S    
Cu1   O1    S    
C8    C10   A    
C30   H18   S    
C22   C26   S    
Cu1   Cu2   S    
C17   H4    S    
C15   O4    A    
C13   C14   A    
C16   N1    A    
Cu1   O7    S    
