data_mof_unit_35864.cif
_audit_creation_date              2013-03-05T16:08:30-0500
_audit_creation_method            fapswitch 2.2
_symmetry_space_group_name_H-M    P1
_symmetry_Int_Tables_number       1
_space_group_crystal_system       triclinic
_cell_length_a                    14.764668
_cell_length_b                    6.957333
_cell_length_c                    13.577742
_cell_angle_alpha                 89.999536
_cell_angle_beta                  99.9473
_cell_angle_gamma                 90.000703
_cell_volume                      1373.77539415

loop_
_atom_site_label
_atom_site_type_symbol
_atom_site_description
_atom_site_fract_x
_atom_site_fract_y
_atom_site_fract_z
_atom_type_partial_charge
O1    O     O_R   0.586930 0.505770 0.416350 -0.572434
O2    O     O_R   0.413070 0.005770 0.583650 -0.572500
O3    O     O_R   0.397900 0.173100 0.389630 -0.579781
O4    O     O_R   0.602100 0.673100 0.610370 -0.579755
C1    C     C_R   0.364923 0.345530 0.362166 1.053214
C2    C     C_R   0.635078 0.845530 0.637832 1.053200
O5    O     O_R   0.585280 0.175870 0.404330 -0.592575
O6    O     O_R   0.414720 0.675870 0.595670 -0.592595
O7    O     O_R   0.601790 0.008380 0.598460 -0.590183
O8    O     O_R   0.398210 0.508380 0.401540 -0.590179
C3    C     C_R   0.615560 0.344686 0.383902 0.949032
C4    C     C_R   0.384443 0.844683 0.616102 0.949137
O9    O     O_3   0.505200 0.340120 0.563670 -0.270926
O10   O     O_3   0.494800 0.840120 0.436330 -0.270898
V1    V     V_3+5 0.499040 0.064180 0.488190 1.251333
V2    V     V_3+5 0.500960 0.564180 0.511810 1.251351
C5    C     C_R   0.312519 0.013802 0.746959 0.004623
C6    C     C_R   0.687450 0.513756 0.252998 0.004337
C7    C     C_R   0.317409 0.853821 0.686022 -0.146296
C8    C     C_R   0.682601 0.353832 0.313989 -0.146199
C9    C     C_R   0.254977 0.704238 0.692431 -0.076671
C10   C     C_R   0.745066 0.204293 0.307624 -0.076505
H1    H     H_    0.252735 0.584053 0.642954 0.163265
H2    H     H_    0.747339 0.084163 0.357141 0.163317
C11   C     C_R   0.189835 0.716021 0.756736 -0.040416
C12   C     C_R   0.810197 0.216055 0.243305 -0.040556
H3    H     H_    0.139899 0.601996 0.755364 0.120071
H4    H     H_    0.860151 0.102057 0.244703 0.120033
C13   C     C_R   0.185567 0.878153 0.817794 -0.201516
C14   C     C_R   0.814429 0.378138 0.182200 -0.201407
C15   C     C_R   0.251129 0.023465 0.814867 0.108097
C16   C     C_R   0.748833 0.523396 0.185084 0.108379
C17   C     C_3   0.234921 0.233321 0.796279 0.025916
C18   C     C_3   0.764985 0.733300 0.203571 0.026028
C19   C     C_3   0.294824 0.217340 0.715177 0.020401
C20   C     C_3   0.705107 0.717351 0.284701 0.020497
H5    H     H_    0.161533 0.270105 0.769637 0.117701
H6    H     H_    0.838369 0.770183 0.230150 0.117639
H7    H     H_    0.358778 0.304665 0.724950 0.149812
H8    H     H_    0.641134 0.804622 0.274908 0.149749
C21   C     C_1   0.783581 0.877127 0.782771 -0.191127
C22   C     C_1   0.216419 0.377127 0.217229 -0.191492
C23   C     C_1   0.715920 0.860189 0.717110 -0.193425
C24   C     C_1   0.284081 0.360188 0.282889 -0.193347
O11   O     O_R   0.101720 0.231700 0.098560 -0.582284
O12   O     O_R   0.898280 0.731700 0.901440 -0.582248
O13   O     O_R   0.914700 0.558980 0.095690 -0.585460
O14   O     O_R   0.085300 0.058980 0.904310 -0.585382
C25   C     C_R   0.884848 0.390064 0.116498 0.950522
C26   C     C_R   0.115150 0.890067 0.883499 0.950463
O15   O     O_R   0.102080 0.561590 0.110390 -0.593189
O16   O     O_R   0.897920 0.061590 0.889610 -0.593295
O17   O     O_R   0.086950 0.728940 0.916330 -0.585098
O18   O     O_R   0.913050 0.228940 0.083670 -0.585319
C27   C     C_R   0.135587 0.391863 0.137938 1.054730
C28   C     C_R   0.864410 0.891864 0.862065 1.054508
O19   O     O_3   0.994770 0.394510 0.936380 -0.274512
O20   O     O_3   0.005230 0.894510 0.063620 -0.274704
V3    V     V_3+5 0.000970 0.670520 0.011800 1.244135
V4    V     V_3+5 0.999030 0.170520 0.988200 1.244079
N1    N     N_R   0.276306 0.345367 0.884055 0.245311
O21   O     O_R   0.345995 0.459017 0.881986 -0.396091
O22   O     O_R   0.240091 0.338060 0.964649 -0.400001
N2    N     N_R   0.723523 0.845164 0.115764 0.245393
O23   O     O_R   0.654168 0.959653 0.118032 -0.396159
O24   O     O_R   0.759381 0.836941 0.034948 -0.400050
N3    N     N_R   0.240917 0.227683 0.613647 0.230901
O25   O     O_R   0.160646 0.145654 0.591749 -0.396506
O26   O     O_R   0.276989 0.304360 0.542204 -0.420218
N4    N     N_R   0.759028 0.727832 0.386221 0.230863
O27   O     O_R   0.839354 0.646034 0.408103 -0.396569
O28   O     O_R   0.722905 0.804297 0.457681 -0.420169

loop_
_geom_bond_atom_site_label_1
_geom_bond_atom_site_label_2
_geom_bond_distance
_ccdc_geom_bond_type
O11   V4    1.985042 S    
O12   V3    1.985046 S    
O1    C3    1.301212 A    
O2    C4    1.301217 A    
C2    O7    1.311588 A    
O17   V3    2.006377 S    
O13   C25   1.303145 A    
O18   V4    2.006386 S    
O5    C3    1.303495 A    
C7    C9    1.402858 A    
O19   V3    2.170758 S    
O20   V4    2.170746 S    
C25   O18   1.301088 A    
N1    O22   1.299262 A    
O16   V4    1.975978 S    
C5    C7    1.396176 A    
C15   C17   1.493927 S    
N4    O27   1.302688 A    
O10   V2    2.170717 S    
C18   C20   1.530953 S    
O14   C26   1.303137 A    
O6    V2    2.005629 S    
C21   C23   1.224338 T    
C22   C24   1.224339 T    
C20   N4    1.469691 S    
O14   V4    2.005825 S    
C13   C26   1.484644 S    
C11   C13   1.407740 A    
C3    C8    1.486449 S    
C26   O17   1.301095 A    
N3    O25   1.302682 A    
C20   H8    1.111356 S    
O4    C2    1.323844 A    
O19   V4    1.706525 S    
O15   C27   1.309630 A    
O20   V3    1.706535 S    
C17   H5    1.111303 S    
N3    O26   1.299106 A    
N2    O24   1.299365 A    
O4    V2    1.976011 S    
C19   H7    1.111335 S    
C21   C28   1.466285 S    
C22   C27   1.466284 S    
C19   N3    1.469689 S    
O6    C4    1.303484 A    
C18   N2    1.466193 S    
O1    V2    2.006161 S    
O2    V1    2.006150 S    
C1    C24   1.466241 S    
C8    C10   1.402874 A    
C12   C14   1.407754 A    
C2    C23   1.466240 S    
O9    V1    2.170730 S    
C5    C15   1.401784 A    
C10   H2    1.069516 S    
C6    C16   1.401748 A    
O3    V1    1.976017 S    
C9    C11   1.408627 A    
C18   H6    1.111278 S    
C14   C25   1.484643 S    
O3    C1    1.323846 A    
C11   H3    1.080984 S    
C12   H4    1.080999 S    
N2    O23   1.301896 A    
C9    H1    1.069523 S    
O7    V1    1.977156 S    
C1    O8    1.311587 A    
C13   C15   1.404973 A    
O8    V2    1.977154 S    
C14   C16   1.404988 A    
C4    C7    1.486448 S    
O5    V1    2.005609 S    
C17   C19   1.530916 S    
C6    C8    1.396195 A    
N1    O21   1.301796 A    
O13   V3    2.005805 S    
O15   V3    1.975983 S    
O11   C27   1.298159 A    
C17   N1    1.466241 S    
C10   C12   1.408633 A    
O9    V2    1.707201 S    
O12   C28   1.298160 A    
O10   V1    1.707209 S    
N4    O28   1.299120 A    
C5    C19   1.490241 S    
C6    C20   1.490273 S    
O16   C28   1.309623 A    
C16   C18   1.493947 S    
