data_mof_unit_55847.cif
_audit_creation_date              2012-12-10T16:52:37-0500
_audit_creation_method            fapswitch 2.2
_symmetry_space_group_name_H-M    P1
_symmetry_Int_Tables_number       1
_space_group_crystal_system       triclinic
_cell_length_a                    7.821933
_cell_length_b                    8.559538
_cell_length_c                    13.832943
_cell_angle_alpha                 93.020543
_cell_angle_beta                  94.33319
_cell_angle_gamma                 94.071366
_cell_volume                      919.596442556

loop_
_atom_site_label
_atom_site_type_symbol
_atom_type_description
_atom_site_fract_x
_atom_site_fract_y
_atom_site_fract_z
_atom_type_partial_charge
C1    C     C_R   0.045073 0.794645 0.497512 0.967014
C2    C     C_R   0.934596 0.487828 0.318135 0.849308
C3    C     C_R   0.092354 0.498933 0.787704 -0.110960
C4    C     C_R   0.891257 0.444730 0.216056 -0.133571
C5    C     C_R   0.018110 0.593935 0.945643 -0.202740
C6    C     C_R   0.877645 0.230450 0.094054 -0.205233
C7    C     C_R   0.982299 0.576774 0.845961 -0.250144
C8    C     C_R   0.961282 0.312505 0.175404 -0.212409
C9    C     C_R   0.230083 0.421650 0.831105 0.120436
C10   C     C_R   0.745430 0.503839 0.170200 0.152964
C11   C     C_R   0.259517 0.430611 0.933550 0.052974
C12   C     C_R   0.954874 0.205338 0.502314 0.963173
C13   C     C_R   0.643478 0.404527 0.100243 0.053672
C14   C     C_R   0.161748 0.530078 0.989070 0.145886
C15   C     C_R   0.716140 0.271880 0.058206 0.132034
C16   C     C_R   0.398440 0.360997 0.981459 0.057723
C17   C     C_R   0.472377 0.432966 0.070014 0.045976
C18   C     C_3   0.712174 0.770542 0.120086 -0.832490
C19   C     C_3   0.506580 0.443040 0.761190 -0.698132
C20   C     C_R   0.370457 0.526350 0.125895 -0.177332
C21   C     C_R   0.467337 0.224591 0.944042 -0.183485
C22   C     C_R   0.214114 0.570843 0.086323 -0.219505
C23   C     C_R   0.623990 0.179624 0.982922 -0.239402
C24   C     C_2   0.068561 0.958323 0.496023 -0.395762
C25   C     C_2   0.931309 0.041647 0.503541 -0.387800
C26   C     C_R   0.064198 0.505205 0.682157 0.865535
H1    H     H_    0.139782 0.645357 0.129969 0.150317
H2    H     H_    0.848370 0.812732 0.114446 0.221870
H3    H     H_    0.640041 0.873386 0.139364 0.255342
H4    H     H_    0.655247 0.717719 0.048804 0.253244
H5    H     H_    0.296896 0.282214 0.711912 0.238759
H6    H     H_    0.587200 0.377622 0.712848 0.242777
H7    H     H_    0.581109 0.469464 0.832338 0.236466
H8    H     H_    0.478636 0.555770 0.729664 0.230230
H9    H     H_    0.938882 0.664637 0.987831 0.148829
H10   H     H_    0.933144 0.128179 0.063609 0.141757
H11   H     H_    0.486820 0.372636 0.429540 0.189938
H12   H     H_    0.675015 0.075008 0.952459 0.147402
H13   H     H_    0.513215 0.629219 0.569032 0.183708
H14   H     H_    0.075076 0.267307 0.209916 0.168468
H15   H     H_    0.874680 0.634282 0.813832 0.166299
H16   H     H_    0.408037 0.562538 0.200957 0.186430
H17   H     H_    0.399588 0.150620 0.885583 0.168584
H18   H     H_    0.197921 0.009670 0.488879 0.178922
H19   H     H_    0.801942 0.990304 0.510667 0.179511
H20   H     H_    0.754336 0.710607 0.261249 0.240360
N1    N     N_2   0.440860 0.456490 0.474790 -0.172724
N2    N     N_2   0.559140 0.543510 0.525210 -0.177913
N3    N     N_2   0.701743 0.660079 0.195523 -0.315434
N4    N     N_2   0.348504 0.349089 0.772667 -0.323917
O1    O     O_R   0.891570 0.738930 0.506190 -0.611616
O2    O     O_R   0.108430 0.261070 0.493810 -0.615925
O3    O     O_R   0.174650 0.711050 0.490030 -0.624039
O4    O     O_R   0.825350 0.288950 0.509970 -0.626014
O5    O     O_R   0.909850 0.521900 0.644940 -0.619934
O6    O     O_R   0.090150 0.478100 0.355060 -0.612045
O7    O     O_R   0.192930 0.494020 0.628780 -0.614175
O8    O     O_R   0.807070 0.505980 0.371220 -0.619274
Zn1   Zn    Zn3+2 0.810990 0.518620 0.510790 0.921253
Zn2   Zn    Zn3+2 0.189010 0.481380 0.489210 0.924812

loop_
_geom_bond_atom_site_label_1
_geom_bond_atom_site_label_2
_ccdc_geom_bond_type
C2    C4    S    
C2    O8    A    
C16   C21   A    
C3    C9    A    
O5    Zn1   S    
H11   N1    S    
C23   H12   S    
C1    O1    A    
C11   C16   A    
C20   H16   S    
N1    N2    D    
C19   N4    S    
C13   C17   A    
C12   C25   S    
C4    C8    A    
C26   O5    A    
C14   C22   A    
C15   C23   A    
O8    Zn1   S    
C18   H3    S    
C2    O6    A    
C9    C11   A    
H20   N3    S    
C5    C14   A    
C8    H14   S    
N2    Zn1   S    
C18   H4    S    
C19   H6    S    
C5    H9    S    
C12   O2    A    
O3    Zn2   S    
C6    H10   S    
C3    C7    A    
O4    Zn1   S    
C13   C15   A    
C21   C23   A    
C22   H1    S    
C24   H18   S    
C26   O7    A    
O1    Zn1   S    
H5    N4    S    
C4    C10   A    
C25   H19   S    
N1    Zn2   S    
C17   C20   A    
C18   H2    S    
C24   C25   D    
C18   N3    S    
C1    C24   S    
C19   H7    S    
C11   C14   A    
C5    C7    A    
C1    O3    A    
C16   C17   A    
O7    Zn2   S    
C6    C8    A    
O2    Zn2   S    
C6    C15   A    
C21   H17   S    
C10   N3    S    
C10   C13   A    
C3    C26   S    
C12   O4    A    
C9    N4    S    
O6    Zn2   S    
C7    H15   S    
C20   C22   A    
H13   N2    S    
C19   H8    S    
