data_mof_unit_63551.cif
_audit_creation_date              2012-12-10T19:27:00-0500
_audit_creation_method            fapswitch 2.2
_symmetry_space_group_name_H-M    P1
_symmetry_Int_Tables_number       1
_space_group_crystal_system       triclinic
_cell_length_a                    17.867488
_cell_length_b                    16.541466
_cell_length_c                    14.353352
_cell_angle_alpha                 90.000022
_cell_angle_beta                  91.84304
_cell_angle_gamma                 89.999981
_cell_volume                      4240.00242701

loop_
_atom_site_label
_atom_site_type_symbol
_atom_type_description
_atom_site_fract_x
_atom_site_fract_y
_atom_site_fract_z
_atom_type_partial_charge
C1    C     C_R   0.355173 0.499932 0.501089 0.893460
C2    C     C_R   0.644827 0.499932 0.498911 0.893458
C3    C     C_1   0.966465 0.495809 0.499398 0.033521
C4    C     C_1   0.033535 0.495809 0.500604 0.033522
C5    C     C_R   0.544918 0.829580 0.564535 -0.150911
C6    C     C_R   0.450833 0.170629 0.440352 -0.150589
C7    C     C_R   0.455082 0.829581 0.435464 -0.150910
C8    C     C_R   0.549167 0.170629 0.559648 -0.150589
C9    C     C_R   0.544193 0.743566 0.563482 0.098010
C10   C     C_R   0.451882 0.256618 0.441075 0.109723
C11   C     C_R   0.455807 0.743566 0.436518 0.098014
C12   C     C_R   0.548118 0.256618 0.558925 0.109723
C13   C     C_R   0.500000 0.873541 0.500000 0.036309
C14   C     C_R   0.500000 0.126661 0.500000 0.033979
C15   C     C_1   0.500000 0.963086 0.500000 0.016721
C16   C     C_1   0.500000 0.037124 0.500000 0.017023
C17   C     C_R   0.499823 0.499996 0.330823 0.812375
C18   C     C_R   0.500176 0.499996 0.669176 0.812376
C19   C     C_1   0.499808 0.499996 0.228589 -0.149011
C20   C     C_1   0.500192 0.499996 0.771411 -0.149011
C21   C     C_1   0.499844 0.500004 0.143244 0.016564
C22   C     C_1   0.500156 0.500004 0.856756 0.016564
C23   C     C_1   0.499947 0.500010 0.042675 0.029072
C24   C     C_1   0.500052 0.500010 0.957325 0.029072
C25   C     C_R   0.848346 0.569380 0.516987 -0.107918
C26   C     C_R   0.154281 0.425899 0.523191 -0.106592
C27   C     C_R   0.151653 0.569380 0.483013 -0.107915
C28   C     C_R   0.845720 0.425898 0.476811 -0.106592
C29   C     C_R   0.769236 0.571441 0.514430 0.311969
C30   C     C_R   0.233472 0.426533 0.523443 0.310800
C31   C     C_R   0.230764 0.571440 0.485568 0.311969
C32   C     C_R   0.766528 0.426532 0.476559 0.310800
C33   C     C_R   0.728222 0.499366 0.496698 -0.136904
C34   C     C_R   0.271778 0.499366 0.503303 -0.136901
C35   C     C_R   0.885871 0.496924 0.497939 -0.052245
C36   C     C_R   0.114129 0.496924 0.502063 -0.052243
Cu1   Cu    Cu3+1 0.500000 0.580420 0.500000 0.995528
Cu2   Cu    Cu3+1 0.500000 0.419580 0.500000 1.004959
N1    N     N_R   0.500000 0.701220 0.500000 -0.211291
N2    N     N_R   0.500000 0.298780 0.500000 -0.207782
O1    O     O_R   0.391260 0.567930 0.500000 -0.537639
O2    O     O_R   0.608740 0.432070 0.500000 -0.535431
O3    O     O_R   0.608740 0.567930 0.500000 -0.537641
O4    O     O_R   0.391260 0.432070 0.500000 -0.535431
O5    O     O_R   0.500000 0.567920 0.376050 -0.577693
O6    O     O_R   0.500000 0.432080 0.623950 -0.570150
O7    O     O_R   0.500000 0.567920 0.623950 -0.577693
O8    O     O_R   0.500000 0.432080 0.376050 -0.570150
C37   C     C_1   0.891498 0.641105 0.541358 0.270014
N3    N     N_1   0.925836 0.698288 0.560986 -0.233167
C38   C     C_1   0.113630 0.352722 0.545153 0.267120
N4    N     N_1   0.081173 0.294415 0.562716 -0.233054
C39   C     C_1   0.108501 0.641105 0.458646 0.270005
N5    N     N_1   0.074163 0.698289 0.439020 -0.233170
C40   C     C_1   0.886370 0.352722 0.454848 0.267122
N6    N     N_1   0.918827 0.294415 0.437285 -0.233053
O9    O     O_3   0.730236 0.642254 0.530068 -0.708933
H1    H     H_    0.763863 0.689678 0.530589 0.336985
O10   O     O_3   0.275308 0.358072 0.545189 -0.707196
H2    H     H_    0.242987 0.310156 0.552181 0.337354
O11   O     O_3   0.269764 0.642252 0.469928 -0.708938
H3    H     H_    0.236136 0.689675 0.469386 0.336991
O12   O     O_3   0.724693 0.358071 0.454815 -0.707197
H4    H     H_    0.757013 0.310154 0.447832 0.337355
C41   C     C_1   0.591850 0.872488 0.632388 0.252667
N7    N     N_1   0.629382 0.906396 0.686719 -0.219221
C42   C     C_1   0.399015 0.127803 0.378185 0.255706
N8    N     N_1   0.357502 0.093952 0.328474 -0.218173
C43   C     C_1   0.408150 0.872488 0.367612 0.252667
N9    N     N_1   0.370618 0.906396 0.313281 -0.219222
C44   C     C_1   0.600985 0.127803 0.621815 0.255705
N10   N     N_1   0.642498 0.093952 0.671526 -0.218174
C45   C     C_1   0.590546 0.700774 0.631423 0.382506
N11   N     N_1   0.627729 0.667308 0.686572 -0.252424
C46   C     C_1   0.401377 0.299830 0.378227 0.361204
N12   N     N_1   0.360667 0.333807 0.327532 -0.274517
C47   C     C_1   0.409454 0.700775 0.368577 0.382502
N13   N     N_1   0.372272 0.667309 0.313427 -0.252429
C48   C     C_1   0.598623 0.299830 0.621773 0.361204
N14   N     N_1   0.639333 0.333807 0.672468 -0.274517

loop_
_geom_bond_atom_site_label_1
_geom_bond_atom_site_label_2
_ccdc_geom_bond_type
C40   N6    T    
C4    C36   S    
C12   N2    A    
C45   N11   T    
C31   O11   S    
C17   O8    A    
C18   O7    A    
C39   N5    T    
Cu2   O4    S    
C19   C21   T    
C17   O5    A    
Cu2   O2    S    
C15   C16   T    
C12   C48   S    
C29   C33   A    
C9    N1    A    
C10   N2    A    
C11   C47   S    
C28   C35   A    
C23   C24   T    
C14   C16   S    
Cu1   O7    S    
Cu2   O8    S    
O10   H2    S    
C43   N9    T    
C9    C45   S    
C18   O6    A    
C28   C40   S    
C1    C34   S    
C25   C29   A    
C30   C34   A    
C27   C31   A    
C38   N4    T    
C28   C32   A    
C48   N14   T    
C5    C41   S    
C47   N13   T    
C42   N8    T    
Cu1   O3    S    
C7    C11   A    
C46   N12   T    
C5    C9    A    
Cu1   Cu2   S    
C6    C14   A    
C10   C46   S    
C1    O4    A    
C3    C35   S    
C2    O3    A    
C8    C12   A    
C30   O10   S    
C31   C34   A    
C11   N1    A    
C25   C35   A    
C2    C33   S    
C1    O1    A    
C6    C42   S    
C29   O9    S    
C26   C30   A    
C13   C15   S    
C22   C24   S    
Cu1   O5    S    
C3    C4    T    
C26   C36   A    
C8    C44   S    
C8    C14   A    
C5    C13   A    
C32   O12   S    
C20   C22   T    
C7    C43   S    
C27   C39   S    
C27   C36   A    
C32   C33   A    
C21   C23   S    
C44   N10   T    
Cu1   N1    S    
C26   C38   S    
Cu2   N2    S    
O9    H1    S    
C2    O2    A    
C17   C19   S    
C18   C20   S    
C41   N7    T    
Cu1   O1    S    
O11   H3    S    
C25   C37   S    
Cu2   O6    S    
C6    C10   A    
O12   H4    S    
C7    C13   A    
C37   N3    T    
