data_mof_unit_67477.cif
_audit_creation_date              2013-03-05T15:40:59-0500
_audit_creation_method            fapswitch 2.2
_symmetry_space_group_name_H-M    P1
_symmetry_Int_Tables_number       1
_space_group_crystal_system       triclinic
_cell_length_a                    10.868003
_cell_length_b                    8.723513
_cell_length_c                    7.555742
_cell_angle_alpha                 103.24737
_cell_angle_beta                  93.343025
_cell_angle_gamma                 94.285057
_cell_volume                      693.224469122

loop_
_atom_site_label
_atom_site_type_symbol
_atom_site_description
_atom_site_fract_x
_atom_site_fract_y
_atom_site_fract_z
_atom_type_partial_charge
O1    O     O_R   0.509140 0.286130 0.619770 -0.573901
O2    O     O_R   0.485380 0.256770 0.308360 -0.613255
C1    C     C_R   0.497448 0.200310 0.453702 0.812473
O3    O     O_R   0.329570 0.514650 0.655700 -0.586869
O4    O     O_R   0.305810 0.485300 0.344290 -0.537256
C2    C     C_R   0.260239 0.497991 0.503898 0.813988
Cu1   Cu    Cu3+1 0.514070 0.517380 0.684380 1.013635
Cu2   Cu    Cu3+1 0.485930 0.482620 0.315620 1.001735
O5    O     O_R   0.514620 0.743230 0.691640 -0.574890
O6    O     O_R   0.490860 0.713870 0.380230 -0.599220
O7    O     O_R   0.694190 0.514700 0.655710 -0.526571
O8    O     O_R   0.670430 0.485350 0.344300 -0.622710
C3    C     C_R   0.513439 0.800361 0.545991 0.951686
C4    C     C_R   0.738733 0.494553 0.496689 0.871231
C5    C     C_3   0.068575 0.398000 0.643477 0.177703
H1    H     H_    0.083359 0.274254 0.572482 0.110645
C6    C     C_3   0.926509 0.405401 0.644056 0.070121
H2    H     H_    0.887745 0.280114 0.589349 0.122799
C7    C     C_3   0.084122 0.680395 0.562301 0.405304
C8    C     C_3   0.058896 0.412939 0.318782 -0.423065
C9    C     C_3   0.122385 0.501833 0.513365 -0.192805
H3    H     H_    0.085431 0.476910 0.215095 0.300281
H4    H     H_    0.092244 0.293432 0.274889 0.208631
C10   C     C_3   0.876148 0.496117 0.498246 -0.107198
C11   C     C_3   0.940714 0.668631 0.506898 0.137336
C12   C     C_3   0.915391 0.393694 0.316636 -0.585194
H5    H     H_    0.881911 0.266595 0.295953 0.208943
H6    H     H_    0.873243 0.429759 0.198045 0.217132
H7    H     H_    0.933185 0.675933 0.361891 0.145027
C13   C     C_2   0.489655 0.031960 0.433951 -0.380966
H8    H     H_    0.429495 0.960465 0.320210 0.183660
C14   C     C_2   0.540758 0.969244 0.564746 0.130448
N1    N     N_2   0.464720 0.456420 0.038520 0.011221
N2    N     N_2   0.535280 0.543580 0.961480 -0.186393
H9    H     H_    0.586108 0.636872 0.050563 0.199201
N3    N     N_R   0.126487 0.411535 0.828069 0.111743
O9    O     O_R   0.190419 0.537564 0.924640 -0.346490
O10   O     O_R   0.102153 0.294909 0.904854 -0.463400
N4    N     N_R   0.153548 0.777174 0.455697 0.118705
O11   O     O_R   0.246974 0.876661 0.533031 -0.438148
O12   O     O_R   0.128782 0.759249 0.281435 -0.385671
N5    N     N_2   0.643270 0.053191 0.685644 -0.370768
H10   H     H_    0.695444 0.141143 0.645668 0.263034
C15   C     C_3   0.643857 0.068769 0.880545 -0.523535
H11   H     H_    0.626326 0.191214 0.948179 0.222605
H12   H     H_    0.736672 0.047494 0.934210 0.233150
H13   H     H_    0.574683 0.983836 0.916585 0.216517
N6    N     N_2   0.407242 0.321603 0.920096 -0.265848
H14   H     H_    0.350404 0.343274 0.819513 0.319064
C16   C     C_3   0.349603 0.196127 0.989934 -0.457812
H15   H     H_    0.289671 0.117049 0.877830 0.196084
H16   H     H_    0.292203 0.241327 0.103305 0.252411
H17   H     H_    0.417949 0.118577 0.023799 0.199400
N7    N     N_2   0.879047 0.441446 0.824829 -0.403388
H18   H     H_    0.872001 0.348737 0.888350 0.270145
C17   C     C_3   0.899540 0.595714 0.946123 -0.476796
H19   H     H_    0.820894 0.616473 0.033248 0.182148
H20   H     H_    0.905425 0.685683 0.869800 0.274216
H21   H     H_    0.985570 0.605933 0.032861 0.270652
N8    N     N_2   0.115840 0.751265 0.757669 -0.409844
H22   H     H_    0.208758 0.746046 0.788629 0.308328
C18   C     C_3   0.086670 0.910728 0.842173 -0.487456
H23   H     H_    0.145516 0.955931 0.971620 0.207550
H24   H     H_    0.991410 0.914736 0.884194 0.243163
H25   H     H_    0.101445 0.992218 0.751129 0.282393
N9    N     N_R   0.877727 0.808395 0.588869 0.081171
O13   O     O_R   0.785469 0.801164 0.688805 -0.408150
O14   O     O_R   0.902481 0.938858 0.536603 -0.398079

loop_
_geom_bond_atom_site_label_1
_geom_bond_atom_site_label_2
_geom_bond_distance
_ccdc_geom_bond_type
C1    C13   1.437263 S    
C16   H16   1.105745 S    
C10   C11   1.597873 S    
C15   H13   1.105172 S    
C18   H23   1.110733 S    
N2    H9    1.029034 S    
C7    N8    1.473296 S    
O4    Cu2   1.983288 S    
C17   H19   1.109424 S    
C3    C14   1.453537 S    
N9    O14   1.302391 A    
C17   H21   1.095869 S    
Cu2   O8    2.001988 S    
C8    C12   1.554844 S    
N6    C16   1.438675 S    
O2    C1    1.306334 A    
Cu1   Cu2   2.729146 S    
N4    O12   1.299451 A    
C15   H11   1.109049 S    
N8    C18   1.457975 S    
C13   C14   1.346703 D    
C2    C9    1.506564 S    
C12   H5    1.113465 S    
O4    C2    1.314740 A    
N5    C15   1.447126 S    
O3    Cu1   2.001989 S    
C7    N4    1.489360 S    
N3    O10   1.299926 A    
N3    O9    1.297288 A    
C7    C9    1.608352 S    
O8    C4    1.316159 A    
N1    N2    1.293360 D    
Cu2   N1    2.050722 S    
C17   H20   1.075579 S    
C11   H7    1.110624 S    
C13   H8    1.087617 S    
C7    C11   1.579621 S    
O7    C4    1.301024 A    
N7    C17   1.437608 S    
C6    C10   1.591707 S    
N5    H10   1.030821 S    
O5    C3    1.307785 A    
C5    H1    1.117798 S    
C16   H17   1.098693 S    
Cu1   O5    1.957913 S    
C5    N3    1.471861 S    
C5    C9    1.589002 S    
N9    O13   1.296199 A    
C8    C9    1.586884 S    
C6    H2    1.116557 S    
O3    C2    1.308003 A    
Cu1   N2    2.050722 S    
C4    C10   1.491803 S    
N4    O11   1.300874 A    
C5    C6    1.550361 S    
N1    N6    1.384459 S    
C14   N5    1.436916 S    
N7    H18   1.031128 S    
N6    H14   1.011645 S    
Cu1   O7    1.983288 S    
C18   H24   1.101137 S    
C15   H12   1.109561 S    
C18   H25   1.106482 S    
C16   H15   1.103763 S    
O1    Cu1   1.959639 S    
C8    H4    1.113646 S    
C12   H6    1.102076 S    
C6    N7    1.462918 S    
Cu2   O6    1.959639 S    
O2    Cu2   1.957914 S    
C11   N9    1.472012 S    
C10   C12   1.557702 S    
C8    H3    1.100462 S    
N8    H22   1.029933 S    
O1    C1    1.299124 A    
O6    C3    1.304416 A    
