data_mof_unit_36153.cif
_audit_creation_date              2012-12-10T20:30:08-0500
_audit_creation_method            fapswitch 2.2
_symmetry_space_group_name_H-M    P1
_symmetry_Int_Tables_number       1
_space_group_crystal_system       triclinic
_cell_length_a                    9.865381
_cell_length_b                    10.704432
_cell_length_c                    13.102114
_cell_angle_alpha                 90.717842
_cell_angle_beta                  69.980842
_cell_angle_gamma                 89.806985
_cell_volume                      1299.88007307

loop_
_atom_site_label
_atom_site_type_symbol
_atom_type_description
_atom_site_fract_x
_atom_site_fract_y
_atom_site_fract_z
_atom_type_partial_charge
C1    C     C_R   0.501345 0.739945 0.497115 0.926033
C2    C     C_R   0.428997 0.464586 0.984958 0.097015
C3    C     C_R   0.459452 0.432076 0.875015 0.078766
C4    C     C_R   0.539926 0.450581 0.029250 0.084022
C5    C     C_R   0.667761 0.383025 0.971458 0.168992
C6    C     C_R   0.684547 0.332234 0.869321 -0.255361
C7    C     C_R   0.581836 0.356980 0.821165 -0.214803
C8    C     C_R   0.528265 0.505317 0.128591 -0.252417
C9    C     C_R   0.754511 0.411864 0.122385 -0.206365
C10   C     C_R   0.366920 0.477073 0.821967 -0.130296
C11   C     C_R   0.411941 0.935984 0.448120 0.102512
C12   C     C_R   0.419941 0.491736 0.704076 0.903713
C13   C     C_R   0.510925 0.871181 0.482491 -0.063369
C14   C     C_R   0.626520 0.935186 0.497963 -0.206780
C15   C     C_R   0.626214 0.063962 0.498895 -0.201776
C16   C     C_R   0.509696 0.128341 0.485347 -0.064439
C17   C     C_R   0.409387 0.063510 0.452116 0.048577
C18   C     C_3   0.248071 0.069879 0.484589 -0.226572
C19   C     C_3   0.251685 0.927562 0.478351 -0.515601
C20   C     C_R   0.901820 0.588015 0.558721 0.176221
C21   C     C_R   0.958262 0.420862 0.434188 -0.115177
C22   C     C_R   0.102262 0.420965 0.434065 -0.063594
C23   C     C_R   0.501137 0.260025 0.498288 0.862406
C24   C     C_R   0.044307 0.587854 0.559369 0.131159
C25   C     C_3   0.992840 0.605491 0.680332 -0.254538
C26   C     C_3   0.839387 0.608449 0.678329 -0.507231
C27   C     C_R   0.580084 0.498741 0.295528 0.856087
C28   C     C_R   0.775642 0.366185 0.017700 -0.196392
C29   C     C_R   0.628134 0.478731 0.178644 -0.052419
C30   C     C_R   0.228876 0.521919 0.883412 -0.146090
C31   C     C_R   0.188699 0.534041 0.995483 -0.149439
C32   C     C_R   0.289011 0.509821 0.045983 -0.197473
H1    H     H_    0.832774 0.390104 0.160884 0.151287
H2    H     H_    0.711298 0.112008 0.517939 0.178100
H3    H     H_    0.212213 0.112998 0.421182 0.134611
H4    H     H_    0.199645 0.881346 0.556999 0.252142
H5    H     H_    0.220144 0.889581 0.410422 0.185516
H6    H     H_    0.927505 0.355147 0.382770 0.134872
H7    H     H_    0.180223 0.355353 0.382495 0.133874
H8    H     H_    0.014631 0.522298 0.722562 0.152342
H9    H     H_    0.775413 0.528046 0.720401 0.228351
H10   H     H_    0.779185 0.276926 0.825142 0.181384
H11   H     H_    0.781330 0.699445 0.698566 0.242258
H12   H     H_    0.873243 0.313920 0.974707 0.143259
H13   H     H_    0.438434 0.566009 0.171012 0.149674
H14   H     H_    0.153274 0.550656 0.844890 0.170980
H15   H     H_    0.253105 0.523295 0.133011 0.130812
H16   H     H_    0.081664 0.567678 0.042793 0.150852
H17   H     H_    0.599240 0.316920 0.741402 0.182830
H18   H     H_    0.711415 0.886984 0.517087 0.175451
N1    N     N_R   0.856940 0.500860 0.500710 -0.098970
N2    N     N_R   0.142580 0.500820 0.500710 -0.102325
O1    O     O_R   0.385310 0.683210 0.499990 -0.590451
O2    O     O_R   0.614650 0.683240 0.500000 -0.627745
O3    O     O_R   0.328390 0.499940 0.653610 -0.583168
O4    O     O_R   0.557730 0.499980 0.653620 -0.619778
O5    O     O_R   0.385350 0.316760 0.500000 -0.615774
O6    O     O_R   0.614690 0.316790 0.500010 -0.633122
O7    O     O_R   0.442270 0.500020 0.346380 -0.626262
O8    O     O_R   0.671610 0.500060 0.346390 -0.619988
Zn1   Zn    Zn3+2 0.346870 0.499980 0.499990 0.978571
Zn2   Zn    Zn3+2 0.653130 0.500020 0.500010 0.944482
C33   C     C_2   0.172002 0.120693 0.597959 0.989050
O9    O     O_2   0.073589 0.196347 0.613804 -0.657254
O10   O     O_R   0.214026 0.081803 0.684315 -0.798931
H19   H     H_    0.155186 0.123334 0.755819 0.327952
C34   C     C_2   0.043000 0.725906 0.716276 0.913245
O11   O     O_2   0.167778 0.734138 0.713302 -0.619210
O12   O     O_R   0.947806 0.826594 0.755539 -0.810302
H20   H     H_    0.995394 0.900872 0.777745 0.356010

loop_
_geom_bond_atom_site_label_1
_geom_bond_atom_site_label_2
_ccdc_geom_bond_type
O6    Zn2   S    
C23   O6    A    
C2    C4    A    
C1    O2    A    
C33   O10   S    
C24   N2    A    
C6    C7    A    
C13   C14   A    
C27   C29   S    
C5    C28   A    
C19   H5    S    
C18   H3    S    
C10   C30   A    
C15   H2    S    
C31   C32   A    
C25   C34   S    
C9    C29   A    
C30   C31   A    
C31   H16   S    
O12   H20   S    
C16   C23   S    
C17   C18   S    
C25   C26   S    
C20   C26   S    
C3    C10   A    
C27   O7    A    
C21   C22   A    
O5    Zn1   S    
C11   C13   A    
C11   C19   S    
C27   O8    A    
C12   O4    A    
N1    Zn2   S    
C10   C12   S    
C9    H1    S    
C34   O11   D    
C22   H7    S    
O3    Zn1   S    
C2    C32   A    
C22   N2    A    
C28   H12   S    
C26   H11   S    
C2    C3    A    
C20   N1    A    
C3    C7    A    
N2    Zn1   S    
C25   H8    S    
C5    C6    A    
C32   H15   S    
O4    Zn2   S    
C18   C33   S    
O7    Zn1   S    
C12   O3    A    
C1    C13   S    
C14   H18   S    
C15   C16   A    
C16   C17   A    
C20   C24   A    
C21   N1    A    
C24   C25   S    
C7    H17   S    
O8    Zn2   S    
O10   H19   S    
C6    H10   S    
C8    C29   A    
C4    C8    A    
C23   O5    A    
C1    O1    A    
C8    H13   S    
C18   C19   S    
O2    Zn2   S    
C19   H4    S    
C14   C15   A    
O1    Zn1   S    
C9    C28   A    
C30   H14   S    
C11   C17   A    
C21   H6    S    
C33   O9    D    
C26   H9    S    
C4    C5    A    
C34   O12   S    
