data_mof_unit_51222.cif
_audit_creation_date              2012-10-26T20:32:23-0400
_audit_creation_method            fapswitch 2.2
_symmetry_space_group_name_H-M    P1
_symmetry_Int_Tables_number       1
_space_group_crystal_system       triclinic
_cell_length_a                    19.320242
_cell_length_b                    10.832363
_cell_length_c                    9.543983
_cell_angle_alpha                 90.393816
_cell_angle_beta                  89.979421
_cell_angle_gamma                 90.272474
_cell_volume                      1997.33186747

loop_
_atom_site_label
_atom_site_type_symbol
_atom_type_description
_atom_site_fract_x
_atom_site_fract_y
_atom_site_fract_z
_atom_type_partial_charge
C1    C     C_R   0.498725 0.262378 0.499531 0.542456
C2    C     C_R   0.853007 0.514689 0.496807 0.033347
C3    C     C_R   0.488616 0.064915 0.624279 0.025865
C4    C     C_R   0.367356 0.500071 0.500038 0.548952
C5    C     C_R   0.491891 0.129387 0.498510 0.005081
C6    C     C_R   0.485631 0.063487 0.371745 -0.162201
C7    C     C_R   0.485896 0.934754 0.372324 -0.163016
C8    C     C_R   0.492387 0.871010 0.499679 0.006144
C9    C     C_R   0.488783 0.937840 0.625041 0.028008
C10   C     C_3   0.534139 0.934275 0.751652 -0.277467
C11   C     C_3   0.533786 0.074247 0.750699 -0.266119
C12   C     C_R   0.291192 0.501148 0.499845 0.015094
C13   C     C_R   0.559455 0.523625 0.073851 0.163981
C14   C     C_R   0.443240 0.463462 0.074045 -0.017501
C15   C     C_R   0.443232 0.463488 0.925390 -0.014842
C16   C     C_R   0.498985 0.737788 0.500224 0.548570
C17   C     C_R   0.559507 0.523330 0.926547 0.152563
C18   C     C_3   0.602552 0.637705 0.921809 -0.281753
C19   C     C_3   0.602452 0.638031 0.080894 -0.278378
C20   C     C_R   0.632255 0.498327 0.499907 0.535374
C21   C     C_R   0.254236 0.496501 0.626407 -0.132883
C22   C     C_R   0.182097 0.498464 0.626039 -0.119501
C23   C     C_R   0.929061 0.515116 0.497187 0.331559
C24   C     C_R   0.145564 0.505421 0.499104 0.034136
C25   C     C_R   0.182625 0.509864 0.372564 -0.119690
C26   C     C_R   0.254718 0.507599 0.372929 -0.133898
C27   C     C_3   0.714182 0.303661 0.649175 -0.271279
C28   C     C_3   0.716349 0.321300 0.807821 -0.423264
C29   C     C_3   0.846028 0.709343 0.343278 -0.269313
C30   C     C_3   0.876880 0.805053 0.443894 -0.421286
C31   C     C_R   0.069269 0.508362 0.498523 0.341653
C32   C     C_R   0.819217 0.421972 0.573089 -0.116952
C33   C     C_R   0.746975 0.412246 0.574480 -0.001196
C34   C     C_R   0.707901 0.499451 0.499341 0.011574
C35   C     C_R   0.741351 0.592221 0.423245 -0.136788
C36   C     C_R   0.813645 0.602112 0.421424 0.012534
Cu1   Cu    Cu3+1 0.500000 0.499980 0.640670 0.931539
Cu2   Cu    Cu3+1 0.500000 0.500020 0.359330 0.930409
H1    H     H_    0.280971 0.491442 0.725897 0.118958
H2    H     H_    0.574124 0.716182 0.876384 0.143656
H3    H     H_    0.654409 0.620629 0.126377 0.124670
H4    H     H_    0.155065 0.495002 0.725346 0.136091
H5    H     H_    0.574250 0.717584 0.127514 0.143435
H6    H     H_    0.156039 0.515068 0.272941 0.136262
H7    H     H_    0.281802 0.511393 0.273671 0.120209
H8    H     H_    0.849547 0.354126 0.628841 0.130094
H9    H     H_    0.710449 0.659464 0.367861 0.103907
H10   H     H_    0.483992 0.110682 0.272126 0.136162
H11   H     H_    0.770694 0.327699 0.845144 0.152520
H12   H     H_    0.484370 0.885943 0.272935 0.133154
H13   H     H_    0.688487 0.406558 0.838327 0.166627
H14   H     H_    0.690930 0.241455 0.859373 0.130297
H15   H     H_    0.659753 0.288387 0.616146 0.156608
H16   H     H_    0.742365 0.217825 0.620722 0.130321
H17   H     H_    0.836516 0.838844 0.517499 0.148446
H18   H     H_    0.920282 0.765634 0.504762 0.177714
H19   H     H_    0.897009 0.884697 0.383353 0.143275
H20   H     H_    0.885808 0.676485 0.268359 0.179532
H21   H     H_    0.806539 0.756835 0.278543 0.127830
H22   H     H_    0.506707 0.895266 0.843793 0.135036
H23   H     H_    0.585978 0.894590 0.729056 0.128807
H24   H     H_    0.506239 0.115366 0.841906 0.142131
H25   H     H_    0.585323 0.115483 0.727661 0.131405
H26   H     H_    0.396939 0.435093 0.128784 0.115150
H27   H     H_    0.396933 0.435131 0.870278 0.115470
H28   H     H_    0.654575 0.621267 0.875890 0.126752
N1    N     N_R   0.033983 0.521970 0.376675 -0.235519
N2    N     N_R   0.965185 0.524896 0.375996 -0.235660
N3    N     N_R   0.964129 0.500025 0.618923 -0.233499
N4    N     N_R   0.032954 0.497193 0.619629 -0.233962
N5    N     N_R   0.500440 0.500930 0.147930 -0.230093
N6    N     N_R   0.500440 0.500890 0.852020 -0.229491
O1    O     O_R   0.500000 0.319640 0.618810 -0.500420
O2    O     O_R   0.500010 0.319680 0.381230 -0.503973
O3    O     O_R   0.400140 0.499970 0.618830 -0.509856
O4    O     O_R   0.400150 0.500010 0.381250 -0.510859
O5    O     O_R   0.499990 0.680320 0.618770 -0.494387
O6    O     O_R   0.500000 0.680360 0.381190 -0.507577
O7    O     O_R   0.599850 0.499990 0.618750 -0.500102
O8    O     O_R   0.599860 0.500030 0.381170 -0.500630

loop_
_geom_bond_atom_site_label_1
_geom_bond_atom_site_label_2
_ccdc_geom_bond_type
C14   N5    A    
C23   N3    A    
C35   C36   A    
C11   H24   S    
C35   H9    S    
C27   H16   S    
C7    C8    A    
Cu2   O4    S    
C27   C33   S    
C31   N1    A    
C15   N6    A    
Cu1   O7    S    
C29   C36   S    
C29   C30   S    
C6    H10   S    
C1    C5    S    
C1    O2    A    
C34   C35   A    
C11   H25   S    
C5    C6    A    
C28   H13   S    
C15   H27   S    
C30   H19   S    
C2    C32   A    
C16   O5    A    
C18   H2    S    
C4    O3    A    
C26   H7    S    
C31   N4    A    
C29   H21   S    
C8    C9    A    
C4    C12   S    
C9    C10   S    
C20   C34   S    
Cu1   O3    S    
C8    C16   S    
C21   C22   A    
C25   H6    S    
C19   H5    S    
C33   C34   A    
C20   O8    A    
N1    N2    A    
C24   C25   A    
C13   C19   S    
C18   C19   S    
Cu2   O6    S    
C25   C26   A    
C30   H18   S    
C12   C21   A    
C12   C26   A    
C23   N2    A    
C10   H22   S    
Cu1   Cu2   S    
C3    C9    A    
C28   H11   S    
C21   H1    S    
C14   H26   S    
C17   C18   S    
C22   C24   A    
C10   H23   S    
C27   C28   S    
Cu2   O2    S    
C2    C36   A    
Cu1   O1    S    
Cu2   N5    S    
C20   O7    A    
C32   H8    S    
C7    H12   S    
C3    C5    A    
C27   H15   S    
C6    C7    A    
C18   H28   S    
C13   N5    A    
C30   H17   S    
C13   C17   A    
C1    O1    A    
C32   C33   A    
C24   C31   S    
C28   H14   S    
C22   H4    S    
Cu2   O8    S    
C16   O6    A    
N3    N4    A    
C4    O4    A    
C3    C11   S    
C10   C11   S    
Cu1   O5    S    
C29   H20   S    
C17   N6    A    
Cu1   N6    S    
C2    C23   S    
C14   C15   A    
C19   H3    S    
