data_mof_unit_56623.cif
_audit_creation_date              2012-12-10T19:44:27-0500
_audit_creation_method            fapswitch 2.2
_symmetry_space_group_name_H-M    P1
_symmetry_Int_Tables_number       1
_space_group_crystal_system       triclinic
_cell_length_a                    10.784634
_cell_length_b                    12.334616
_cell_length_c                    13.215476
_cell_angle_alpha                 117.21507
_cell_angle_beta                  78.798941
_cell_angle_gamma                 100.51185
_cell_volume                      1524.73154046

loop_
_atom_site_label
_atom_site_type_symbol
_atom_type_description
_atom_site_fract_x
_atom_site_fract_y
_atom_site_fract_z
_atom_type_partial_charge
C1    C     C_R   0.507737 0.854848 0.286872 0.791276
C2    C     C_R   0.738818 0.021051 0.919585 -0.191667
C3    C     C_R   0.044471 0.972009 0.575830 -0.224737
C4    C     C_R   0.129739 0.998523 0.494261 -0.074238
C5    C     C_R   0.085934 0.030068 0.418657 0.016567
C6    C     C_R   0.955872 0.026385 0.421988 -0.214364
C7    C     C_R   0.870164 0.999845 0.503949 -0.082478
C8    C     C_R   0.914487 0.977341 0.585790 0.020030
C9    C     C_R   0.169266 0.208076 0.377713 -0.274470
C10   C     C_R   0.256742 0.267655 0.319534 0.515588
C11   C     C_R   0.345318 0.198391 0.230497 -0.167409
C12   C     C_R   0.736613 0.000500 0.502544 0.795187
C13   C     C_R   0.346242 0.073744 0.198878 -0.202860
C14   C     C_R   0.259785 0.016246 0.257337 -0.086373
C15   C     C_R   0.172021 0.083925 0.347999 0.075630
C16   C     C_R   0.308065 0.277739 0.013078 -0.195741
C17   C     C_R   0.444493 0.229621 0.832887 -0.058552
C18   C     C_R   0.563179 0.817740 0.083494 -0.155175
C19   C     C_R   0.572325 0.740287 0.966761 -0.104606
C20   C     C_R   0.533448 0.615926 0.928913 -0.181246
C21   C     C_R   0.473103 0.568810 0.007599 0.095414
C22   C     C_R   0.443514 0.651835 0.123917 0.097133
C23   C     C_R   0.478528 0.145569 0.713007 0.785880
C24   C     C_R   0.436553 0.442202 0.973538 0.084084
C25   C     C_R   0.348505 0.402888 0.047679 0.153872
C26   C     C_R   0.300903 0.489447 0.154610 -0.201163
C27   C     C_R   0.350843 0.611767 0.194390 -0.199480
C28   C     C_R   0.486949 0.353717 0.868446 -0.250291
C29   C     C_R   0.355951 0.191269 0.905979 -0.205951
C30   C     C_R   0.503063 0.773701 0.163798 -0.103453
C31   C     C_R   0.686659 0.332760 0.315008 -0.289555
C32   C     C_R   0.336814 0.765794 0.651937 0.071784
C33   C     C_R   0.311481 0.676255 0.691714 -0.266359
C34   C     C_R   0.263460 0.998909 0.496557 0.774433
C35   C     C_R   0.377047 0.572565 0.636827 -0.230602
C36   C     C_R   0.468025 0.556275 0.539767 0.022984
C37   C     C_R   0.494071 0.652748 0.505356 0.270495
C38   C     C_R   0.534314 0.448954 0.476383 -0.025463
C39   C     C_R   0.626883 0.440887 0.380777 0.078303
C40   C     C_R   0.656149 0.540115 0.352045 -0.076911
C41   C     C_R   0.591400 0.643493 0.415309 -0.219574
C42   C     C_R   0.510311 0.347001 0.502182 0.039420
C43   C     C_R   0.659809 0.237258 0.346202 0.062572
C44   C     C_R   0.706764 0.091708 0.872687 -0.149441
C45   C     C_R   0.757540 0.073235 0.761058 -0.089784
C46   C     C_R   0.835645 0.979020 0.692561 0.097557
C47   C     C_R   0.860024 0.902928 0.738269 -0.210459
C48   C     C_R   0.818025 0.927406 0.853245 0.025777
Cu1   Cu    Cu3+1 0.529370 0.098270 0.475420 0.941003
Cu2   Cu    Cu3+1 0.470630 0.901730 0.524580 0.932911
H1    H     H_    0.703753 0.041257 0.008212 0.143247
H2    H     H_    0.414106 0.241695 0.185020 0.156759
H3    H     H_    0.414824 0.022010 0.129371 0.142436
H4    H     H_    0.262616 0.920180 0.233636 0.110676
H5    H     H_    0.320408 0.095425 0.878775 0.153623
H6    H     H_    0.225863 0.462185 0.207828 0.189495
H7    H     H_    0.238452 0.247057 0.068226 0.153997
H8    H     H_    0.560224 0.379661 0.812713 0.152355
H9    H     H_    0.603386 0.912359 0.110888 0.163451
H10   H     H_    0.545288 0.559551 0.837353 0.130739
H11   H     H_    0.612741 0.775734 0.905022 0.145586
H12   H     H_    0.647614 0.165134 0.925031 0.149681
H13   H     H_    0.310723 0.674982 0.278136 0.170515
H14   H     H_    0.705993 0.154413 0.295705 0.137051
H15   H     H_    0.752669 0.319661 0.238601 0.180699
H16   H     H_    0.440139 0.344241 0.571259 0.118508
H17   H     H_    0.286587 0.846626 0.695650 0.130641
H18   H     H_    0.353647 0.506571 0.671666 0.137707
H19   H     H_    0.240942 0.687237 0.765278 0.164771
H20   H     H_    0.623856 0.717243 0.393163 0.224724
H21   H     H_    0.741405 0.136983 0.730935 0.102010
H22   H     H_    0.920794 0.830651 0.686661 0.161986
H23   H     H_    0.081882 0.957902 0.638869 0.145609
H24   H     H_    0.921563 0.048343 0.362282 0.163711
H25   H     H_    0.098889 0.255825 0.447378 0.133978
N1    N     N_R   0.573890 0.246290 0.438210 -0.178867
N2    N     N_R   0.426890 0.754320 0.561170 -0.208803
O1    O     O_R   0.536940 0.972510 0.318130 -0.585105
O2    O     O_R   0.487330 0.806530 0.359650 -0.595039
O3    O     O_R   0.705160 0.082990 0.479250 -0.581314
O4    O     O_R   0.655550 0.917010 0.520760 -0.588477
O5    O     O_R   0.512670 0.193470 0.640350 -0.589900
O6    O     O_R   0.463060 0.027490 0.681870 -0.583290
O7    O     O_R   0.344450 0.082990 0.479240 -0.570455
O8    O     O_R   0.294840 0.917010 0.520750 -0.598440
C49   C     C_2   0.755400 0.541495 0.257072 0.832837
O9    O     O_2   0.733178 0.577505 0.190834 -0.588392
O10   O     O_R   0.875538 0.507062 0.246174 -0.798974
H26   H     H_    0.934944 0.513737 0.179191 0.330266
C50   C     C_2   0.864289 0.860230 0.904864 0.805578
O11   O     O_2   0.851061 0.897731 0.009073 -0.612759
O12   O     O_R   0.925053 0.754658 0.834436 -0.789418
H27   H     H_    0.952633 0.717377 0.879679 0.338050
O13   O     O_3   0.261395 0.390465 0.342104 -0.638946
C51   C     C_3   0.178797 0.461530 0.438353 0.023255
H28   H     H_    0.217631 0.558950 0.464712 0.189649
H29   H     H_    0.178378 0.444682 0.514096 0.151327
C52   C     C_3   0.044683 0.448581 0.408232 -0.385046
H30   H     H_    0.049488 0.486301 0.345701 0.253112
H31   H     H_    0.005019 0.350905 0.368141 0.222006
C53   C     C_3   0.955133 0.518854 0.514863 -0.812125
H32   H     H_    0.945011 0.480220 0.577609 0.252702
H33   H     H_    0.859949 0.511386 0.490649 0.270582
H34   H     H_    0.992245 0.617341 0.555592 0.256526

loop_
_geom_bond_atom_site_label_1
_geom_bond_atom_site_label_2
_ccdc_geom_bond_type
C53   H32   S    
C23   O5    A    
C45   H21   S    
C51   H28   S    
C17   C29   A    
C35   C36   A    
Cu2   O2    S    
C51   C52   S    
C7    C8    A    
C45   C46   A    
C26   C27   A    
C17   C23   S    
C31   C43   A    
Cu1   O7    S    
C36   C37   A    
C38   C42   A    
C5    C6    A    
C49   O10   S    
C10   O13   S    
C16   C25   A    
Cu1   O1    S    
C18   C19   A    
C23   O6    A    
C40   C49   S    
C1    C30   S    
C11   H2    S    
Cu2   O8    S    
C32   N2    A    
C19   C20   A    
C2    C44   A    
Cu2   O6    S    
C18   C30   A    
C20   H10   S    
C9    C10   A    
C33   H19   S    
C53   H33   S    
C48   C50   S    
C21   C22   A    
C37   C41   A    
C1    O1    A    
C34   O7    A    
C43   H14   S    
C6    H24   S    
C13   H3    S    
C7    C12   S    
C4    C34   S    
C24   C25   A    
C3    C8    A    
C10   C11   A    
C39   C40   A    
C49   O9    D    
C29   H5    S    
C44   H12   S    
C25   C26   A    
C37   N2    A    
C34   O8    A    
Cu1   O5    S    
C50   O12   S    
C47   C48   A    
Cu1   N1    S    
C20   C21   A    
C27   H13   S    
C32   H17   S    
C40   C41   A    
C14   H4    S    
Cu1   Cu2   S    
C53   H34   S    
C52   H31   S    
C22   C27   A    
C1    O2    A    
C3    C4    A    
Cu2   N2    S    
C44   C45   A    
C43   N1    A    
C31   H15   S    
C46   C47   A    
C22   C30   A    
C17   C28   A    
C24   C28   A    
C4    C5    A    
C26   H6    S    
C51   H29   S    
C6    C7    A    
C28   H8    S    
C52   C53   S    
C42   N1    A    
Cu1   O3    S    
C2    C48   A    
C32   C33   A    
C36   C38   A    
C16   C29   A    
C11   C13   A    
C50   O11   D    
C38   C39   A    
C35   H18   S    
C19   H11   S    
C12   O3    A    
O12   H27   S    
C33   C35   A    
C31   C39   A    
C12   O4    A    
C16   H7    S    
C9    C15   A    
O13   C51   S    
C3    H23   S    
C8    C46   S    
C47   H22   S    
C5    C15   S    
C2    H1    S    
C18   H9    S    
O10   H26   S    
C52   H30   S    
C21   C24   A    
C42   H16   S    
C14   C15   A    
C9    H25   S    
C13   C14   A    
Cu2   O4    S    
C41   H20   S    
