data_mof_unit_43589.cif
_audit_creation_date              2012-12-10T18:58:10-0500
_audit_creation_method            fapswitch 2.2
_symmetry_space_group_name_H-M    P1
_symmetry_Int_Tables_number       1
_space_group_crystal_system       triclinic
_cell_length_a                    10.644665
_cell_length_b                    9.975022
_cell_length_c                    15.823603
_cell_angle_alpha                 90.29348
_cell_angle_beta                  92.060881
_cell_angle_gamma                 88.471334
_cell_volume                      1678.46339843

loop_
_atom_site_label
_atom_site_type_symbol
_atom_type_description
_atom_site_fract_x
_atom_site_fract_y
_atom_site_fract_z
_atom_type_partial_charge
C1    C     C_R   0.873714 0.500232 0.510626 -0.101397
C2    C     C_R   0.128682 0.513295 0.522641 -0.146213
C3    C     C_R   0.260654 0.502741 0.506678 0.910069
C4    C     C_R   0.739960 0.499003 0.501980 0.860259
C5    C     C_R   0.500864 0.499761 0.339628 0.934450
C6    C     C_R   0.496147 0.500358 0.660372 0.869479
C7    C     C_R   0.498792 0.625885 0.954755 0.102098
C8    C     C_R   0.436560 0.390086 0.043588 0.045588
C9    C     C_R   0.513868 0.622419 0.043671 0.043278
C10   C     C_R   0.417133 0.395975 0.954954 0.050604
C11   C     C_R   0.455806 0.510350 0.911822 0.036307
C12   C     C_R   0.483666 0.503892 0.086394 0.027392
C13   C     C_1   0.464663 0.504308 0.822235 -0.071735
C14   C     C_1   0.494049 0.501271 0.176090 -0.065894
C15   C     C_1   0.498825 0.499767 0.251111 -0.168255
C16   C     C_1   0.478534 0.501533 0.747970 -0.171934
C17   C     C_R   0.576429 0.069522 0.555121 -0.038777
C18   C     C_R   0.430515 0.929327 0.440570 -0.068039
C19   C     C_R   0.421275 0.072060 0.445302 -0.024339
C20   C     C_R   0.573359 0.926560 0.556989 -0.041839
C21   C     C_R   0.069606 0.427238 0.578620 0.020816
C22   C     C_R   0.937653 0.587899 0.458504 0.099320
C23   C     C_R   0.937613 0.437315 0.580642 0.101343
C24   C     C_R   0.058663 0.618490 0.484212 0.099747
N1    N     N_R   0.500000 0.857200 0.500000 -0.178040
N2    N     N_R   0.500000 0.142800 0.500000 -0.162960
O1    O     O_R   0.316770 0.614620 0.499990 -0.594318
O2    O     O_R   0.683230 0.385380 0.500010 -0.609021
O3    O     O_R   0.683230 0.614620 0.500010 -0.602440
O4    O     O_R   0.316770 0.385380 0.499990 -0.609381
O5    O     O_R   0.499980 0.614630 0.378020 -0.609511
O6    O     O_R   0.500020 0.385370 0.621980 -0.615430
O7    O     O_R   0.500020 0.614630 0.621980 -0.604845
O8    O     O_R   0.499980 0.385370 0.378020 -0.559058
Zn1   Zn    Zn3+2 0.500000 0.653120 0.500000 0.977432
Zn2   Zn    Zn3+2 0.500000 0.346880 0.500000 0.991242
C25   C     C_2   0.664832 0.137339 0.612730 0.952860
O9    O     O_2   0.772663 0.151598 0.591293 -0.664566
O10   O     O_R   0.629399 0.169976 0.694663 -0.809280
H1    H     H_    0.700931 0.206682 0.731014 0.324835
C26   C     C_2   0.379022 0.862748 0.363451 0.995298
O11   O     O_2   0.298550 0.778556 0.367474 -0.624143
O12   O     O_R   0.420464 0.901591 0.284698 -0.848834
H2    H     H_    0.375693 0.853556 0.236198 0.325428
C27   C     C_2   0.314178 0.136829 0.396352 0.915120
O13   O     O_2   0.328516 0.233484 0.351640 -0.597152
O14   O     O_R   0.196369 0.077715 0.396126 -0.864715
H3    H     H_    0.130977 0.127436 0.359132 0.337875
C28   C     C_2   0.658162 0.852959 0.616620 0.985231
O15   O     O_2   0.763221 0.818910 0.595062 -0.671883
O16   O     O_R   0.622605 0.833247 0.699503 -0.819240
H4    H     H_    0.692137 0.787693 0.735107 0.317765
C29   C     C_3   0.566718 0.741603 0.093198 -0.395330
C30   C     C_3   0.710894 0.739949 0.091917 -0.365476
C31   C     C_3   0.765228 0.852022 0.146906 -0.855766
H5    H     H_    0.869446 0.847774 0.145092 0.247711
H6    H     H_    0.730492 0.951302 0.123055 0.263481
H7    H     H_    0.737963 0.840418 0.213547 0.271466
H8    H     H_    0.748891 0.641915 0.115668 0.223680
H9    H     H_    0.742786 0.751565 0.026414 0.216154
H10   H     H_    0.525694 0.837950 0.069217 0.203465
H11   H     H_    0.538874 0.740891 0.159930 0.227743
C32   C     C_3   0.348574 0.286148 0.905672 -0.392423
C33   C     C_3   0.214353 0.334217 0.879682 -0.330229
C34   C     C_3   0.127378 0.216170 0.865902 -0.916005
H12   H     H_    0.169471 0.141419 0.822773 0.268532
H13   H     H_    0.110727 0.166863 0.927121 0.262087
H14   H     H_    0.035860 0.251538 0.837774 0.252553
H15   H     H_    0.174225 0.400360 0.929238 0.220341
H16   H     H_    0.217001 0.394193 0.820958 0.213907
H17   H     H_    0.400763 0.256523 0.848620 0.217619
H18   H     H_    0.343044 0.192488 0.941739 0.214862
C35   C     C_3   0.526978 0.751207 0.903972 -0.380213
C36   C     C_3   0.406975 0.820379 0.866184 -0.289994
C37   C     C_3   0.323090 0.878949 0.934196 -0.909429
H19   H     H_    0.290574 0.798464 0.975729 0.270351
H20   H     H_    0.375008 0.953569 0.973072 0.248708
H21   H     H_    0.239284 0.929632 0.903740 0.248607
H22   H     H_    0.434362 0.903195 0.824442 0.245605
H23   H     H_    0.352122 0.749166 0.826528 0.226625
H24   H     H_    0.580952 0.826980 0.939808 0.193430
H25   H     H_    0.589532 0.721590 0.852319 0.190594
C38   C     C_3   0.408654 0.263437 0.093124 -0.382055
C39   C     C_3   0.269320 0.259609 0.114670 -0.334272
C40   C     C_3   0.236330 0.123629 0.150057 -0.835375
H26   H     H_    0.250042 0.043807 0.101819 0.248337
H27   H     H_    0.296448 0.100054 0.206892 0.313034
H28   H     H_    0.136419 0.125741 0.168039 0.244280
H29   H     H_    0.248618 0.338801 0.162268 0.242046
H30   H     H_    0.208170 0.279647 0.057802 0.226905
H31   H     H_    0.439841 0.171997 0.058805 0.179106
H32   H     H_    0.466153 0.256503 0.152937 0.224172
C41   C     C_3   0.145635 0.332095 0.636491 -0.436905
C42   C     C_3   0.147733 0.190659 0.598500 -0.274253
C43   C     C_3   0.256263 0.103345 0.635006 -0.840806
H33   H     H_    0.345026 0.159197 0.638934 0.291924
H34   H     H_    0.234840 0.066763 0.698593 0.248492
H35   H     H_    0.270704 0.015311 0.593161 0.249059
H36   H     H_    0.056956 0.142301 0.609318 0.231374
H37   H     H_    0.157764 0.197541 0.529419 0.265290
H38   H     H_    0.242345 0.368690 0.647415 0.203897
H39   H     H_    0.107039 0.328853 0.700105 0.203524
C44   C     C_3   0.881650 0.649567 0.377289 -0.406402
C45   C     C_3   0.849593 0.542140 0.310568 -0.373668
C46   C     C_3   0.967180 0.470408 0.278029 -0.800739
H40   H     H_    0.031162 0.543805 0.250972 0.260139
H41   H     H_    0.017925 0.414598 0.329973 0.267696
H42   H     H_    0.939574 0.397740 0.227769 0.233738
H43   H     H_    0.786255 0.466944 0.336174 0.214048
H44   H     H_    0.798206 0.591484 0.256583 0.216816
H45   H     H_    0.796819 0.712221 0.389906 0.213354
H46   H     H_    0.948964 0.718716 0.349283 0.210352
C47   C     C_3   0.870223 0.404494 0.661055 -0.366123
C48   C     C_3   0.893543 0.512838 0.728784 -0.404116
C49   C     C_3   0.827056 0.483151 0.810134 -0.906418
H47   H     H_    0.724210 0.483130 0.797800 0.270047
H48   H     H_    0.857791 0.384164 0.835976 0.262540
H49   H     H_    0.848583 0.561706 0.858080 0.251743
H50   H     H_    0.995761 0.521476 0.743726 0.229388
H51   H     H_    0.856960 0.610955 0.704418 0.243231
H52   H     H_    0.767343 0.400305 0.649478 0.222440
H53   H     H_    0.901485 0.304683 0.685516 0.222532
C50   C     C_3   0.083623 0.764585 0.507438 -0.312970
C51   C     C_3   0.068496 0.793518 0.602393 -0.331401
C52   C     C_3   0.184022 0.753599 0.657994 -0.867453
H54   H     H_    0.271749 0.789035 0.630808 0.284359
H55   H     H_    0.174719 0.799470 0.721603 0.236952
H56   H     H_    0.191573 0.643468 0.666348 0.245079
H57   H     H_    0.049996 0.902681 0.610686 0.234695
H58   H     H_    0.986007 0.741512 0.625447 0.257939
H59   H     H_    0.176082 0.798076 0.488814 0.262091
H60   H     H_    0.015157 0.831586 0.472326 0.189084

loop_
_geom_bond_atom_site_label_1
_geom_bond_atom_site_label_2
_ccdc_geom_bond_type
C6    O6    A    
C31   H5    S    
C41   C42   S    
C50   H60   S    
C8    C38   S    
C35   C36   S    
C10   C32   S    
O12   H2    S    
C28   O16   S    
C48   C49   S    
C43   H35   S    
C50   C51   S    
C7    C35   S    
C30   H9    S    
C27   O13   D    
C7    C11   A    
C38   H32   S    
C46   H41   S    
C25   O9    D    
C17   N2    A    
O6    Zn2   S    
C45   H43   S    
C20   N1    A    
C49   H47   S    
C17   C20   A    
C44   H45   S    
C18   C19   A    
C26   O11   D    
C28   O15   D    
C19   N2    A    
C29   H10   S    
C47   H53   S    
O14   H3    S    
C34   H13   S    
C52   H56   S    
C33   H16   S    
C4    O3    A    
C34   H14   S    
C27   O14   S    
C1    C22   A    
C36   H23   S    
C26   O12   S    
C18   N1    A    
C39   H30   S    
C35   H24   S    
C45   C46   S    
C4    O2    A    
C30   H8    S    
C40   H27   S    
C46   H42   S    
C36   C37   S    
O16   H4    S    
C39   C40   S    
C18   C26   S    
C41   H38   S    
O10   H1    S    
C49   H48   S    
C37   H21   S    
C40   H26   S    
C24   C50   S    
C22   C44   S    
C44   H46   S    
C3    O4    A    
C37   H19   S    
C20   C28   S    
C23   C47   S    
C29   H11   S    
C38   C39   S    
C42   H37   S    
C8    C12   A    
C49   H49   S    
C5    O8    A    
C2    C21   A    
C19   C27   S    
C51   H58   S    
C17   C25   S    
C33   H15   S    
C37   H20   S    
N1    Zn1   S    
N2    Zn2   S    
C32   H17   S    
C1    C23   A    
C36   H22   S    
C31   H6    S    
C2    C24   A    
C52   H54   S    
C22   C24   A    
C13   C16   T    
C9    C29   S    
C39   H29   S    
C35   H25   S    
C47   C48   S    
C40   H28   S    
C7    C9    A    
C30   C31   S    
C50   H59   S    
C48   H50   S    
C12   C14   S    
C41   H39   S    
C43   H34   S    
C29   C30   S    
C38   H31   S    
C46   H40   S    
O3    Zn1   S    
C6    O7    A    
O4    Zn2   S    
C1    C4    S    
O1    Zn1   S    
C33   C34   S    
C21   C23   A    
C2    C3    S    
C43   H33   S    
C25   O10   S    
C45   H44   S    
C11   C13   S    
C21   C41   S    
C42   H36   S    
O5    Zn1   S    
C3    O1    A    
O7    Zn1   S    
C51   H57   S    
O8    Zn2   S    
C42   C43   S    
C9    C12   A    
C5    C15   S    
C10   C11   A    
C6    C16   S    
C32   C33   S    
C47   H52   S    
C32   H18   S    
O2    Zn2   S    
C8    C10   A    
C34   H12   S    
C31   H7    S    
C44   C45   S    
C52   H55   S    
C14   C15   T    
C48   H51   S    
C51   C52   S    
C5    O5    A    
