data_mof_unit_41470.cif
_audit_creation_date              2013-03-05T17:00:47-0500
_audit_creation_method            fapswitch 2.2
_symmetry_space_group_name_H-M    P1
_symmetry_Int_Tables_number       1
_space_group_crystal_system       triclinic
_cell_length_a                    14.802799
_cell_length_b                    16.169971
_cell_length_c                    16.615101
_cell_angle_alpha                 88.340624
_cell_angle_beta                  90.165303
_cell_angle_gamma                 90.751023
_cell_volume                      3974.98259418

loop_
_atom_site_label
_atom_site_type_symbol
_atom_site_description
_atom_site_fract_x
_atom_site_fract_y
_atom_site_fract_z
_atom_type_partial_charge
O1    O     O_R   0.496050 0.422540 0.612660 -0.535555
O2    O     O_R   0.503950 0.577460 0.387340 -0.590182
O3    O     O_R   0.503140 0.561840 0.618900 -0.609871
O4    O     O_R   0.496860 0.438160 0.381100 -0.594734
C1    C     C_R   0.496886 0.489302 0.654129 1.060302
C2    C     C_R   0.500946 0.510385 0.345712 1.030249
O5    O     O_R   0.628610 0.430340 0.496900 -0.612749
O6    O     O_R   0.371390 0.569660 0.503100 -0.604665
O7    O     O_R   0.635690 0.569650 0.503140 -0.644201
O8    O     O_R   0.364310 0.430350 0.496860 -0.601175
C3    C     C_R   0.673247 0.498767 0.500776 1.021532
C4    C     C_R   0.326677 0.500825 0.499708 1.007561
Zn1   Zn    Zn3+2 0.495270 0.406980 0.495830 1.051800
Zn2   Zn    Zn3+2 0.504730 0.593020 0.504170 1.004588
C5    C     C_R   0.185524 0.486339 0.425916 0.197688
C6    C     C_R   0.813681 0.481147 0.576381 0.215600
C7    C     C_R   0.230178 0.499146 0.499161 -0.309005
C8    C     C_R   0.769377 0.494191 0.502620 -0.343417
C9    C     C_R   0.186319 0.490324 0.573419 0.447727
C10   C     C_R   0.814614 0.494168 0.429197 0.442881
C11   C     C_R   0.094603 0.466691 0.575023 -0.129220
C12   C     C_R   0.905084 0.470066 0.428101 -0.137861
C13   C     C_R   0.046812 0.465129 0.501234 -0.099267
C14   C     C_R   0.952524 0.464544 0.501896 -0.110462
C15   C     C_R   0.092824 0.467831 0.426676 -0.113568
C16   C     C_R   0.906285 0.464272 0.576219 -0.116786
C17   C     C_R   0.048522 0.445352 0.647468 0.164980
C18   C     C_R   0.949985 0.452500 0.355865 0.165830
C19   C     C_R   0.953698 0.443340 0.647526 0.433538
C20   C     C_R   0.044597 0.448381 0.356006 0.432427
C21   C     C_R   0.477171 0.483120 0.741397 -0.370914
C22   C     C_R   0.486987 0.514852 0.257414 -0.389519
C23   C     C_R   0.451792 0.555110 0.781959 0.266405
C24   C     C_R   0.457380 0.442262 0.217766 0.377111
C25   C     C_R   0.405471 0.547623 0.855069 0.150817
C26   C     C_R   0.409930 0.450488 0.145158 0.175044
C27   C     C_R   0.405276 0.470751 0.898111 0.027925
C28   C     C_R   0.416728 0.525951 0.100277 0.000008
C29   C     C_R   0.438479 0.400129 0.861541 0.377466
C30   C     C_R   0.459453 0.594911 0.133910 0.381421
C31   C     C_R   0.468918 0.404921 0.781831 0.186691
C32   C     C_R   0.488292 0.591670 0.214225 0.134560
N1    N     N_2   0.392530 0.464634 0.982540 -0.070433
N2    N     N_2   0.399904 0.531914 0.016509 -0.065946
N3    N     N_R   0.511030 0.716920 0.509720 -0.139183
N4    N     N_R   0.488970 0.283080 0.490280 -0.161453
C33   C     C_R   0.436248 0.762742 0.490230 0.495980
C34   C     C_R   0.554423 0.235825 0.527320 0.516770
C35   C     C_R   0.438195 0.849947 0.494599 0.296128
C36   C     C_R   0.545508 0.148833 0.531811 0.274506
C37   C     C_R   0.521062 0.891090 0.510306 0.154091
C38   C     C_R   0.479248 0.109259 0.484378 0.147710
C39   C     C_R   0.596474 0.842392 0.528841 -0.366851
C40   C     C_R   0.416857 0.159482 0.442887 -0.360932
C41   C     C_R   0.590194 0.755714 0.528655 -0.125323
C42   C     C_R   0.421502 0.246040 0.447958 -0.091111
N5    N     N_2   0.531445 0.979374 0.512249 -0.098207
N6    N     N_2   0.470749 0.020919 0.478252 -0.103742
H1    H     H_    0.660405 0.871671 0.543532 0.192603
H2    H     H_    0.363826 0.131454 0.407448 0.196408
H3    H     H_    0.649157 0.719661 0.543674 0.181373
H4    H     H_    0.371808 0.283710 0.416862 0.210099
N7    N     N_R   0.233958 0.496906 0.351399 0.218109
O9    O     O_R   0.301275 0.449305 0.335721 -0.419958
O10   O     O_R   0.208443 0.551790 0.297578 -0.360397
N8    N     N_R   0.767055 0.495751 0.650262 0.225616
O11   O     O_R   0.694345 0.453885 0.669254 -0.416235
O12   O     O_R   0.794061 0.555178 0.696075 -0.375050
O13   O     O_3   0.603778 0.103382 0.580225 -0.651637
C43   C     C_3   0.569796 0.099822 0.659537 0.151386
H5    H     H_    0.496604 0.082154 0.660801 0.143370
H6    H     H_    0.579479 0.160786 0.687821 0.221659
C44   C     C_3   0.621925 0.034602 0.708220 -0.386745
H7    H     H_    0.612563 0.973644 0.679931 0.233177
H8    H     H_    0.695139 0.050778 0.707505 0.233326
C45   C     C_3   0.589322 0.028099 0.795226 -0.909434
H9    H     H_    0.599310 0.088117 0.825051 0.269344
H10   H     H_    0.628488 0.980128 0.828740 0.268445
H11   H     H_    0.516615 0.010292 0.797306 0.276794
O14   O     O_3   0.359227 0.892884 0.479658 -0.630351
C46   C     C_3   0.320191 0.917283 0.552950 0.137585
H12   H     H_    0.327079 0.985505 0.556957 0.170703
H13   H     H_    0.352210 0.889450 0.608119 0.100620
C47   C     C_3   0.219566 0.894937 0.552619 -0.363788
H14   H     H_    0.187782 0.920814 0.496826 0.233288
H15   H     H_    0.211137 0.826573 0.553065 0.234992
C48   C     C_3   0.171481 0.929180 0.625411 -0.933537
H16   H     H_    0.203040 0.905897 0.682234 0.275112
H17   H     H_    0.099416 0.909274 0.624835 0.269342
H18   H     H_    0.174832 0.997879 0.623342 0.274393
O15   O     O_3   0.236380 0.500404 0.643321 -0.616935
C49   C     C_3   0.211760 0.574123 0.681294 0.115388
H19   H     H_    0.227855 0.565556 0.746312 0.232654
H20   H     H_    0.138184 0.587488 0.677483 0.137520
C50   C     C_3   0.265742 0.648392 0.647475 -0.386799
H21   H     H_    0.338379 0.633014 0.645609 0.297768
H22   H     H_    0.242633 0.663497 0.585180 0.235345
C51   C     C_3   0.253492 0.723747 0.699133 -0.838823
H23   H     H_    0.182774 0.745556 0.694753 0.256194
H24   H     H_    0.300050 0.773843 0.678080 0.257747
H25   H     H_    0.269633 0.708795 0.763030 0.320775
O16   O     O_3   0.769413 0.521640 0.360231 -0.619514
C52   C     C_3   0.804893 0.599693 0.333162 0.168768
H26   H     H_    0.775098 0.613580 0.272939 0.206492
H27   H     H_    0.879229 0.598717 0.324017 0.134442
C53   C     C_3   0.781107 0.669898 0.389681 -0.391571
H28   H     H_    0.707402 0.669738 0.400896 0.291471
H29   H     H_    0.816306 0.660817 0.448364 0.204426
C54   C     C_3   0.809105 0.754154 0.353599 -0.880299
H30   H     H_    0.883215 0.756640 0.343268 0.254572
H31   H     H_    0.791182 0.803312 0.395829 0.265389
H32   H     H_    0.773398 0.766139 0.295612 0.290311
N9    N     N_R   0.096553 0.422085 0.719767 0.222097
O17   O     O_R   0.157925 0.365276 0.717998 -0.328627
O18   O     O_R   0.072712 0.450993 0.788731 -0.326429
N10   N     N_R   0.900401 0.434690 0.283683 0.224958
O19   O     O_R   0.832193 0.383097 0.286562 -0.415732
O20   O     O_R   0.927838 0.464129 0.214115 -0.339722
O21   O     O_3   0.907221 0.418584 0.716542 -0.557515
C55   C     C_3   0.907617 0.331078 0.725618 0.108611
H33   H     H_    0.953659 0.314196 0.776251 0.211199
H34   H     H_    0.931063 0.298364 0.671222 0.095531
C56   C     C_3   0.812160 0.299841 0.745784 -0.259346
H35   H     H_    0.784301 0.335730 0.795880 0.263589
H36   H     H_    0.768249 0.308998 0.692072 0.275785
C57   C     C_3   0.811089 0.208167 0.770251 -0.984322
H37   H     H_    0.839548 0.170851 0.721568 0.264319
H38   H     H_    0.740422 0.187317 0.781796 0.282862
H39   H     H_    0.851271 0.197724 0.826089 0.276530
O22   O     O_3   0.089378 0.424255 0.287560 -0.537088
C58   C     C_3   0.082646 0.337116 0.280585 0.164892
H40   H     H_    0.069111 0.324138 0.216337 0.208545
H41   H     H_    0.026040 0.307453 0.315757 0.102057
C59   C     C_3   0.171898 0.296798 0.305208 -0.316715
H42   H     H_    0.226989 0.322042 0.266025 0.309365
H43   H     H_    0.187843 0.311056 0.368754 0.219810
C60   C     C_3   0.167242 0.203104 0.297225 -0.920908
H44   H     H_    0.114201 0.175881 0.337462 0.258122
H45   H     H_    0.233287 0.176077 0.314581 0.272058
H46   H     H_    0.152038 0.187105 0.234000 0.286485
O23   O     O_3   0.462555 0.364064 0.254091 -0.560635
C61   C     C_3   0.553664 0.337507 0.256891 0.144596
H47   H     H_    0.564249 0.304884 0.315901 0.163598
H48   H     H_    0.604777 0.388946 0.253435 0.139349
C62   C     C_3   0.571431 0.276584 0.190343 -0.371734
H49   H     H_    0.521323 0.224862 0.194595 0.267261
H50   H     H_    0.564094 0.308851 0.130871 0.214322
C63   C     C_3   0.666399 0.241389 0.197401 -0.897325
H51   H     H_    0.717681 0.291396 0.187740 0.306122
H52   H     H_    0.675910 0.194138 0.151187 0.265033
H53   H     H_    0.676686 0.211524 0.257745 0.264845
O24   O     O_3   0.466208 0.633410 0.748456 -0.596464
C64   C     C_3   0.555292 0.659048 0.767402 0.189835
H54   H     H_    0.604493 0.625148 0.730476 0.183221
H55   H     H_    0.571516 0.647713 0.832476 0.114303
C65   C     C_3   0.565372 0.751840 0.749142 -0.334824
H56   H     H_    0.538904 0.766744 0.687953 0.231342
H57   H     H_    0.524974 0.786367 0.793018 0.246730
C66   C     C_3   0.664038 0.779784 0.754199 -0.945317
H58   H     H_    0.692032 0.764658 0.814875 0.272325
H59   H     H_    0.669171 0.847623 0.743221 0.263273
H60   H     H_    0.704696 0.748902 0.707946 0.282059
N11   N     N_R   0.350840 0.384621 0.119798 0.258778
O25   O     O_R   0.269349 0.401537 0.095364 -0.283892
O26   O     O_R   0.374309 0.307579 0.127681 -0.386725
N12   N     N_R   0.356986 0.617202 0.884461 0.243041
O27   O     O_R   0.275251 0.606746 0.911930 -0.319235
O28   O     O_R   0.392415 0.691272 0.881759 -0.394163
O29   O     O_3   0.436969 0.324093 0.902442 -0.547195
C67   C     C_3   0.512503 0.316726 0.954782 0.131181
H61   H     H_    0.494030 0.269915 0.002325 0.207481
H62   H     H_    0.529529 0.374837 0.986213 0.094723
C68   C     C_3   0.596147 0.286722 0.910545 -0.368332
H63   H     H_    0.577381 0.233607 0.872709 0.267005
H64   H     H_    0.623449 0.337821 0.871316 0.240586
C69   C     C_3   0.670012 0.259811 0.969480 -0.947941
H65   H     H_    0.688542 0.311226 0.009530 0.279291
H66   H     H_    0.730960 0.242035 0.935661 0.283729
H67   H     H_    0.646476 0.205480 0.006437 0.270666
O30   O     O_3   0.469924 0.667928 0.088763 -0.543568
C70   C     C_3   0.545719 0.663146 0.037060 0.136586
H68   H     H_    0.532943 0.704848 0.984094 0.204655
H69   H     H_    0.556105 0.600299 0.013034 0.091007
C71   C     C_3   0.632256 0.692568 0.078818 -0.355416
H70   H     H_    0.620524 0.753189 0.106607 0.275548
H71   H     H_    0.651370 0.646833 0.126806 0.237205
C72   C     C_3   0.710339 0.701709 0.019318 -0.924395
H72   H     H_    0.723273 0.641741 0.990745 0.276081
H73   H     H_    0.772415 0.721444 0.051580 0.284459
H74   H     H_    0.694545 0.749155 0.971853 0.261284
N13   N     N_R   0.494769 0.330005 0.744343 0.237815
O31   O     O_R   0.439330 0.266912 0.743810 -0.360987
O32   O     O_R   0.577694 0.320848 0.720981 -0.388984
N14   N     N_R   0.522788 0.665901 0.249236 0.229156
O33   O     O_R   0.603176 0.666811 0.280763 -0.444795
O34   O     O_R   0.481295 0.735645 0.237278 -0.382528
O35   O     O_3   0.627414 0.272865 0.564650 -0.572250
C73   C     C_3   0.703628 0.274061 0.512682 0.135642
H75   H     H_    0.746079 0.327643 0.529583 0.186695
H76   H     H_    0.685394 0.283966 0.447858 0.109733
C74   C     C_3   0.762651 0.197332 0.523713 -0.374217
H77   H     H_    0.767832 0.179868 0.588657 0.260591
H78   H     H_    0.732099 0.145071 0.490867 0.249705
C75   C     C_3   0.857567 0.213343 0.490294 -0.965022
H79   H     H_    0.854123 0.231482 0.425348 0.284623
H80   H     H_    0.898004 0.156221 0.497229 0.273171
H81   H     H_    0.892084 0.263428 0.523498 0.261177
O36   O     O_3   0.355966 0.723607 0.471320 -0.648460
C76   C     C_3   0.338985 0.732196 0.387636 0.187142
H82   H     H_    0.364286 0.676568 0.357643 0.193109
H83   H     H_    0.371744 0.788009 0.358529 0.173491
C77   C     C_3   0.237174 0.737794 0.373760 -0.393402
H84   H     H_    0.203683 0.679756 0.396213 0.240200
H85   H     H_    0.210015 0.789848 0.408024 0.228591
C78   C     C_3   0.215083 0.752390 0.284702 -0.768167
H86   H     H_    0.241209 0.814002 0.263739 0.259560
H87   H     H_    0.140704 0.750574 0.275915 0.257822
H88   H     H_    0.245891 0.704099 0.247777 0.306884

loop_
_geom_bond_atom_site_label_1
_geom_bond_atom_site_label_2
_geom_bond_distance
_ccdc_geom_bond_type
C2    C22   1.480799 S    
C48   H16   1.110322 S    
N7    O10   1.300312 A    
C3    C8    1.426087 S    
C57   H37   1.110286 S    
C17   C19   1.403618 A    
C44   H8    1.111567 S    
C74   H77   1.110146 S    
N8    O12   1.301212 A    
C50   H21   1.107512 S    
C47   C48   1.526460 S    
C78   H86   1.110853 S    
C58   C59   1.530337 S    
C25   N12   1.440292 S    
C59   C60   1.525293 S    
C62   H49   1.111425 S    
C39   H1    1.083024 S    
C50   C51   1.523658 S    
C56   H35   1.111698 S    
C29   C31   1.399865 A    
C40   H2    1.082502 S    
C68   H63   1.110857 S    
C71   H70   1.111460 S    
O5    C3    1.284408 A    
C60   H45   1.110051 S    
C53   H29   1.111086 S    
C33   O36   1.378797 S    
O1    C1    1.297298 A    
C12   C14   1.412370 A    
C65   H56   1.109596 S    
N11   O26   1.300545 A    
C36   O13   1.381865 S    
C45   H10   1.110320 S    
O13   C43   1.411238 S    
C54   H31   1.110620 S    
Zn1   N4    2.009180 S    
C23   C25   1.398040 A    
C5    C15   1.400657 A    
C10   O16   1.389945 S    
C53   H28   1.107330 S    
O35   C73   1.422255 S    
C76   C77   1.527420 S    
N10   O19   1.301391 A    
O29   C67   1.418639 S    
O4    Zn1   1.957763 S    
C32   N14   1.436151 S    
C72   H74   1.110757 S    
C1    C21   1.480140 S    
C18   N10   1.438534 S    
C56   H36   1.110130 S    
C46   H13   1.116525 S    
C30   O30   1.387557 S    
C48   H17   1.110317 S    
C69   H67   1.110048 S    
N11   O25   1.301595 A    
C55   H34   1.118675 S    
O36   C76   1.415430 S    
C35   C37   1.414997 A    
C4    C7    1.428355 S    
C26   N11   1.440983 S    
C36   C38   1.414535 A    
C13   C14   1.395721 A    
C66   H59   1.108448 S    
C43   H5    1.116950 S    
C37   N5    1.435083 S    
C64   H55   1.117353 S    
C24   C26   1.398098 A    
C55   C56   1.529147 S    
N3    C33   1.372888 A    
N8    O11   1.298754 A    
C11   C17   1.416947 A    
C28   C30   1.404007 A    
C12   C18   1.411479 A    
N12   O28   1.300822 A    
C74   C75   1.528415 S    
C74   H78   1.109854 S    
C61   C62   1.527661 S    
O2    C2    1.303348 A    
C73   C74   1.533179 S    
C49   H20   1.114405 S    
C62   H50   1.109701 S    
C38   C40   1.404027 A    
C46   H12   1.110415 S    
Zn2   N3    2.009181 S    
C40   C42   1.405372 A    
C39   C41   1.403535 A    
C44   H7    1.111110 S    
C6    C16   1.401220 A    
C38   N6    1.438860 S    
C60   H46   1.110830 S    
N4    C34   1.374812 A    
C43   H6    1.111720 S    
C31   N13   1.434944 S    
N13   O31   1.301120 A    
C63   H53   1.111152 S    
C47   H14   1.111738 S    
C33   C35   1.413974 A    
C70   H69   1.115183 S    
O15   C49   1.417071 S    
C56   C57   1.525603 S    
C59   H43   1.111241 S    
O6    Zn2   2.004881 S    
C57   H39   1.110595 S    
O3    C1    1.297950 A    
C70   H68   1.110393 S    
C23   O24   1.382466 S    
C49   C50   1.528017 S    
C54   H32   1.110912 S    
C37   C39   1.402885 A    
C22   C24   1.425986 A    
C27   N1    1.416404 S    
O7    Zn2   1.980134 S    
N13   O32   1.300097 A    
C44   C45   1.525665 S    
C28   N2    1.413969 S    
C19   O21   1.385371 S    
C30   C32   1.399633 A    
C66   H58   1.110791 S    
C75   H81   1.111191 S    
O5    Zn1   2.004881 S    
O6    C4    1.290059 A    
C43   C44   1.526516 S    
C21   C23   1.417310 A    
C76   H82   1.110674 S    
C55   H33   1.111318 S    
C66   H60   1.111285 S    
C52   H27   1.111631 S    
C6    C8    1.400202 A    
C45   H9    1.110365 S    
C64   C65   1.527636 S    
O7    C3    1.282100 A    
C73   H75   1.105997 S    
C68   H64   1.110164 S    
O8    C4    1.277164 A    
C17   N9    1.437356 S    
O4    C2    1.293015 A    
C69   H65   1.110972 S    
C77   H85   1.110014 S    
C51   H24   1.106293 S    
C11   C13   1.414392 A    
N1    N2    1.243424 D    
N12   O27   1.301583 A    
C24   O23   1.388189 S    
C42   H4    1.081872 S    
C78   H88   1.110325 S    
O1    Zn1   1.964574 S    
C10   C12   1.399971 A    
C58   H40   1.110998 S    
N14   O34   1.301179 A    
C46   C47   1.528150 S    
C62   C63   1.526447 S    
N9    O17   1.301394 A    
C70   C71   1.531881 S    
C15   C20   1.413484 A    
C5    C7    1.402576 A    
C76   H83   1.117202 S    
C57   H38   1.110348 S    
C21   C31   1.418597 A    
C25   C27   1.415971 A    
C77   C78   1.526836 S    
C65   C66   1.525964 S    
C14   C16   1.413480 A    
C63   H52   1.109321 S    
O14   C46   1.417862 S    
C58   H41   1.117919 S    
O8    Zn1   1.980136 S    
C68   C69   1.524921 S    
O21   C55   1.418714 S    
C50   H22   1.110620 S    
C59   H42   1.111062 S    
O3    Zn2   1.957763 S    
C51   H25   1.108078 S    
C60   H44   1.110906 S    
C71   H71   1.110285 S    
C71   C72   1.526046 S    
C34   O35   1.382583 S    
C65   H57   1.111565 S    
O22   C58   1.419316 S    
C18   C20   1.402965 A    
C27   C29   1.404077 A    
C20   O22   1.386273 S    
O23   C61   1.420963 S    
C26   C28   1.414104 A    
C75   H80   1.110246 S    
N5    N6    1.252411 D    
C77   H84   1.110993 S    
C67   H62   1.113841 S    
C22   C32   1.416360 A    
C41   H3    1.080560 S    
C34   C36   1.410949 A    
C49   H19   1.110718 S    
C7    C9    1.398621 A    
N10   O20   1.301291 A    
N14   O33   1.298855 A    
C52   C53   1.539044 S    
C8    C10   1.393338 A    
C63   H51   1.110402 S    
C13   C15   1.414689 A    
O16   C52   1.422035 S    
O2    Zn2   1.964572 S    
C72   H73   1.110376 S    
C78   H87   1.110347 S    
C9    O15   1.388334 S    
N7    O9    1.298634 A    
C72   H72   1.111027 S    
C45   H11   1.110853 S    
C6    N8    1.436996 S    
C75   H79   1.111216 S    
N3    C41   1.362254 A    
C16   C19   1.410340 A    
C29   O29   1.387425 S    
C51   H23   1.110522 S    
C67   H61   1.110371 S    
C48   H18   1.110864 S    
N4    C42   1.362083 A    
C52   H26   1.110497 S    
C35   O14   1.385544 S    
C5    N7    1.437291 S    
C61   H47   1.111511 S    
C47   H15   1.110656 S    
C73   H76   1.117145 S    
O24   C64   1.414486 S    
N9    O18   1.301411 A    
C64   H54   1.113475 S    
C54   H30   1.110896 S    
C67   C68   1.533072 S    
C61   H48   1.117409 S    
O30   C70   1.419324 S    
C69   H66   1.109682 S    
C9    C11   1.405693 A    
C53   C54   1.525331 S    
