data_mof_unit_20842.cif
_audit_creation_date              2012-10-26T20:17:13-0400
_audit_creation_method            fapswitch 2.2
_symmetry_space_group_name_H-M    P1
_symmetry_Int_Tables_number       1
_space_group_crystal_system       triclinic
_cell_length_a                    10.630754
_cell_length_b                    11.058999
_cell_length_c                    9.921755
_cell_angle_alpha                 111.581626
_cell_angle_beta                  98.888833
_cell_angle_gamma                 90.61192
_cell_volume                      1068.75639108

loop_
_atom_site_label
_atom_site_type_symbol
_atom_type_description
_atom_site_fract_x
_atom_site_fract_y
_atom_site_fract_z
_atom_type_partial_charge
C1    C     C_R   0.490695 0.254081 0.440386 0.551607
C2    C     C_3   0.122607 0.500236 0.501627 0.046421
C3    C     C_3   0.972696 0.615688 0.594345 -0.131108
C4    C     C_3   0.027300 0.384540 0.405851 -0.126578
C5    C     C_2   0.485562 0.114288 0.406941 -0.138767
C6    C     C_2   0.514206 0.885701 0.592998 -0.138029
C7    C     C_2   0.501993 0.069654 0.516072 -0.163490
C8    C     C_2   0.497607 0.930303 0.483837 -0.165232
C9    C     C_2   0.496256 0.523146 0.085845 -0.011880
C10   C     C_2   0.477728 0.504436 0.921045 -0.012063
C11   C     C_3   0.655214 0.651879 0.968412 -0.112985
C12   C     C_R   0.509247 0.745917 0.559607 0.551226
C13   C     C_3   0.760984 0.695947 0.905376 -0.358000
C14   C     C_3   0.346980 0.345955 0.030892 -0.112748
C15   C     C_3   0.300220 0.239736 0.078679 -0.355688
C16   C     C_R   0.259462 0.499991 0.500552 0.547317
C17   C     C_R   0.740538 0.500092 0.499486 0.547880
C18   C     C_3   0.060083 0.519944 0.636829 -0.117198
C19   C     C_3   0.939925 0.480291 0.363372 -0.111826
C20   C     C_3   0.962508 0.404232 0.540937 -0.124857
C21   C     C_3   0.037497 0.596007 0.459269 -0.121245
C22   C     C_3   0.877401 0.499982 0.498549 0.043626
Cu1   Cu    Cu3+1 0.522260 0.521810 0.644920 0.918302
Cu2   Cu    Cu3+1 0.477740 0.478190 0.355080 0.919110
H1    H     H_    0.928661 0.325769 0.574236 0.108222
H2    H     H_    0.468459 0.047481 0.292617 0.089931
H3    H     H_    0.397123 0.443226 0.845552 0.128498
H4    H     H_    0.558661 0.603608 0.166157 0.127687
H5    H     H_    0.822939 0.615404 0.861818 0.159615
H6    H     H_    0.724581 0.738297 0.823532 0.187838
H7    H     H_    0.823286 0.774469 0.996385 0.074944
H8    H     H_    0.609365 0.739992 0.032142 0.107833
H9    H     H_    0.708002 0.610555 0.045439 0.099886
H10   H     H_    0.377029 0.174340 0.086629 0.155874
H11   H     H_    0.259117 0.278795 0.180347 0.187529
H12   H     H_    0.071321 0.674505 0.426010 0.108423
H13   H     H_    0.222177 0.177844 0.991639 0.075892
H14   H     H_    0.262426 0.395031 0.000707 0.108003
H15   H     H_    0.386574 0.290370 0.930123 0.099320
H16   H     H_    0.111774 0.536118 0.748885 0.110365
H17   H     H_    0.888203 0.464149 0.251340 0.116287
H18   H     H_    0.947170 0.710221 0.671322 0.097613
H19   H     H_    0.052793 0.289985 0.328886 0.096312
H20   H     H_    0.480579 0.863732 0.369340 0.150672
H21   H     H_    0.518976 0.136214 0.630572 0.155354
H22   H     H_    0.531328 0.952537 0.707308 0.095072
N1    N     N_2   0.444270 0.445410 0.137360 -0.217030
N2    N     N_2   0.555730 0.554590 0.862640 -0.217309
O1    O     O_R   0.511880 0.332340 0.577400 -0.495414
O2    O     O_R   0.488120 0.667660 0.422600 -0.503942
O3    O     O_R   0.474280 0.295500 0.332650 -0.504874
O4    O     O_R   0.525720 0.704500 0.667350 -0.502821
O5    O     O_R   0.335640 0.518390 0.622350 -0.509379
O6    O     O_R   0.664360 0.481610 0.377650 -0.500409
O7    O     O_R   0.298050 0.481550 0.377590 -0.505604
O8    O     O_R   0.701950 0.518450 0.622410 -0.508183

loop_
_geom_bond_atom_site_label_1
_geom_bond_atom_site_label_2
_ccdc_geom_bond_type
C10   H3    S    
C2    C4    S    
Cu1   Cu2   S    
C3    H18   S    
Cu1   O5    S    
C14   N1    S    
C4    H19   S    
C14   H14   S    
C2    C16   S    
C9    C10   S    
C15   H10   S    
C12   O2    A    
C17   C22   S    
C4    C19   S    
C11   H9    S    
Cu2   O3    S    
Cu1   O4    S    
C16   O7    A    
Cu1   O8    S    
C21   H12   S    
Cu2   O7    S    
C10   N2    D    
C1    O3    A    
C17   O8    A    
C11   N2    S    
C2    C21   S    
C1    C5    S    
C7    H21   S    
C6    C12   S    
C15   H11   S    
C19   C21   S    
C20   C22   S    
C11   H8    S    
C9    N1    D    
C18   C20   S    
Cu2   O2    S    
C3    C21   S    
Cu1   O1    S    
C20   H1    S    
Cu2   O6    S    
C5    H2    S    
C4    C20   S    
C8    H20   S    
C13   H6    S    
C11   C13   S    
C19   C22   S    
C3    C18   S    
C7    C8    S    
C13   H5    S    
C5    C7    D    
C18   H16   S    
C14   C15   S    
C15   H13   S    
C3    C22   S    
C6    C8    D    
Cu1   N2    S    
C6    H22   S    
C12   O4    A    
C14   H15   S    
C16   O5    A    
Cu2   N1    S    
C1    O1    A    
C17   O6    A    
C13   H7    S    
C19   H17   S    
C9    H4    S    
C2    C18   S    
