data_mof_unit_56732.cif
_audit_creation_date              2012-12-11T15:53:46-0500
_audit_creation_method            fapswitch 2.2
_symmetry_space_group_name_H-M    P1
_symmetry_Int_Tables_number       1
_space_group_crystal_system       triclinic
_cell_length_a                    10.715338
_cell_length_b                    10.709296
_cell_length_c                    17.098542
_cell_angle_alpha                 80.140346
_cell_angle_beta                  99.90277
_cell_angle_gamma                 118.296225
_cell_volume                      1692.79661495

loop_
_atom_site_label
_atom_site_type_symbol
_atom_type_description
_atom_site_fract_x
_atom_site_fract_y
_atom_site_fract_z
_atom_type_partial_charge
C1    C     C_R   0.359176 0.224015 0.626529 0.546370
C2    C     C_R   0.486058 0.732552 0.724010 -0.147625
C3    C     C_R   0.475913 0.733999 0.803711 -0.143686
C4    C     C_3   0.077590 0.514333 0.771789 -0.119001
C5    C     C_3   0.089435 0.505428 0.685038 0.132779
C6    C     C_R   0.364640 0.649007 0.674462 -0.018394
C7    C     C_1   0.820467 0.655485 0.706504 -0.051410
C8    C     C_1   0.847734 0.684280 0.773987 -0.052326
C9    C     C_1   0.331245 0.158598 0.706056 -0.009369
C10   C     C_1   0.294785 0.112775 0.772186 -0.003981
C11   C     C_1   0.332364 0.667765 0.278498 -0.017204
C12   C     C_R   0.379708 0.646687 0.592417 0.537510
C13   C     C_1   0.320209 0.677912 0.207756 -0.017319
C14   C     C_R   0.859225 0.678750 0.164774 -0.033469
C15   C     C_R   0.901055 0.593552 0.222640 0.004809
C16   C     C_R   0.890786 0.589597 0.301550 -0.034273
C17   C     C_R   0.829691 0.785288 0.269594 0.239969
C18   C     C_R   0.834571 0.781782 0.189046 -0.124132
C19   C     C_3   0.861263 0.439113 0.227624 -0.239631
C20   C     C_3   0.848281 0.432537 0.315130 -0.235616
C21   C     C_R   0.841323 0.674611 0.326530 -0.005058
C22   C     C_R   0.340470 0.178046 0.156887 0.022707
C23   C     C_R   0.776107 0.618221 0.627205 0.535244
C24   C     C_R   0.290971 0.266575 0.176333 -0.004437
C25   C     C_R   0.300823 0.287239 0.254708 0.008224
C26   C     C_R   0.428403 0.149215 0.296091 -0.169349
C27   C     C_R   0.423939 0.132858 0.216349 -0.160504
C28   C     C_3   0.150733 0.268785 0.156917 -0.244227
C29   C     C_3   0.163550 0.293956 0.243345 -0.231964
C30   C     C_R   0.351590 0.212863 0.315758 0.032527
C31   C     C_R   0.890015 0.701740 0.856097 0.540246
C32   C     C_R   0.314721 0.706100 0.898733 0.533344
C33   C     C_R   0.253236 0.060114 0.851306 0.551459
C34   C     C_R   0.355371 0.234871 0.396866 0.541523
C35   C     C_R   0.890572 0.692158 0.084783 0.552323
C36   C     C_R   0.311452 0.703025 0.124520 0.551551
C37   C     C_R   0.287716 0.109991 0.083997 0.554926
C38   C     C_R   0.364291 0.655250 0.361360 0.547151
C39   C     C_R   0.772752 0.624280 0.399855 0.554732
C40   C     C_R   0.343123 0.655404 0.833812 -0.002010
C41   C     C_R   0.232125 0.551634 0.788795 -0.020292
C42   C     C_R   0.243781 0.546181 0.710275 0.054876
Cr1   Cr    Cr6+3 0.608440 0.389080 0.519680 1.101994
Cr2   Cr    Cr6+3 0.288640 0.400090 0.490760 1.111334
Cr3   Cr    Cr6+3 0.602940 0.710800 0.489510 1.110156
Cr4   Cr    Cr6+3 0.052530 0.947560 0.964210 1.054830
Cr5   Cr    Cr6+3 0.059970 0.626800 0.992920 1.022673
Cr6   Cr    Cr6+3 0.373320 0.938440 0.995370 1.051340
H1    H     H_    0.587601 0.801515 0.700760 0.165757
H2    H     H_    0.757827 0.377587 0.192484 0.156010
H3    H     H_    0.736627 0.364460 0.329398 0.172561
H4    H     H_    0.929663 0.409254 0.355345 0.174856
H5    H     H_    0.483648 0.104817 0.342105 0.135800
H6    H     H_    0.471229 0.070316 0.203001 0.150238
H7    H     H_    0.061871 0.164497 0.141598 0.207930
H8    H     H_    0.157349 0.361492 0.113903 0.153557
H9    H     H_    0.176577 0.399997 0.250243 0.129037
H10   H     H_    0.087167 0.207069 0.281461 0.237639
H11   H     H_    0.567343 0.809040 0.838387 0.159605
H12   H     H_    0.057242 0.604023 0.778317 0.087808
H13   H     H_    0.073524 0.588871 0.642433 0.084502
H14   H     H_    0.817707 0.859139 0.144625 0.181988
H15   H     H_    0.950937 0.421406 0.217225 0.160685
O1    O     O_R   0.754020 0.497590 0.609930 -0.458817
O2    O     O_R   0.295080 0.533620 0.397890 -0.515899
O3    O     O_R   0.485280 0.746620 0.388440 -0.454360
O4    O     O_R   0.720550 0.696220 0.420010 -0.429311
O5    O     O_3   0.500010 0.499990 0.499980 -0.294183
O6    O     O_R   0.163320 0.092900 0.874450 -0.463017
O7    O     O_R   0.934650 0.822080 0.882840 -0.504326
O8    O     O_R   0.915520 0.604140 0.893670 -0.510282
O9    O     O_R   0.191760 0.638110 0.923230 -0.511714
O10   O     O_R   0.406180 0.826930 0.920660 -0.517320
O11   O     O_R   0.358620 0.062870 0.901950 -0.490273
O12   O     O_R   0.481420 0.271390 0.600630 -0.481673
O13   O     O_R   0.163910 0.085460 0.050210 -0.515660
O14   O     O_R   0.935200 0.815170 0.045770 -0.505506
O15   O     O_R   0.916120 0.596690 0.069430 -0.507634
O16   O     O_R   0.192310 0.631200 0.086170 -0.519708
O17   O     O_R   0.406770 0.819480 0.096420 -0.484837
O18   O     O_R   0.359170 0.055960 0.064880 -0.502835
O19   O     O_3   0.161940 0.837600 0.984160 -0.283414
O20   O     O_R   0.263810 0.254550 0.589590 -0.456740
O21   O     O_R   0.300820 0.531200 0.560890 -0.451194
O22   O     O_R   0.491480 0.744020 0.564270 -0.523127
O23   O     O_R   0.726290 0.693800 0.583010 -0.503513
O24   O     O_R   0.747830 0.500190 0.434090 -0.517903
O25   O     O_R   0.475680 0.273800 0.437630 -0.510622
O26   O     O_R   0.257620 0.257160 0.413750 -0.502486
C43   C     C_1   0.989487 0.380641 0.818755 0.351137
N1    N     N_1   0.920405 0.275850 0.855834 -0.250694
S1    S     S_3+6 0.993377 0.331169 0.650234 0.036167
O27   O     O_2   0.837631 0.271352 0.659126 -0.271019
O28   O     O_2   0.011232 0.342332 0.563661 -0.268222
O29   O     O_3   0.055722 0.221640 0.703874 -0.507026
H16   H     H_    0.995489 0.127981 0.682839 0.361321
S2    S     S_3+6 0.799635 0.925847 0.288799 -0.008844
O30   O     O_2   0.858491 0.969522 0.371573 -0.271756
O31   O     O_2   0.866099 0.051343 0.228696 -0.375122
O32   O     O_3   0.625721 0.877629 0.272662 -0.503071
H17   H     H_    0.618017 0.964335 0.277948 0.356191

loop_
_geom_bond_atom_site_label_1
_geom_bond_atom_site_label_2
_ccdc_geom_bond_type
C5    C42   S    
C16   C21   A    
C41   C42   A    
C14   C18   A    
O29   H16   S    
Cr5   O16   S    
Cr2   O20   S    
Cr4   O13   S    
S2    O30   D    
C28   H8    S    
C27   H6    S    
C7    C8    T    
C32   O9    A    
C15   C19   S    
C26   C27   A    
C12   O22   A    
Cr1   O25   S    
C28   C29   S    
C20   H3    S    
C6    C12   S    
C4    C41   S    
C15   C16   A    
Cr6   O18   S    
C12   O21   A    
Cr5   O19   S    
O32   H17   S    
Cr4   O6    S    
Cr4   O19   S    
C31   O7    A    
C38   O3    A    
C19   H15   S    
Cr1   O5    S    
C23   O23   A    
Cr3   O4    S    
C39   O24   A    
C9    C10   T    
C33   O6    A    
C31   O8    A    
Cr1   O12   S    
C37   O18   A    
Cr2   O2    S    
C2    C6    A    
S2    O31   D    
C28   H7    S    
Cr1   O1    S    
C4    C43   S    
C25   C29   S    
C30   C34   S    
C1    O12   A    
Cr6   O11   S    
C1    C9    S    
C24   C25   A    
C13   C36   S    
C36   O17   A    
C32   O10   A    
C18   H14   S    
C22   C37   S    
C35   O14   A    
S1    O29   S    
C17   C21   A    
C11   C38   S    
Cr3   O22   S    
C2    H1    S    
C21   C39   S    
C38   O2    A    
C16   C20   S    
C4    H12   S    
Cr3   O5    S    
S1    O28   D    
C17   C18   A    
C5    H13   S    
C34   O25   A    
Cr5   O8    S    
C23   O1    A    
C37   O13   A    
C29   H9    S    
C3    C40   A    
C26   C30   A    
C22   C27   A    
C22   C24   A    
Cr2   O5    S    
C26   H5    S    
C14   C35   S    
S2    O32   S    
C25   C30   A    
C40   C41   A    
C8    C31   S    
C39   O4    A    
Cr6   O10   S    
C24   C28   S    
C4    C5    S    
Cr2   O21   S    
C36   O16   A    
Cr4   O14   S    
C1    O20   A    
C35   O15   A    
Cr1   O24   S    
Cr6   O17   S    
C19   C20   S    
C2    C3    A    
C34   O26   A    
C20   H4    S    
C11   C13   T    
C19   H2    S    
C43   N1    T    
C7    C23   S    
S1    O27   D    
Cr6   O19   S    
Cr3   O23   S    
C10   C33   S    
C32   C40   S    
Cr5   O9    S    
Cr4   O7    S    
C5    S1    S    
C33   O11   A    
C29   H10   S    
C6    C42   A    
Cr3   O3    S    
C14   C15   A    
Cr5   O15   S    
C17   S2    S    
Cr2   O26   S    
C3    H11   S    
