data_mof_unit_31922.cif
_audit_creation_date              2012-12-11T15:15:12-0500
_audit_creation_method            fapswitch 2.2
_symmetry_space_group_name_H-M    P1
_symmetry_Int_Tables_number       1
_space_group_crystal_system       triclinic
_cell_length_a                    18.831481
_cell_length_b                    19.318987
_cell_length_c                    20.406072
_cell_angle_alpha                 108.116418
_cell_angle_beta                  105.956884
_cell_angle_gamma                 111.412534
_cell_volume                      5901.98184232

loop_
_atom_site_label
_atom_site_type_symbol
_atom_type_description
_atom_site_fract_x
_atom_site_fract_y
_atom_site_fract_z
_atom_type_partial_charge
C1    C     C_R   0.037739 0.085934 0.345111 -0.125131
C2    C     C_R   0.745728 0.999612 0.463761 0.073305
C3    C     C_R   0.771071 0.727604 0.286899 0.077872
C4    C     C_R   0.035585 0.278125 0.534208 0.081966
C5    C     C_R   0.239302 0.188057 0.653644 -0.128831
C6    C     C_R   0.921918 0.757690 0.494349 0.288452
C7    C     C_R   0.171711 0.934272 0.434928 -0.144572
C8    C     C_R   0.981694 0.053380 0.709508 -0.139048
C9    C     C_R   0.911362 0.914946 0.645527 -0.120258
C10   C     C_R   0.239558 0.073332 0.496098 -0.140705
C11   C     C_R   0.161088 0.181430 0.718594 -0.126739
C12   C     C_R   0.754288 0.928959 0.454449 -0.131502
C13   C     C_R   0.995307 0.764082 0.426192 0.106082
C14   C     C_R   0.243275 0.204018 0.726220 0.035998
C15   C     C_R   0.946457 0.712059 0.447969 0.000559
C16   C     C_R   0.245208 0.004966 0.454707 0.083719
C17   C     C_R   0.931459 0.981857 0.711714 0.032120
C18   C     C_R   0.040416 0.661346 0.489623 -0.227588
C19   C     C_R   0.957339 0.644768 0.453740 0.141741
C20   C     C_R   0.887615 0.567048 0.426302 -0.276058
C21   C     C_R   0.900862 0.505938 0.439897 0.157524
C22   C     C_R   0.985069 0.522953 0.477986 0.027727
C23   C     C_R   0.846936 0.778519 0.289354 -0.155231
C24   C     C_R   0.054944 0.600414 0.501165 0.071062
C25   C     C_R   0.831635 0.429308 0.418034 -0.204175
C26   C     C_R   0.845492 0.370112 0.435448 -0.211006
C27   C     C_R   0.928604 0.387044 0.473565 0.163466
C28   C     C_R   0.999237 0.463251 0.494078 -0.020087
C29   C     C_R   0.083694 0.479704 0.531034 0.084439
C30   C     C_R   0.153608 0.556907 0.552045 0.294076
C31   C     C_R   0.138112 0.617017 0.537234 -0.238726
C32   C     C_R   0.942301 0.328431 0.490928 -0.261496
C33   C     C_R   0.024985 0.344169 0.525902 0.105812
C34   C     C_R   0.992534 0.230846 0.562313 -0.158844
C35   C     C_R   0.095278 0.417934 0.545460 -0.261572
C36   C     C_R   0.380634 0.082673 0.449314 -0.263606
C37   C     C_R   0.308863 0.006484 0.425584 0.107445
C38   C     C_R   0.300709 0.931029 0.377365 -0.237490
C39   C     C_R   0.368154 0.930274 0.362288 0.125208
C40   C     C_R   0.443669 0.006177 0.393550 0.026804
C41   C     C_R   0.448338 0.083008 0.433781 0.152233
C42   C     C_R   0.363473 0.854158 0.321923 -0.314390
C43   C     C_R   0.436216 0.851935 0.319496 0.180204
C44   C     C_R   0.514670 0.927364 0.359551 0.079588
C45   C     C_R   0.769828 0.771562 0.354157 -0.139122
C46   C     C_R   0.516945 0.004833 0.391710 -0.005941
C47   C     C_R   0.594424 0.080718 0.429684 0.161152
C48   C     C_R   0.596235 0.157329 0.461387 -0.212597
C49   C     C_R   0.523439 0.158455 0.463824 -0.206308
C50   C     C_R   0.591531 0.926738 0.376453 -0.252136
C51   C     C_R   0.668734 0.001606 0.424678 0.109099
C52   C     C_R   0.669865 0.078475 0.443474 -0.255986
C53   C     C_R   0.318325 0.230845 0.795568 0.143047
C54   C     C_R   0.309079 0.218425 0.857702 -0.185921
C55   C     C_R   0.380420 0.248227 0.924812 -0.157754
C56   C     C_R   0.070469 0.237861 0.497321 -0.146556
C57   C     C_R   0.462172 0.291485 0.930959 0.228933
C58   C     C_R   0.471291 0.298329 0.867053 -0.184743
C59   C     C_R   0.400097 0.268742 0.800073 -0.171015
C60   C     C_R   0.654692 0.522181 0.108187 -0.215494
C61   C     C_R   0.709092 0.606339 0.159718 -0.193571
C62   C     C_R   0.670880 0.582266 0.257670 -0.234283
C63   C     C_R   0.616242 0.496983 0.206434 0.307738
C64   C     C_R   0.606214 0.466800 0.130012 0.183629
C65   C     C_2   0.538317 0.341763 0.005386 -0.239485
C66   C     C_2   0.534658 0.383989 0.069362 -0.207007
C67   C     C_R   0.823297 0.068699 0.519412 -0.127560
C68   C     C_R   0.715884 0.637576 0.234105 0.089042
C69   C     C_R   0.940780 0.020832 0.201744 0.142846
C70   C     C_R   0.898386 0.949073 0.130673 -0.188054
C71   C     C_R   0.860212 0.951689 0.063381 -0.151585
C72   C     C_R   0.863406 0.026334 0.065582 0.225204
C73   C     C_R   0.903688 0.097457 0.136651 -0.187171
C74   C     C_R   0.941605 0.094720 0.204244 -0.169794
C75   C     C_R   0.841051 0.041789 0.850580 -0.160567
C76   C     C_R   0.879531 0.045659 0.801452 -0.185236
C77   C     C_R   0.850421 0.902928 0.766611 -0.178059
C78   C     C_R   0.968463 0.945892 0.281192 -0.127249
C79   C     C_R   0.811672 0.899016 0.815476 -0.180884
C80   C     C_R   0.809924 0.969457 0.860168 0.228610
C81   C     C_2   0.840645 0.035847 0.994930 -0.218014
C82   C     C_2   0.789899 0.969773 0.925065 -0.232272
C83   C     C_R   0.887031 0.977120 0.760864 0.141774
C84   C     C_R   0.983050 0.017948 0.272631 0.040093
H1    H     H_    0.061988 0.151201 0.359592 0.092792
H2    H     H_    0.150389 0.871100 0.395444 0.095762
H3    H     H_    0.997651 0.116477 0.745246 0.088232
H4    H     H_    0.858604 0.853178 0.621905 0.107818
H5    H     H_    0.279236 0.137873 0.510822 0.086886
H6    H     H_    0.140322 0.184170 0.763168 0.095870
H7    H     H_    0.093722 0.722626 0.509957 0.130225
H8    H     H_    0.823849 0.555301 0.396466 0.133094
H9    H     H_    0.767098 0.415925 0.388897 0.132804
H10   H     H_    0.706794 0.864567 0.415583 0.098852
H11   H     H_    0.791424 0.311242 0.419280 0.130913
H12   H     H_    0.888682 0.269006 0.474657 0.125427
H13   H     H_    0.157986 0.425924 0.571732 0.145228
H14   H     H_    0.190947 0.677155 0.554137 0.141222
H15   H     H_    0.387073 0.141635 0.484445 0.117160
H16   H     H_    0.244681 0.871716 0.355516 0.119988
H17   H     H_    0.304278 0.795946 0.295613 0.136720
H18   H     H_    0.590637 0.867496 0.358372 0.146723
H19   H     H_    0.875012 0.758540 0.252878 0.098097
H20   H     H_    0.729061 0.137047 0.476062 0.112080
H21   H     H_    0.655243 0.216031 0.489467 0.127884
H22   H     H_    0.527333 0.217969 0.493434 0.128909
H23   H     H_    0.246951 0.186801 0.855177 0.117515
H24   H     H_    0.743170 0.647705 0.140204 0.124643
H25   H     H_    0.678122 0.604993 0.316049 0.134614
H26   H     H_    0.473976 0.367074 0.071462 0.144159
H27   H     H_    0.533769 0.331537 0.870594 0.110879
H28   H     H_    0.646759 0.501922 0.049626 0.133125
H29   H     H_    0.409667 0.278859 0.753224 0.110419
H30   H     H_    0.965005 0.248649 0.600172 0.097957
H31   H     H_    0.599698 0.360379 0.004278 0.136609
H32   H     H_    0.371472 0.239748 0.972501 0.115047
H33   H     H_    0.897105 0.891331 0.126205 0.111073
H34   H     H_    0.904148 0.102791 0.796348 0.112517
H35   H     H_    0.854661 0.848900 0.735757 0.116142
H36   H     H_    0.749489 0.909486 0.919890 0.131910
H37   H     H_    0.908198 0.155991 0.139623 0.118477
H38   H     H_    0.838518 0.096331 0.883094 0.114269
H39   H     H_    0.972350 0.150907 0.258039 0.116319
H40   H     H_    0.726856 0.746368 0.376953 0.090328
H41   H     H_    0.880303 0.096563 0.000378 0.133497
H42   H     H_    0.833137 0.896344 0.009727 0.110602
H43   H     H_    0.788318 0.842736 0.822329 0.111567
H44   H     H_    0.113762 0.261749 0.474312 0.094283
H45   H     H_    0.839165 0.133288 0.541756 0.091382
H46   H     H_    0.927094 0.881898 0.237249 0.093919
H47   H     H_    0.290515 0.195252 0.637489 0.095896
N1    N     N_R   0.052580 0.056040 0.395500 -0.038629
N2    N     N_R   0.954640 0.834860 0.500130 -0.067691
N3    N     N_R   0.122510 0.958490 0.460420 -0.044353
N4    N     N_R   0.990180 0.030970 0.644220 -0.039419
N5    N     N_R   0.947420 0.943960 0.604500 -0.033999
N6    N     N_R   0.165270 0.045500 0.500140 -0.038766
N7    N     N_R   0.109790 0.150600 0.644220 -0.039307
N8    N     N_R   0.002890 0.838860 0.460420 -0.092639
N9    N     N_R   0.834730 0.954500 0.499860 -0.040482
N10   N     N_R   0.890210 0.849400 0.355780 -0.040337
N11   N     N_R   0.997110 0.161140 0.539580 -0.036940
N12   N     N_R   0.841950 0.845400 0.395490 -0.038062
N13   N     N_R   0.045360 0.165140 0.499870 -0.037361
N14   N     N_R   0.877490 0.041510 0.539580 -0.041193
N15   N     N_R   0.009820 0.969030 0.355780 -0.041167
N16   N     N_R   0.158050 0.154600 0.604510 -0.039343
Ni1   Ni    Ni4+2 0.104370 0.104380 0.500010 0.211505
Ni2   Ni    Ni4+2 0.895630 0.895620 0.499990 0.208054
Ni3   Ni    Ni4+2 0.006300 0.904810 0.408930 0.199401
Ni4   Ni    Ni4+2 0.993700 0.095190 0.591070 0.211597
C85   C     C_3   0.859066 0.724428 0.523435 -1.048228
H48   H     H_    0.828530 0.655558 0.499457 0.253387
H49   H     H_    0.892180 0.751271 0.586666 0.253616
H50   H     H_    0.808174 0.740263 0.506292 0.241995
N17   N     N_2   0.009658 0.738527 0.359698 -0.110807
H51   H     H_    0.014277 0.778487 0.335448 0.161378
C86   C     C_3   0.958569 0.651377 0.302591 -0.920385
H52   H     H_    0.971431 0.643323 0.251543 0.239308
H53   H     H_    0.889893 0.630723 0.284210 0.256662
H54   H     H_    0.975442 0.611489 0.325265 0.267583
C87   C     C_3   0.244321 0.576917 0.590813 -1.027003
H55   H     H_    0.255931 0.531112 0.553128 0.248582
H56   H     H_    0.290298 0.640463 0.603012 0.253711
H57   H     H_    0.256820 0.574416 0.646236 0.252546
N18   N     N_2   0.431119 0.773360 0.281923 -0.116065
H58   H     H_    0.381364 0.723151 0.277622 0.169260
C88   C     C_3   0.436230 0.757281 0.209698 -0.925617
H59   H     H_    0.380697 0.752923 0.167606 0.253589
H60   H     H_    0.436264 0.697143 0.186442 0.249794
H61   H     H_    0.495628 0.807685 0.217588 0.260396
C89   C     C_3   0.570006 0.441159 0.235555 -1.060702
H62   H     H_    0.534903 0.373918 0.193483 0.259044
H63   H     H_    0.616479 0.448683 0.288198 0.253647
H64   H     H_    0.524497 0.459186 0.249827 0.256458

loop_
_geom_bond_atom_site_label_1
_geom_bond_atom_site_label_2
_ccdc_geom_bond_type
C86   H53   S    
C25   H9    S    
C5    N16   A    
C75   H38   S    
C73   C74   A    
N6    Ni1   S    
C3    C23   A    
N16   Ni1   S    
C61   C68   A    
C82   H36   S    
N13   Ni1   S    
C1    N1    A    
C2    C12   A    
N3    N6    A    
N5    Ni2   S    
C53   C59   A    
N4    N5    A    
C53   C54   A    
C1    C84   A    
C40   C46   A    
C20   H8    S    
C26   C27   A    
C37   C38   A    
C54   H23   S    
C18   C24   A    
C18   H7    S    
C13   N8    A    
C28   C29   A    
C11   N7    A    
C62   H25   S    
C6    N2    A    
N10   N12   A    
C9    H4    S    
C30   C31   A    
C11   C14   A    
C7    H2    S    
C55   H32   S    
C77   C83   A    
C70   H33   S    
N3    Ni3   S    
C18   C19   A    
C46   C47   A    
C31   H14   S    
C61   H24   S    
C21   C25   A    
C86   H54   S    
C6    C15   A    
N15   Ni3   S    
C88   H61   S    
C23   H19   S    
C47   C48   A    
C10   H5    S    
C44   C46   A    
C67   N14   A    
C48   C49   A    
C12   N9    A    
C71   H42   S    
C70   C71   A    
C10   N6    A    
C75   C80   A    
C72   C81   S    
C89   H64   S    
C16   C37   S    
C6    C85   S    
C88   H60   S    
C74   H39   S    
C22   C28   A    
C21   C22   A    
C4    C56   A    
C8    N4    A    
N18   C88   S    
C65   H31   S    
C12   H10   S    
C36   C41   A    
C67   H45   S    
C76   C83   A    
C41   C49   A    
C89   H63   S    
N10   Ni3   S    
C81   C82   D    
C39   C42   A    
C87   H56   S    
C77   C79   A    
C45   H40   S    
C1    H1    S    
C4    C34   A    
C58   H27   S    
N1    Ni1   S    
N2    Ni2   S    
C79   C80   A    
C7    N3    A    
C80   C82   S    
C2    C67   A    
C39   C40   A    
C63   C89   S    
C25   C26   A    
C3    C45   A    
C76   H34   S    
C51   C52   A    
C60   C61   A    
C17   C83   S    
C64   C66   S    
N11   Ni4   S    
C47   C52   A    
C15   C19   S    
C75   C76   A    
C13   N17   S    
C29   C30   A    
C60   H28   S    
C87   H57   S    
C34   N11   A    
C48   H21   S    
C85   H50   S    
N12   Ni2   S    
N7    N16   A    
C59   H29   S    
C62   C63   A    
C50   C51   A    
C69   C74   A    
C66   H26   S    
C5    C14   A    
N14   Ni4   S    
C3    C68   S    
C9    C17   A    
C88   H59   S    
C32   H12   S    
C85   H49   S    
N2    N8    A    
C73   H37   S    
C55   C57   A    
C43   C44   A    
C86   H52   S    
C22   C24   A    
C42   C43   A    
C30   C87   S    
C42   H17   S    
C89   H62   S    
C87   H55   S    
C43   N18   S    
C44   C50   A    
C26   H11   S    
C4    C33   S    
C79   H43   S    
C54   C55   A    
C36   C37   A    
C81   H41   S    
C27   C32   A    
C38   H16   S    
C7    C16   A    
C57   C65   S    
C72   C73   A    
C77   H35   S    
N9    N14   A    
C50   H18   S    
C49   H22   S    
N7    Ni4   S    
C34   H30   S    
C29   C35   A    
N8    Ni3   S    
C8    C17   A    
C62   C68   A    
C60   C64   A    
C8    H3    S    
N1    N15   A    
C32   C33   A    
C19   C20   A    
C13   C15   A    
C58   C59   A    
C24   C31   A    
C71   C72   A    
C69   C84   S    
C10   C16   A    
C11   H6    S    
C57   C58   A    
C38   C39   A    
N18   H58   S    
N4    Ni4   S    
N17   C86   S    
C33   C35   A    
C52   H20   S    
C36   H15   S    
N11   N13   A    
C56   H44   S    
C78   H46   S    
C69   C70   A    
C2    C51   S    
C78   N15   A    
C63   C64   A    
C56   N13   A    
C9    N5    A    
C78   C84   A    
C5    H47   S    
C14   C53   S    
N17   H51   S    
C20   C21   A    
C65   C66   D    
C27   C28   A    
C45   N12   A    
C23   N10   A    
C40   C41   A    
C85   H48   S    
C35   H13   S    
N9    Ni2   S    
