data_mof_unit_5321.cif
_audit_creation_date              2013-03-05T16:01:06-0500
_audit_creation_method            fapswitch 2.2
_symmetry_space_group_name_H-M    P1
_symmetry_Int_Tables_number       1
_space_group_crystal_system       triclinic
_cell_length_a                    8.334359
_cell_length_b                    12.808747
_cell_length_c                    18.737197
_cell_angle_alpha                 100.073563
_cell_angle_beta                  90.991357
_cell_angle_gamma                 99.122987
_cell_volume                      1942.41033037

loop_
_atom_site_label
_atom_site_type_symbol
_atom_site_description
_atom_site_fract_x
_atom_site_fract_y
_atom_site_fract_z
_atom_type_partial_charge
P1    P     P_3+3 0.041040 0.394770 0.336330 0.508079
O1    O     O_2   0.873090 0.425890 0.325140 -0.392771
O2    O     O_3   0.122420 0.434370 0.414380 -0.302471
O3    O     O_3   0.659500 0.627100 0.368810 -0.292785
O4    O     O_2   0.770665 0.538778 0.244653 -0.400794
O5    O     O_3   0.013989 0.255407 0.309776 -0.656240
O6    O     O_3   0.697455 0.725981 0.244238 -0.507186
H1    H     H_    0.528838 0.816633 0.290768 0.126371
C1    C     C_3   0.602058 0.858462 0.186718 -0.891388
H2    H     H_    0.512850 0.914865 0.192109 0.230453
H3    H     H_    0.726183 0.904716 0.199781 0.280565
P2    P     P_3+3 0.672880 0.754030 0.556100 0.572357
P3    P     P_3+3 0.130799 0.824728 0.407081 0.539559
O7    O     O_2   0.848200 0.768190 0.534530 -0.349179
O8    O     O_3   0.081160 0.685950 0.404810 -0.349379
O9    O     O_2   0.003513 0.879297 0.452215 -0.315507
O10   O     O_3   0.720161 0.782752 0.649695 -0.506882
O11   O     O_3   0.099928 0.850756 0.319649 -0.484834
C2    C     C_3   0.115210 0.757958 0.269448 0.519367
H4    H     H_    0.011662 0.693182 0.272566 0.159170
H5    H     H_    0.230464 0.728827 0.279873 -0.013926
C3    C     C_3   0.113222 0.782892 0.193073 -0.995828
H6    H     H_    0.995920 0.807961 0.180415 0.290169
H7    H     H_    0.214330 0.848680 0.188356 0.258753
C4    C     C_3   0.202774 0.785796 0.615473 0.402076
H8    H     H_    0.317137 0.771072 0.590116 -0.007576
H9    H     H_    0.101944 0.747718 0.576300 0.177024
C5    C     C_3   0.197750 0.905606 0.631560 -0.895631
H10   H     H_    0.302927 0.948878 0.667561 0.243631
H11   H     H_    0.201437 0.937148 0.580273 0.231377
H12   H     H_    0.083886 0.920464 0.658551 0.285114
Ba1   Ba    Ba6+2 0.852780 0.548340 0.465070 1.718828
C6    C     C_3   0.904022 0.200991 0.350637 0.767621
H13   H     H_    0.804666 0.245770 0.368194 0.045771
C7    C     C_3   0.836155 0.092883 0.302712 -0.198067
H14   H     H_    0.736609 0.103120 0.265701 0.142699
H15   H     H_    0.933053 0.062791 0.268776 0.175753
C8    C     C_3   0.585248 0.809928 0.686890 0.341176
H16   H     H_    0.487420 0.740384 0.677544 0.155330
H17   H     H_    0.545372 0.880254 0.669238 0.015959
C9    C     C_3   0.629222 0.836052 0.767862 -0.885455
H18   H     H_    0.734293 0.902590 0.779766 0.279268
H19   H     H_    0.662210 0.764123 0.786416 0.244411
H20   H     H_    0.523565 0.860346 0.797978 0.236505
P4    P     P_3+3 0.148670 0.605320 0.663680 0.560794
O12   O     O_2   0.316610 0.574140 0.674900 -0.371695
O13   O     O_3   0.067290 0.565720 0.585630 -0.307702
O14   O     O_3   0.530210 0.372990 0.631200 -0.277065
O15   O     O_3   0.191724 0.746234 0.680658 -0.570609
P5    P     P_3+3 0.063645 0.178273 0.603486 0.565492
O16   O     O_3   0.611340 0.366290 0.463630 -0.305011
O17   O     O_3   0.108550 0.314140 0.595200 -0.263544
O18   O     O_2   0.182701 0.121994 0.554078 -0.354297
O19   O     O_3   0.129433 0.169367 0.690979 -0.482822
Ba2   Ba    Ba6+2 0.337060 0.451750 0.534940 1.731434
P6    P     P_3+3 0.636832 0.603358 0.273312 0.486761
C10   C     C_3   0.561900 0.777186 0.236862 0.432410
H21   H     H_    0.452582 0.722430 0.212008 0.014505
H22   H     H_    0.597281 0.815893 0.129536 0.237269
O20   O     O_3   0.578370 0.633800 0.536380 -0.258039
C11   C     C_3   0.441386 0.247407 0.315316 0.360614
H23   H     H_    0.357421 0.294281 0.347552 0.120778
H24   H     H_    0.541346 0.304534 0.297974 0.100908
C12   C     C_3   0.344403 0.180771 0.248742 -0.780728
H25   H     H_    0.242601 0.124723 0.265740 0.254491
H26   H     H_    0.293887 0.234269 0.216726 0.241768
H27   H     H_    0.423575 0.132844 0.214329 0.271151
P7    P     P_3+3 0.522822 0.228796 0.446151 0.510858
O21   O     O_2   0.341510 0.231850 0.465510 -0.313885
O22   O     O_3   0.508478 0.177465 0.352984 -0.582691
H28   H     H_    0.127830 0.710224 0.153278 0.218011
C13   C     C_3   0.019481 0.210489 0.739775 0.237210
H29   H     H_    0.000468 0.291984 0.731948 0.027778
H30   H     H_    0.902676 0.154488 0.732444 0.050683
C14   C     C_3   0.084731 0.219434 0.817373 -0.001165
H31   H     H_    0.203808 0.273805 0.826476 0.197113
H32   H     H_    0.998000 0.253252 0.855619 0.090360
P8    P     P_3+3 0.545740 0.392876 0.726114 0.531469
C15   C     C_3   0.562108 0.191646 0.712585 0.474252
H33   H     H_    0.686785 0.225855 0.699468 -0.019322
O23   O     O_2   0.413243 0.458383 0.754207 -0.382062
O24   O     O_3   0.479069 0.268794 0.751257 -0.499068
H34   H     H_    0.491651 0.153004 0.661297 0.098576
H35   H     H_    0.643749 0.145393 0.811077 0.279317
C16   C     C_3   0.577228 0.107249 0.758767 -0.964644
H36   H     H_    0.646423 0.047513 0.729578 0.202562
H37   H     H_    0.455077 0.066395 0.769925 0.306242
C17   C     C_R   0.994345 0.436657 0.045745 -0.027960
C18   C     C_R   0.891670 0.387947 0.094004 -0.078477
C19   C     C_R   0.729089 0.343006 0.070973 0.397638
C20   C     C_R   0.669213 0.347237 0.000907 0.249380
C21   C     C_R   0.771141 0.397493 0.952872 -0.078036
C22   C     C_R   0.934160 0.441526 0.975082 -0.013918
C23   C     C_R   0.712701 0.405324 0.883326 -0.111090
C24   C     C_R   0.812938 0.453420 0.834298 -0.124688
C25   C     C_R   0.976692 0.497969 0.856310 -0.003668
C26   C     C_R   0.036553 0.491610 0.926950 0.040172
C27   C     C_R   0.751802 0.461902 0.764843 0.038341
C28   C     C_R   0.852499 0.518541 0.720207 0.187445
C29   C     C_R   0.019768 0.552625 0.736660 0.128666
C30   C     C_R   0.080313 0.549368 0.808237 -0.107188
C31   C     C_R   0.157592 0.480038 0.068035 0.054516
C32   C     C_R   0.216721 0.479439 0.139781 0.026659
C33   C     C_R   0.110122 0.438191 0.190370 -0.091010
C34   C     C_R   0.952603 0.386467 0.164704 -0.022929
H38   H     H_    0.586322 0.377096 0.868228 0.211516
H39   H     H_    0.875837 0.345452 0.200110 0.194884
C35   C     C_R   0.238604 0.599012 0.834646 -0.080952
C36   C     C_R   0.300811 0.587380 0.902647 0.106084
C37   C     C_R   0.199347 0.534697 0.949402 0.000031
C38   C     C_R   0.260631 0.526972 0.019174 0.046765
C39   C     C_R   0.464359 0.627211 0.924447 -0.151179
C40   C     C_R   0.526535 0.615594 0.991945 -0.197763
C41   C     C_R   0.425244 0.567052 0.040135 0.134899
C42   C     C_R   0.381811 0.521632 0.161034 0.012808
C43   C     C_R   0.485847 0.560093 0.109274 -0.233654
C44   C     C_R   0.435637 0.529059 0.234488 0.177425
C45   C     C_R   0.328034 0.491236 0.283834 -0.458099
C46   C     C_R   0.165575 0.449234 0.264584 0.225887
H40   H     H_    0.316479 0.646167 0.802457 0.155374
H41   H     H_    0.545001 0.666362 0.888855 0.130033
H42   H     H_    0.653560 0.646428 0.007009 0.139369
H43   H     H_    0.613525 0.589130 0.123225 0.170370
H44   H     H_    0.373035 0.492613 0.338384 0.200165
C47   C     C_R   0.749692 0.186914 0.546121 0.130102
C48   C     C_R   0.437107 0.810059 0.467990 0.122554
C49   C     C_R   0.395234 0.988204 0.458294 -0.171591
C50   C     C_R   0.338880 0.878565 0.446574 0.058632
C51   C     C_R   0.578557 0.851090 0.512800 0.120936
C52   C     C_R   0.636132 0.964155 0.526829 -0.050633
C53   C     C_R   0.544870 0.032591 0.496505 -0.063328
C54   C     C_R   0.607316 0.143259 0.503218 0.167449
C55   C     C_R   0.847200 0.120509 0.572132 0.128830
C56   C     C_R   0.787558 0.009998 0.564440 -0.246465
H45   H     H_    0.319229 0.037285 0.437067 0.224046
H46   H     H_    0.863693 0.960729 0.585374 0.181684
Cl1   Cl    Cl    0.013744 0.181465 0.426568 -0.541508
Br1   Br    Br    0.757627 0.981820 0.357102 -0.478621
Br2   Br    Br    0.109124 0.079088 0.837342 -0.450167
Cl2   Cl    Cl    0.596147 0.282711 0.130064 -0.677321
Br3   Br    Br    0.446650 0.281895 0.971885 -0.455399
Cl3   Cl    Cl    0.761144 0.562722 0.648744 -0.465276
Cl4   Cl    Cl    0.809108 0.326485 0.565148 -0.534828
Cl5   Cl    Cl    0.380710 0.671598 0.437268 -0.616859

loop_
_geom_bond_atom_site_label_1
_geom_bond_atom_site_label_2
_geom_bond_distance
_ccdc_geom_bond_type
C11   O22   1.407049 S    
O14   Ba2   2.813053 S    
C8    H17   1.107537 S    
C9    H18   1.110423 S    
C43   H43   1.081603 S    
P6    C44   1.859091 S    
C35   H40   1.080056 S    
O4    P6    1.540990 D    
C2    H4    1.108252 S    
C47   C54   1.402239 A    
C19   C20   1.409378 A    
C24   C27   1.417434 A    
O8    Ba1   2.776923 S    
P4    O12   1.535980 D    
C4    C5    1.518768 S    
C34   H39   1.074920 S    
P5    O19   1.747964 S    
P3    O11   1.750662 S    
C21   C22   1.411586 A    
C5    H10   1.106935 S    
C2    H5    1.110295 S    
C49   H45   1.076894 S    
O11   C2    1.405296 S    
C7    Br1   1.930206 S    
C8    H16   1.095027 S    
C6    C7    1.530640 S    
C42   C43   1.412761 A    
C35   C36   1.407999 A    
O1    Ba1   2.832655 S    
P1    O1    1.535636 D    
P1    C46   1.875597 S    
O14   P8    1.751446 S    
C11   H24   1.110996 S    
C45   C46   1.391784 A    
C33   C34   1.408755 A    
C28   Cl3   1.749104 S    
C31   C32   1.425469 A    
C37   C38   1.420545 A    
P3    C50   1.851620 S    
O2    Ba2   2.812566 S    
C40   H42   1.083744 S    
C24   C25   1.417602 A    
C6    Cl1   1.753557 S    
P7    O21   1.565032 D    
C42   C44   1.422621 A    
O12   Ba2   2.833004 S    
P8    C27   1.873138 S    
P5    O17   1.755776 S    
C1    H2    1.110107 S    
Ba1   Ba2   4.637074 S    
O16   Ba2   2.931997 S    
O17   Ba2   2.777565 S    
O10   C8    1.391955 S    
C33   C46   1.433710 A    
C30   C35   1.411011 A    
C16   H37   1.109359 S    
Ba2   O20   2.823459 S    
P2    Ba1   3.444951 S    
C9    H19   1.111012 S    
C31   C38   1.411773 A    
C52   C56   1.422546 A    
O6    P6    1.753898 S    
C13   C14   1.522335 S    
C39   C40   1.399225 A    
C4    O15   1.400952 S    
P4    O13   1.566241 S    
P5    O18   1.544802 D    
P2    C51   1.860776 S    
P1    O5    1.744318 S    
C12   H27   1.110286 S    
C2    C3    1.520187 S    
H35   C16   1.111105 S    
C8    C9    1.520658 S    
C13   H30   1.104787 S    
C36   C39   1.404421 A    
C20   C21   1.414854 A    
C56   H46   1.076905 S    
C48   C51   1.409215 A    
C4    H8    1.100502 S    
C16   H36   1.105256 S    
P4    C29   1.903509 S    
P1    Ba1   3.405831 S    
C1    H22   1.110899 S    
C7    H14   1.110328 S    
P7    C54   1.862269 S    
P2    O10   1.752304 S    
C11   C12   1.520444 S    
C32   C42   1.419069 A    
C14   H31   1.110148 S    
Ba1   O16   2.824090 S    
H1    C10   1.107564 S    
C1    H3    1.107822 S    
P8    O24   1.745739 S    
C17   C31   1.411994 A    
C28   C29   1.405044 A    
P4    O15   1.754293 S    
C25   C26   1.426613 A    
C21   C23   1.408765 A    
C6    H13   1.103132 S    
O2    Ba1   2.951701 S    
C45   H44   1.078896 S    
C14   H32   1.110103 S    
O3    Ba1   2.813721 S    
P2    O7    1.514372 D    
C23   C24   1.408070 A    
P3    O8    1.752841 S    
C55   C56   1.405184 A    
Ba1   O13   2.811906 S    
C3    H7    1.109703 S    
Ba1   O20   2.932915 S    
C49   C50   1.385776 A    
C22   C26   1.417231 A    
C3    H28   1.110619 S    
C15   C16   1.516540 S    
O13   Ba2   2.952617 S    
C40   C41   1.403885 A    
C47   C55   1.404260 A    
C17   C22   1.422799 A    
C23   H38   1.073921 S    
C48   C50   1.393117 A    
C7    H15   1.111675 S    
C5    H12   1.110301 S    
O7    Ba1   2.894632 S    
C13   H29   1.114206 S    
P5    C55   1.880094 S    
C15   O24   1.401512 S    
C41   C43   1.404743 A    
C4    H9    1.098301 S    
C44   C45   1.393366 A    
O5    C6    1.385774 S    
C12   H25   1.110361 S    
Ba2   O21   2.894860 S    
C5    H11   1.104786 S    
C52   C53   1.428456 A    
C51   C52   1.427865 A    
C39   H41   1.083316 S    
C14   Br2   1.939454 S    
C36   C37   1.410472 A    
C15   H34   1.111403 S    
C26   C37   1.408546 A    
P8    O23   1.536219 D    
C10   H21   1.098768 S    
C47   Cl4   1.748852 S    
C48   Cl5   1.751230 S    
C29   C30   1.434548 A    
C9    H20   1.110559 S    
C38   C41   1.409791 A    
C1    C10   1.523524 S    
O16   P7    1.769448 S    
C11   H23   1.111772 S    
C49   C53   1.411744 A    
C15   H33   1.110977 S    
P2    O20   1.592096 S    
O19   C13   1.402395 S    
C17   C18   1.412106 A    
P4    Ba2   3.406443 S    
P7    O22   1.749392 S    
C27   C28   1.404847 A    
P3    O9    1.545486 D    
C18   C34   1.414818 A    
C32   C33   1.422131 A    
C3    H6    1.110533 S    
C19   Cl2   1.766406 S    
P1    O2    1.566241 S    
C18   C19   1.413915 A    
C25   C30   1.429919 A    
O6    C10   1.409576 S    
O3    P6    1.763440 S    
C53   C54   1.413315 A    
C12   H26   1.110507 S    
C20   Br3   1.936618 S    
