data_mof_unit_64614.cif
_audit_creation_date              2013-03-05T16:22:20-0500
_audit_creation_method            fapswitch 2.2
_symmetry_space_group_name_H-M    P1
_symmetry_Int_Tables_number       1
_space_group_crystal_system       triclinic
_cell_length_a                    25.557741
_cell_length_b                    43.204749
_cell_length_c                    25.10198
_cell_angle_alpha                 90.0
_cell_angle_beta                  120.626992
_cell_angle_gamma                 89.999893
_cell_volume                      23851.4000233

loop_
_atom_site_label
_atom_site_type_symbol
_atom_site_description
_atom_site_fract_x
_atom_site_fract_y
_atom_site_fract_z
_atom_type_partial_charge
Zn1   Zn    Zn3+2 0.430120 0.224080 0.948100 0.960292
Zn2   Zn    Zn3+2 0.569880 0.775920 0.051900 0.962182
Zn3   Zn    Zn3+2 0.569880 0.224080 0.051900 0.962046
Zn4   Zn    Zn3+2 0.430120 0.775920 0.948100 0.960209
Zn5   Zn    Zn3+2 0.930120 0.724080 0.948100 0.962672
Zn6   Zn    Zn3+2 0.069880 0.275920 0.051900 0.961051
Zn7   Zn    Zn3+2 0.069880 0.724080 0.051900 0.960683
Zn8   Zn    Zn3+2 0.930120 0.275920 0.948100 0.962796
Zn9   Zn    Zn3+2 0.517960 0.275990 0.948070 0.961701
Zn10  Zn    Zn3+2 0.482040 0.724010 0.051930 0.963756
Zn11  Zn    Zn3+2 0.482040 0.275990 0.051930 0.963472
Zn12  Zn    Zn3+2 0.517960 0.724010 0.948070 0.961653
Zn13  Zn    Zn3+2 0.017960 0.775990 0.948070 0.962703
Zn14  Zn    Zn3+2 0.982040 0.224010 0.051930 0.960842
Zn15  Zn    Zn3+2 0.982040 0.775990 0.051930 0.960722
Zn16  Zn    Zn3+2 0.017960 0.224010 0.948070 0.962582
O1    O     O_3   0.500000 0.250030 0.000000 -0.469645
O2    O     O_3   0.500000 0.749970 0.000000 -0.469678
O3    O     O_3   0.000000 0.750030 0.000000 -0.468813
O4    O     O_3   0.000000 0.249970 0.000000 -0.468893
O5    O     O_R   0.635440 0.231860 0.036300 -0.643451
O6    O     O_R   0.364560 0.768140 0.963700 -0.649077
O7    O     O_R   0.364560 0.231860 0.963700 -0.649443
O8    O     O_R   0.635440 0.768140 0.036300 -0.643085
O9    O     O_R   0.135440 0.731860 0.036300 -0.649162
O10   O     O_R   0.864560 0.268140 0.963700 -0.643076
O11   O     O_R   0.864560 0.731860 0.963700 -0.643193
O12   O     O_R   0.135440 0.268140 0.036300 -0.649097
O13   O     O_R   0.461440 0.268210 0.861400 -0.647757
O14   O     O_R   0.538560 0.731790 0.138600 -0.645532
O15   O     O_R   0.538560 0.268210 0.138600 -0.647633
O16   O     O_R   0.461440 0.731790 0.861400 -0.645725
O17   O     O_R   0.961440 0.768210 0.861400 -0.646826
O18   O     O_R   0.038560 0.231790 0.138600 -0.646986
O19   O     O_R   0.038560 0.768210 0.138600 -0.647026
O20   O     O_R   0.961440 0.231790 0.861400 -0.646879
O21   O     O_R   0.512550 0.319330 0.963650 -0.643792
O22   O     O_R   0.487450 0.680670 0.036350 -0.643468
O23   O     O_R   0.487450 0.319330 0.036350 -0.643757
O24   O     O_R   0.512550 0.680670 0.963650 -0.643875
O25   O     O_R   0.012550 0.819330 0.963650 -0.646923
O26   O     O_R   0.987450 0.180670 0.036350 -0.647059
O27   O     O_R   0.987450 0.819330 0.036350 -0.647117
O28   O     O_R   0.012550 0.180670 0.963650 -0.647004
O29   O     O_R   0.548940 0.180730 0.036330 -0.646892
O30   O     O_R   0.451060 0.819270 0.963670 -0.647033
O31   O     O_R   0.451060 0.180730 0.963670 -0.646947
O32   O     O_R   0.548940 0.819270 0.036330 -0.646838
O33   O     O_R   0.048940 0.680730 0.036330 -0.647115
O34   O     O_R   0.951060 0.319270 0.963670 -0.646910
O35   O     O_R   0.951060 0.680730 0.963670 -0.646919
O36   O     O_R   0.048940 0.319270 0.036330 -0.646964
O37   O     O_R   0.399960 0.231880 0.861420 -0.647068
O38   O     O_R   0.600040 0.768120 0.138580 -0.647223
O39   O     O_R   0.600040 0.231880 0.138580 -0.646962
O40   O     O_R   0.399960 0.768120 0.861420 -0.647424
O41   O     O_R   0.899960 0.731880 0.861420 -0.647006
O42   O     O_R   0.100040 0.268120 0.138580 -0.647146
O43   O     O_R   0.100040 0.731880 0.138580 -0.647208
O44   O     O_R   0.899960 0.268120 0.861420 -0.647033
O45   O     O_R   0.599090 0.268200 0.963630 -0.647686
O46   O     O_R   0.400910 0.731800 0.036370 -0.643830
O47   O     O_R   0.400910 0.268200 0.036370 -0.641628
O48   O     O_R   0.599090 0.731800 0.963630 -0.649816
O49   O     O_R   0.099090 0.768200 0.963630 -0.643149
O50   O     O_R   0.900910 0.231800 0.036370 -0.649115
O51   O     O_R   0.900910 0.768200 0.036370 -0.649105
O52   O     O_R   0.099090 0.231800 0.963630 -0.643134
C1    C     C_R   0.641631 0.250045 0.999922 0.777981
C2    C     C_R   0.358328 0.749994 0.999996 0.776875
C3    C     C_R   0.358329 0.250005 0.999998 0.777914
C4    C     C_R   0.641632 0.749954 0.999924 0.776796
C5    C     C_R   0.141671 0.750004 0.000001 0.777841
C6    C     C_R   0.858368 0.249955 0.000077 0.778006
C7    C     C_R   0.858369 0.750044 0.000078 0.777781
C8    C     C_R   0.141671 0.249994 0.000003 0.778043
C9    C     C_R   0.415855 0.250043 0.831745 0.782062
C10   C     C_R   0.584142 0.749959 0.168255 0.781906
C11   C     C_R   0.584145 0.250043 0.168255 0.780617
C12   C     C_R   0.415858 0.749959 0.831745 0.783078
C13   C     C_R   0.915857 0.750042 0.831745 0.781898
C14   C     C_R   0.084143 0.249958 0.168255 0.783195
C15   C     C_R   0.084143 0.750042 0.168255 0.783051
C16   C     C_R   0.915857 0.249958 0.831745 0.781739
C17   C     C_R   0.499999 0.334055 0.999999 0.777814
C18   C     C_R   0.499998 0.665945 0.999999 0.777860
C19   C     C_R   0.000001 0.834158 0.000001 0.782555
C20   C     C_R   0.000001 0.165842 0.000001 0.782542
C21   C     C_R   0.500000 0.165896 0.999999 0.782442
C22   C     C_R   0.500000 0.834104 0.999999 0.782404
C23   C     C_R   1.000000 0.665896 0.000001 0.782237
C24   C     C_R   1.000000 0.334104 0.000001 0.782423
C25   C     C_R   0.446491 0.884611 0.960707 -0.190907
C26   C     C_R   0.553514 0.115389 0.039280 -0.191332
C27   C     C_R   0.553514 0.884610 0.039280 -0.191097
C28   C     C_R   0.446491 0.115389 0.960707 -0.190660
C29   C     C_R   0.946505 0.384611 0.960664 -0.190968
C30   C     C_R   0.053491 0.615389 0.039347 -0.190960
C31   C     C_R   0.053490 0.384611 0.039348 -0.190297
C32   C     C_R   0.946504 0.615389 0.960666 -0.191153
H1    H     H_    0.404520 0.872557 0.930054 0.157267
H2    H     H_    0.595484 0.127443 0.069935 0.157714
H3    H     H_    0.595484 0.872557 0.069934 0.157815
H4    H     H_    0.404520 0.127443 0.930055 0.157364
H5    H     H_    0.904550 0.372557 0.929965 0.157939
H6    H     H_    0.095447 0.627442 0.070043 0.157289
H7    H     H_    0.095446 0.372557 0.070045 0.157588
H8    H     H_    0.904549 0.627443 0.929968 0.157833
C33   C     C_R   0.446509 0.916877 0.960701 -0.183100
C34   C     C_R   0.553499 0.083124 0.039281 -0.183132
C35   C     C_R   0.553499 0.916876 0.039280 -0.183025
C36   C     C_R   0.446509 0.083124 0.960702 -0.182986
C37   C     C_R   0.946520 0.416876 0.960663 -0.182666
C38   C     C_R   0.053472 0.583123 0.039353 -0.182981
C39   C     C_R   0.053472 0.416877 0.039354 -0.182521
C40   C     C_R   0.946520 0.583124 0.960665 -0.182914
H9    H     H_    0.404485 0.929005 0.930524 0.129268
H10   H     H_    0.595524 0.070996 0.069456 0.129350
H11   H     H_    0.595523 0.929004 0.069455 0.129419
H12   H     H_    0.404485 0.070995 0.930525 0.129334
H13   H     H_    0.904510 0.429005 0.930442 0.129695
H14   H     H_    0.095482 0.570995 0.069574 0.129410
H15   H     H_    0.095481 0.429005 0.069577 0.129680
H16   H     H_    0.904510 0.570995 0.930445 0.129557
C41   C     C_R   0.500004 0.933290 0.999990 0.115454
C42   C     C_R   0.500004 0.066710 0.999990 0.115454
C43   C     C_R   0.999995 0.433290 0.000010 0.115187
C44   C     C_R   0.999996 0.566710 0.000010 0.115434
C45   C     C_R   0.500002 0.868184 0.999995 -0.003851
C46   C     C_R   0.500002 0.131816 0.999996 -0.003861
C47   C     C_R   0.999998 0.368185 0.000004 -0.004082
C48   C     C_R   0.999998 0.631815 0.000004 -0.003840
C49   C     C_R   0.530629 0.983869 0.056008 -0.183654
C50   C     C_R   0.469382 0.016131 0.943971 -0.183715
C51   C     C_R   0.469382 0.983869 0.943971 -0.183796
C52   C     C_R   0.530629 0.016131 0.056009 -0.183734
C53   C     C_R   0.030546 0.483869 0.056033 -0.183250
C54   C     C_R   0.969443 0.516131 0.943987 -0.183345
C55   C     C_R   0.969443 0.483869 0.943987 -0.183270
C56   C     C_R   0.030546 0.516131 0.056033 -0.183492
H17   H     H_    0.553814 0.971744 0.099868 0.130200
H18   H     H_    0.446197 0.028256 0.900111 0.130130
H19   H     H_    0.446197 0.971744 0.900111 0.130005
H20   H     H_    0.553814 0.028256 0.099868 0.130078
H21   H     H_    0.053673 0.471744 0.099894 0.130181
H22   H     H_    0.946316 0.528256 0.900127 0.130243
H23   H     H_    0.946316 0.471744 0.900126 0.130131
H24   H     H_    0.053674 0.528256 0.099894 0.130046
C57   C     C_R   0.500005 0.032545 0.999990 0.106057
C58   C     C_R   0.500005 0.967455 0.999989 0.106058
C59   C     C_R   0.999995 0.532545 0.000010 0.105991
C60   C     C_R   0.999995 0.467455 0.000010 0.106125
C61   C     C_3   0.246238 0.229200 0.958420 -0.134223
C62   C     C_3   0.724880 0.778312 0.984731 -0.179753
C63   C     C_3   0.724876 0.221685 0.984722 -0.180093
C64   C     C_3   0.246232 0.770792 0.958407 -0.134088
C65   C     C_3   0.775122 0.721683 0.015274 -0.180862
C66   C     C_3   0.253762 0.270797 0.041581 -0.133321
C67   C     C_3   0.253766 0.729203 0.041587 -0.133989
C68   C     C_3   0.775124 0.278312 0.015277 -0.179416
C69   C     C_3   0.760861 0.742353 0.056634 -0.180505
C70   C     C_3   0.259800 0.278320 0.984720 -0.179237
C71   C     C_3   0.259806 0.721675 0.984730 -0.180646
C72   C     C_3   0.760861 0.257641 0.056631 -0.180048
C73   C     C_3   0.240199 0.221678 0.015280 -0.180145
C74   C     C_3   0.739141 0.757643 0.943372 -0.179574
C75   C     C_3   0.739139 0.242357 0.943368 -0.180484
C76   C     C_3   0.240192 0.778320 0.015265 -0.180205
H25   H     H_    0.768625 0.736093 0.103010 0.132598
H26   H     H_    0.268957 0.301514 0.972213 0.133946
H27   H     H_    0.268973 0.698480 0.972235 0.131250
H28   H     H_    0.768625 0.263898 0.103009 0.132822
H29   H     H_    0.231041 0.198484 0.027786 0.132865
H30   H     H_    0.731376 0.763903 0.896995 0.132787
H31   H     H_    0.731375 0.236100 0.896989 0.133049
H32   H     H_    0.231029 0.801516 0.027760 0.132823
H33   H     H_    0.244050 0.212127 0.924288 0.144031
H34   H     H_    0.703179 0.801500 0.972228 0.132791
H35   H     H_    0.703172 0.198498 0.972213 0.132929
H36   H     H_    0.244040 0.787861 0.924268 0.143959
H37   H     H_    0.796823 0.698495 0.027778 0.132492
H38   H     H_    0.255950 0.287870 0.075713 0.144502
H39   H     H_    0.255958 0.712134 0.075726 0.143961
H40   H     H_    0.796828 0.301499 0.027786 0.133409
C77   C     C_3   0.698853 0.749888 0.999787 0.058349
C78   C     C_3   0.300958 0.249919 0.999836 0.057792
C79   C     C_3   0.300957 0.750078 0.999833 0.058454
C80   C     C_3   0.698852 0.250109 0.999784 0.057807
C81   C     C_3   0.199042 0.250079 0.000165 0.057677
C82   C     C_3   0.801149 0.750108 0.000218 0.058401
C83   C     C_3   0.801148 0.249889 0.000215 0.057661
C84   C     C_3   0.199041 0.749918 0.000161 0.058036
C85   C     C_3   0.712194 0.729198 0.958387 -0.134776
C86   C     C_3   0.295798 0.242375 0.056655 -0.180000
C87   C     C_3   0.295796 0.757627 0.056648 -0.179718
C88   C     C_3   0.712196 0.270801 0.958388 -0.133255
C89   C     C_3   0.204201 0.257622 0.943346 -0.180614
C90   C     C_3   0.787807 0.770798 0.041619 -0.133994
C91   C     C_3   0.787804 0.229197 0.041611 -0.134256
C92   C     C_3   0.204202 0.742368 0.943346 -0.179869
H41   H     H_    0.680260 0.712124 0.924227 0.143953
H42   H     H_    0.334433 0.236136 0.103052 0.133039
H43   H     H_    0.334429 0.763872 0.103043 0.132888
H44   H     H_    0.680263 0.287876 0.924231 0.145180
H45   H     H_    0.165566 0.263862 0.896948 0.132982
H46   H     H_    0.819742 0.787871 0.075779 0.143885
H47   H     H_    0.819737 0.212122 0.075767 0.143974
H48   H     H_    0.165569 0.736124 0.896951 0.132683
C93   C     C_R   0.831664 0.269718 0.730740 -0.191308
C94   C     C_R   0.168392 0.730315 0.269260 -0.191051
C95   C     C_R   0.168142 0.269834 0.269259 -0.190741
C96   C     C_R   0.831843 0.730177 0.730740 -0.191074
C97   C     C_R   0.331608 0.769687 0.730741 -0.191146
C98   C     C_R   0.668343 0.230287 0.269259 -0.191319
C99   C     C_R   0.668156 0.769826 0.269258 -0.191157
C100  C     C_R   0.331851 0.230172 0.730739 -0.190826
H49   H     H_    0.817229 0.285125 0.754847 0.157826
H50   H     H_    0.182866 0.714931 0.245153 0.157314
H51   H     H_    0.182225 0.285450 0.245151 0.157473
H52   H     H_    0.817753 0.714564 0.754846 0.157908
H53   H     H_    0.317129 0.785067 0.754849 0.157307
H54   H     H_    0.682769 0.214874 0.245152 0.157725
H55   H     H_    0.682250 0.785435 0.245150 0.157904
H56   H     H_    0.317776 0.214550 0.754845 0.157379
C101  C     C_R   0.799422 0.269731 0.666208 -0.183199
C102  C     C_R   0.200639 0.730306 0.333791 -0.183078
C103  C     C_R   0.200407 0.269833 0.333790 -0.182737
C104  C     C_R   0.799573 0.730182 0.666208 -0.182747
C105  C     C_R   0.299363 0.769698 0.666209 -0.183091
C106  C     C_R   0.700592 0.230279 0.333791 -0.183421
C107  C     C_R   0.700423 0.769825 0.333790 -0.182788
C108  C     C_R   0.299578 0.230180 0.666207 -0.182809
H57   H     H_    0.760508 0.284908 0.641938 0.129453
H58   H     H_    0.239595 0.715155 0.358062 0.129392
H59   H     H_    0.238273 0.285633 0.358059 0.129616
H60   H     H_    0.761697 0.714389 0.641937 0.129782
H61   H     H_    0.260404 0.784848 0.641939 0.129327
H62   H     H_    0.739503 0.215099 0.358061 0.129377
H63   H     H_    0.738300 0.785617 0.358058 0.129706
H64   H     H_    0.261716 0.214379 0.641936 0.129608
C109  C     C_R   0.816676 0.249986 0.633397 0.115469
C110  C     C_R   0.183335 0.750023 0.366602 0.115492
C111  C     C_R   0.183315 0.249992 0.366602 0.115331
C112  C     C_R   0.816674 0.750020 0.633398 0.115340
C113  C     C_R   0.316673 0.749986 0.633397 0.115346
C114  C     C_R   0.683349 0.250030 0.366602 0.115626
C115  C     C_R   0.683317 0.749992 0.366602 0.115198
C116  C     C_R   0.316661 0.250029 0.633398 0.115484
C117  C     C_R   0.866743 0.230230 0.666222 -0.183194
C118  C     C_R   0.133214 0.769747 0.333776 -0.183059
C119  C     C_R   0.133415 0.230137 0.333778 -0.182607
C120  C     C_R   0.866586 0.769867 0.666225 -0.182702
C121  C     C_R   0.366798 0.730265 0.666222 -0.182994
C122  C     C_R   0.633287 0.269789 0.333777 -0.183350
C123  C     C_R   0.633401 0.730146 0.333778 -0.182612
C124  C     C_R   0.366556 0.269887 0.666225 -0.182923
H65   H     H_    0.881397 0.215062 0.641964 0.129470
H66   H     H_    0.118520 0.784892 0.358033 0.129388
H67   H     H_    0.119809 0.214346 0.358037 0.129696
H68   H     H_    0.880199 0.785655 0.641968 0.129800
H69   H     H_    0.381497 0.715123 0.641964 0.129687
H70   H     H_    0.618640 0.284963 0.358034 0.129461
H71   H     H_    0.619784 0.714362 0.358037 0.130124
H72   H     H_    0.380155 0.285683 0.641968 0.129600
C125  C     C_R   0.899027 0.230224 0.730751 -0.191092
C126  C     C_R   0.100927 0.769751 0.269247 -0.190816
C127  C     C_R   0.101161 0.230112 0.269249 -0.190585
C128  C     C_R   0.898844 0.769887 0.730754 -0.190862
C129  C     C_R   0.399083 0.730259 0.730751 -0.189826
C130  C     C_R   0.600996 0.269791 0.269248 -0.192354
C131  C     C_R   0.601145 0.730123 0.269249 -0.189892
C132  C     C_R   0.398817 0.269905 0.730754 -0.191774
H73   H     H_    0.937574 0.214810 0.754865 0.157864
H74   H     H_    0.062337 0.785139 0.245133 0.157396
H75   H     H_    0.062969 0.214488 0.245136 0.157518
H76   H     H_    0.937046 0.785506 0.754868 0.157996
H77   H     H_    0.437677 0.714872 0.754864 0.158445
H78   H     H_    0.562453 0.285207 0.245133 0.157842
H79   H     H_    0.562940 0.714506 0.245136 0.159076
H80   H     H_    0.437005 0.285532 0.754869 0.157456
C133  C     C_R   0.881769 0.249967 0.763592 -0.003841
C134  C     C_R   0.118234 0.750036 0.236407 -0.003677
C135  C     C_R   0.118229 0.249968 0.236407 -0.003847
C136  C     C_R   0.881768 0.750035 0.763593 -0.004024
C137  C     C_R   0.381769 0.749968 0.763592 -0.003981
C138  C     C_R   0.618241 0.250040 0.236407 -0.003575
C139  C     C_R   0.618228 0.749969 0.236407 -0.004329
C140  C     C_R   0.381761 0.250040 0.763593 -0.003575
C141  C     C_R   0.768361 0.221985 0.532245 -0.183793
C142  C     C_R   0.231563 0.778025 0.467752 -0.183736
C143  C     C_R   0.186475 0.248762 0.467703 -0.183285
C144  C     C_R   0.813508 0.751246 0.532296 -0.183254
C145  C     C_R   0.268445 0.721985 0.532248 -0.183638
C146  C     C_R   0.731666 0.278032 0.467755 -0.183989
C147  C     C_R   0.686482 0.748769 0.467705 -0.183177
C148  C     C_R   0.313500 0.251263 0.532299 -0.183256
H81   H     H_    0.781438 0.200051 0.556489 0.130240
H82   H     H_    0.218413 0.799958 0.443507 0.130207
H83   H     H_    0.137262 0.248249 0.443418 0.130239
H84   H     H_    0.862722 0.751749 0.556579 0.130247
H85   H     H_    0.281595 0.700052 0.556493 0.130388
H86   H     H_    0.718590 0.299966 0.443512 0.129885
H87   H     H_    0.637269 0.748266 0.443422 0.130297
H88   H     H_    0.362714 0.251776 0.556585 0.130365
C149  C     C_R   0.736123 0.221996 0.467721 -0.183795
C150  C     C_R   0.263802 0.778016 0.532276 -0.183808
C151  C     C_R   0.218724 0.248768 0.532227 -0.183435
C152  C     C_R   0.781257 0.751242 0.467772 -0.183086
C153  C     C_R   0.236205 0.721994 0.467724 -0.183795
C154  C     C_R   0.763904 0.278021 0.532280 -0.183838
C155  C     C_R   0.718734 0.748772 0.532229 -0.183097
C156  C     C_R   0.281251 0.251257 0.467775 -0.183237
H89   H     H_    0.724957 0.200070 0.443450 0.130125
H90   H     H_    0.274895 0.799942 0.556545 0.130088
H91   H     H_    0.193759 0.248260 0.556456 0.130211
H92   H     H_    0.806221 0.751741 0.443542 0.130270
H93   H     H_    0.225111 0.700068 0.443456 0.130131
H94   H     H_    0.775068 0.299947 0.556551 0.130032
H95   H     H_    0.693770 0.748272 0.556460 0.130312
H96   H     H_    0.306218 0.251764 0.443547 0.130344
C157  C     C_R   0.717498 0.250019 0.434920 0.106143
C158  C     C_R   0.282522 0.749996 0.565080 0.106131
C159  C     C_R   0.282515 0.250019 0.565081 0.105959
C160  C     C_R   0.717465 0.750003 0.434920 0.106086
C161  C     C_R   0.217485 0.750014 0.434920 0.106115
C162  C     C_R   0.782529 0.249998 0.565080 0.106125
C163  C     C_R   0.782525 0.750011 0.565081 0.106012
C164  C     C_R   0.217461 0.250005 0.434921 0.106053
C165  C     C_R   0.460107 0.615792 0.012574 -0.191418
C166  C     C_R   0.483449 0.384212 0.945396 -0.191450
C167  C     C_R   0.539867 0.615789 0.987406 -0.191261
C168  C     C_R   0.516531 0.384214 0.054590 -0.191198
C169  C     C_R   0.986359 0.115352 0.039705 -0.190539
C170  C     C_R   0.013653 0.884648 0.960306 -0.190987
C171  C     C_R   0.013656 0.115351 0.960308 -0.191208
C172  C     C_R   0.986363 0.884648 0.039707 -0.190757
C173  C     C_R   0.459470 0.583544 0.011711 -0.177920
C174  C     C_R   0.482599 0.416460 0.945150 -0.178086
C175  C     C_R   0.540492 0.583541 0.988258 -0.178008
C176  C     C_R   0.517368 0.416462 0.054827 -0.178171
C177  C     C_R   0.986344 0.083091 0.039682 -0.182695
C178  C     C_R   0.013675 0.916909 0.960335 -0.182668
C179  C     C_R   0.013677 0.083091 0.960337 -0.182822
C180  C     C_R   0.986347 0.916909 0.039684 -0.182846
H97   H     H_    0.426638 0.571673 0.019450 0.127213
H98   H     H_    0.467536 0.428330 0.901746 0.127337
H99   H     H_    0.573319 0.571668 0.980516 0.127253
H100  H     H_    0.532427 0.428335 0.098228 0.127226
H101  H     H_    0.976389 0.070960 0.071252 0.129706
H102  H     H_    0.023631 0.929041 0.928766 0.129823
H103  H     H_    0.023635 0.070959 0.928768 0.129728
H104  H     H_    0.976394 0.929040 0.071256 0.129615
C181  C     C_R   0.499978 0.566990 0.999983 0.114562
C182  C     C_R   0.499980 0.433013 0.999986 0.114504
C183  C     C_R   0.000012 0.066686 0.000010 0.115394
C184  C     C_R   0.000012 0.933314 0.000011 0.115392
C185  C     C_R   0.499991 0.632069 0.999993 0.008857
C186  C     C_R   0.499993 0.367934 0.999995 0.007948
C187  C     C_R   0.000005 0.131772 0.000004 -0.003808
C188  C     C_R   0.000005 0.868228 0.000004 -0.003818
C189  C     C_R   0.513319 0.516121 0.960133 -0.181311
C190  C     C_R   0.485836 0.483882 0.039238 -0.181319
C191  C     C_R   0.486627 0.516122 0.039827 -0.181145
C192  C     C_R   0.514112 0.483882 0.960724 -0.181213
C193  C     C_R   0.046178 0.016129 0.997596 -0.183225
C194  C     C_R   0.953849 0.983871 0.002428 -0.183190
C195  C     C_R   0.953849 0.016129 0.002428 -0.183278
C196  C     C_R   0.046178 0.983871 0.997596 -0.183314
H105  H     H_    0.522747 0.528002 0.927982 0.127034
H106  H     H_    0.473640 0.472001 0.069328 0.127086
H107  H     H_    0.477199 0.528003 0.071977 0.127188
H108  H     H_    0.526309 0.472001 0.930635 0.127092
H109  H     H_    0.082773 0.028257 0.996637 0.130271
H110  H     H_    0.917254 0.971743 0.003387 0.130330
H111  H     H_    0.917253 0.028257 0.003387 0.130310
H112  H     H_    0.082773 0.971743 0.996637 0.130252
C197  C     C_R   0.499975 0.467338 0.999982 0.107792
C198  C     C_R   0.499974 0.532665 0.999980 0.107757
C199  C     C_R   0.000013 0.967466 0.000012 0.106064
C200  C     C_R   0.000013 0.032534 0.000012 0.106063
H113  H     H_    0.428541 0.628031 0.021777 0.146794
H114  H     H_    0.469941 0.371974 0.902626 0.147649
H115  H     H_    0.571437 0.628025 0.978205 0.147003
H116  H     H_    0.530043 0.371979 0.097363 0.147634
H117  H     H_    0.975825 0.127406 0.070924 0.157539
H118  H     H_    0.024184 0.872595 0.929083 0.157994
H119  H     H_    0.024188 0.127405 0.929086 0.157889
H120  H     H_    0.975830 0.872594 0.070928 0.157436

loop_
_geom_bond_atom_site_label_1
_geom_bond_atom_site_label_2
_geom_bond_distance
_ccdc_geom_bond_type
C119  C127  1.393853 A    
C90   H46   1.110170 S    
C94   C102  1.393905 A    
Zn6   O42   1.932133 S    
C74   C85   1.546338 S    
C34   H10   1.083036 S    
C125  C133  1.404349 A    
C100  C140  1.404352 A    
C127  H75   1.082996 S    
C149  C157  1.403950 A    
C190  H106  1.082134 S    
C65   C85   1.546334 S    
O42   C14   1.282208 A    
Zn4   O30   1.932336 S    
C42   C57   1.476108 S    
C30   C38   1.394036 A    
C87   H43   1.110129 S    
C141  C149  1.393743 A    
C55   C60   1.404062 A    
C85   H41   1.110167 S    
O46   C2    1.274174 A    
O24   C18   1.279989 A    
C113  C158  1.475681 S    
C98   H54   1.082985 S    
C63   C75   1.547176 S    
C110  C161  1.475688 S    
C142  H82   1.082996 S    
C35   C41   1.403906 A    
C88   H44   1.110156 S    
C178  C184  1.403751 A    
Zn16  O28   1.932200 S    
C106  C114  1.403797 A    
C68   C88   1.546324 S    
Zn4   O2    1.942485 S    
C11   C138  1.472104 S    
C131  H79   1.082985 S    
C40   C44   1.403892 A    
C92   H48   1.110128 S    
Zn4   O40   1.932132 S    
C168  C176  1.393402 A    
O33   C23   1.282444 A    
O11   C7    1.274118 A    
Zn7   O43   1.932133 S    
C179  C183  1.403747 A    
O25   C19   1.282226 A    
C189  C192  1.393024 A    
C74   H30   1.110137 S    
C142  C150  1.393745 A    
C193  H109  1.082989 S    
C150  H90   1.082998 S    
C7    C82   1.464212 S    
C109  C117  1.403761 A    
C29   C47   1.404418 A    
C25   H1    1.083015 S    
C36   H12   1.083037 S    
C96   H52   1.082988 S    
C113  C121  1.403773 A    
Zn12  O24   1.932200 S    
C100  H56   1.082992 S    
Zn13  O17   1.931515 S    
C181  C198  1.483016 S    
O16   C12   1.282148 A    
C38   C44   1.403893 A    
Zn10  O14   1.931519 S    
C104  C112  1.403809 A    
C179  H103  1.083013 S    
Zn16  O4    1.943597 S    
C145  C158  1.403979 A    
C191  H107  1.082131 S    
C141  C162  1.403960 A    
Zn5   O3    1.942489 S    
C123  H71   1.083016 S    
C143  C164  1.403991 A    
Zn7   O3    1.942485 S    
C28   H4    1.083015 S    
C168  H116  1.083380 S    
C95   C135  1.404352 A    
O23   C17   1.280003 A    
C105  H61   1.083021 S    
Zn8   O34   1.932336 S    
C97   C105  1.393909 A    
C120  H68   1.083015 S    
Zn9   O21   1.932200 S    
C64   C79   1.535113 S    
C81   C89   1.532791 S    
C67   C84   1.535119 S    
C107  C115  1.403808 A    
C68   C83   1.532812 S    
C72   C80   1.532823 S    
C30   H6    1.083005 S    
C32   C48   1.404417 A    
C54   C59   1.404061 A    
C75   C83   1.532820 S    
C16   C133  1.472113 S    
C76   C84   1.532793 S    
Zn10  O22   1.932200 S    
C184  C199  1.475524 S    
C141  H81   1.082984 S    
C93   H49   1.082982 S    
C64   H36   1.110161 S    
C167  C175  1.393402 A    
C166  H114  1.083379 S    
C173  C181  1.407329 A    
Zn6   O4    1.942489 S    
Zn10  O2    1.943597 S    
C190  C197  1.405463 A    
C99   C139  1.404345 A    
Zn3   O1    1.942485 S    
C84   C92   1.532797 S    
C4    C77   1.464202 S    
C116  C159  1.475681 S    
C26   H2    1.083015 S    
C112  C163  1.475684 S    
Zn5   O35   1.932334 S    
C121  H69   1.083021 S    
Zn6   O36   1.932334 S    
C182  C197  1.483016 S    
C172  H120  1.082982 S    
C171  C179  1.393820 A    
O51   C7    1.272065 A    
C67   C87   1.546313 S    
C26   C46   1.404429 A    
C97   C137  1.404354 A    
C69   C90   1.546335 S    
O22   C18   1.279986 A    
Zn9   O45   1.933920 S    
C174  H98   1.082091 S    
Zn11  O47   1.933920 S    
Zn12  O48   1.933921 S    
C165  H113  1.083387 S    
C102  C110  1.403812 A    
C190  C191  1.393024 A    
C64   C76   1.546310 S    
O50   C6    1.272054 A    
C93   C133  1.404340 A    
C35   H11   1.083037 S    
C117  C125  1.393855 A    
Zn1   O37   1.932132 S    
C178  H102  1.083012 S    
Zn5   O11   1.934523 S    
C22   C45   1.472452 S    
Zn3   O39   1.932133 S    
Zn6   O12   1.934518 S    
C156  C164  1.403968 A    
C146  C154  1.393747 A    
C152  C160  1.403956 A    
C72   C91   1.546321 S    
C194  C195  1.393682 A    
O35   C23   1.282441 A    
C126  C134  1.404366 A    
C51   H19   1.083020 S    
C132  H80   1.082996 S    
O32   C22   1.282442 A    
C174  C182  1.407318 A    
C165  C173  1.393406 A    
C27   H3    1.083014 S    
C61   H33   1.110159 S    
C32   H8    1.083005 S    
C111  C119  1.403782 A    
C19   C188  1.471977 S    
C41   C58   1.476108 S    
C193  C196  1.393686 A    
C196  H112  1.082988 S    
C18   C185  1.463634 S    
C76   C87   1.547190 S    
O5    C1    1.274116 A    
C108  C116  1.403813 A    
Zn4   O6    1.934524 S    
C154  C162  1.403949 A    
Zn15  O51   1.933920 S    
C128  H76   1.082987 S    
C129  H77   1.082992 S    
C150  C158  1.403966 A    
C34   C42   1.403904 A    
C125  H73   1.082983 S    
C72   H28   1.110128 S    
C151  H91   1.083003 S    
C145  H85   1.082999 S    
O29   C21   1.282441 A    
O8    C4    1.274121 A    
C147  H87   1.082994 S    
C115  C160  1.475690 S    
Zn9   O1    1.943598 S    
C148  H88   1.083003 S    
C61   C73   1.546317 S    
C78   C86   1.532794 S    
C49   C58   1.404079 A    
Zn14  O18   1.931519 S    
C103  H59   1.083021 S    
C193  C200  1.403930 A    
C50   C51   1.393898 A    
O52   C8    1.274174 A    
C51   C58   1.404080 A    
C95   H51   1.082990 S    
Zn1   O1    1.942489 S    
O40   C12   1.282203 A    
C176  C182  1.407321 A    
C29   H5    1.083005 S    
C172  C180  1.393820 A    
C15   C134  1.472104 S    
Zn16  O20   1.931514 S    
C96   C136  1.404341 A    
C54   H22   1.083009 S    
C75   H31   1.110127 S    
O9    C5    1.271996 A    
C5    C84   1.464212 S    
Zn3   O5    1.934519 S    
C6    C83   1.464204 S    
O13   C9    1.282135 A    
C122  H70   1.083008 S    
C30   C48   1.404420 A    
C3    C78   1.464209 S    
C191  C198  1.405465 A    
O6    C2    1.271997 A    
C155  C163  1.403954 A    
C25   C33   1.394036 A    
C89   H45   1.110130 S    
C32   C40   1.394032 A    
C153  C161  1.403966 A    
C73   C86   1.547195 S    
C194  H110  1.082988 S    
Zn13  O25   1.932200 S    
C52   C57   1.404080 A    
C33   H9    1.083034 S    
Zn15  O3    1.943596 S    
C98   C138  1.404334 A    
C66   C86   1.546316 S    
C93   C101  1.393909 A    
C68   C72   1.547173 S    
C189  H105  1.082134 S    
O43   C15   1.282207 A    
C31   C39   1.394036 A    
C61   C78   1.535115 S    
C101  C109  1.403793 A    
C86   H42   1.110128 S    
C20   C187  1.471977 S    
C149  H89   1.082989 S    
C76   H32   1.110131 S    
C75   C88   1.546320 S    
C114  C157  1.475688 S    
C65   C82   1.532833 S    
C69   C77   1.532830 S    
C119  H67   1.083023 S    
C97   H53   1.082995 S    
C120  C128  1.393847 A    
C121  C129  1.393848 A    
C148  C159  1.403984 A    
C155  H95   1.082995 S    
C73   C81   1.532801 S    
C109  C162  1.475679 S    
C156  H96   1.082999 S    
C53   C60   1.404065 A    
C67   C71   1.546317 S    
C71   H27   1.110136 S    
C36   C42   1.403905 A    
C144  C163  1.403974 A    
C145  C153  1.393741 A    
C171  C187  1.404328 A    
Zn10  O46   1.933919 S    
C65   H37   1.110138 S    
C25   C45   1.404431 A    
C53   C56   1.393902 A    
C63   H35   1.110128 S    
Zn13  O3    1.943598 S    
C110  C118  1.403778 A    
Zn14  O4    1.943597 S    
C39   H15   1.083025 S    
C118  C126  1.393848 A    
Zn2   O38   1.932133 S    
C77   C85   1.535065 S    
O19   C15   1.282138 A    
Zn1   O31   1.932334 S    
Zn13  O49   1.933920 S    
C23   C48   1.472461 S    
C114  C122  1.403766 A    
Zn2   O32   1.932334 S    
Zn3   O29   1.932336 S    
C21   C46   1.472452 S    
O37   C9    1.282214 A    
O7    C3    1.271994 A    
C194  C199  1.403926 A    
C50   H18   1.083019 S    
O39   C11   1.282211 A    
C53   H21   1.083009 S    
C70   H26   1.110130 S    
C146  C157  1.403963 A    
C127  C135  1.404365 A    
C171  H119  1.082981 S    
C169  H117  1.082980 S    
C142  C161  1.403985 A    
C172  C188  1.404329 A    
C62   H34   1.110139 S    
C143  C151  1.393745 A    
C144  H84   1.082994 S    
C98   C106  1.393905 A    
C65   C69   1.547186 S    
C175  H99   1.082093 S    
C82   C90   1.535064 S    
C28   C46   1.404430 A    
C129  C137  1.404363 A    
Zn11  O1    1.943596 S    
C40   H16   1.083026 S    
C195  C200  1.403932 A    
C117  H65   1.083009 S    
C102  H58   1.083020 S    
C131  C139  1.404352 A    
O30   C22   1.282443 A    
C31   C47   1.404418 A    
C31   H7    1.083006 S    
C49   H17   1.083019 S    
Zn7   O9    1.934519 S    
Zn5   O41   1.932132 S    
C101  H57   1.083006 S    
C130  H78   1.082981 S    
C52   H20   1.083018 S    
Zn8   O44   1.932132 S    
C126  H74   1.082993 S    
C62   C90   1.546332 S    
C28   C36   1.394032 A    
C26   C34   1.394032 A    
C189  C198  1.405461 A    
C63   C91   1.546326 S    
C146  H86   1.082990 S    
C54   C55   1.393898 A    
Zn15  O27   1.932201 S    
C96   C104  1.393907 A    
C27   C45   1.404428 A    
C62   C74   1.547180 S    
C50   C57   1.404081 A    
C183  C200  1.475524 S    
O38   C10   1.282204 A    
C115  C123  1.403773 A    
C180  H104  1.083008 S    
Zn2   O2    1.942489 S    
C147  C160  1.403980 A    
C192  C197  1.405464 A    
C56   H24   1.083006 S    
O49   C5    1.274184 A    
C123  C131  1.393847 A    
C124  C132  1.393847 A    
C70   C89   1.547190 S    
C55   H23   1.083010 S    
C12   C137  1.472111 S    
Zn8   O4    1.942485 S    
C128  C136  1.404356 A    
C99   C107  1.393907 A    
O21   C17   1.280007 A    
C83   C91   1.535055 S    
C63   C80   1.532819 S    
C103  C111  1.403812 A    
C61   C89   1.546317 S    
C73   H29   1.110128 S    
C71   C79   1.532797 S    
C107  H63   1.083014 S    
C39   C43   1.403891 A    
C195  H111  1.082989 S    
C8    C81   1.464201 S    
C152  H92   1.082993 S    
O10   C6    1.274121 A    
C177  H101  1.083008 S    
C147  C155  1.393741 A    
C148  C156  1.393743 A    
C49   C52   1.393893 A    
Zn16  O52   1.933921 S    
C143  H83   1.083003 S    
C111  C164  1.475692 S    
C144  C152  1.393741 A    
Zn9   O13   1.931515 S    
Zn14  O26   1.932200 S    
C173  H97   1.082091 S    
C169  C177  1.393820 A    
C95   C103  1.393907 A    
Zn12  O16   1.931514 S    
O31   C21   1.282444 A    
C64   C92   1.546317 S    
C13   C136  1.472102 S    
C153  H93   1.083000 S    
C166  C174  1.393405 A    
C14   C135  1.472109 S    
Zn15  O19   1.931518 S    
C130  C138  1.404352 A    
C69   H25   1.110135 S    
C168  C186  1.400478 A    
Zn8   O10   1.934524 S    
C62   C77   1.532822 S    
C170  C188  1.404332 A    
C94   C134  1.404347 A    
C24   C47   1.472461 S    
Zn7   O33   1.932336 S    
C196  C199  1.403929 A    
C66   C81   1.535105 S    
C70   C78   1.532797 S    
C154  H94   1.082988 S    
C122  C130  1.393855 A    
C17   C186  1.463703 S    
C74   C82   1.532832 S    
O14   C10   1.282145 A    
C177  C183  1.403749 A    
C167  C185  1.400463 A    
C43   C60   1.476103 S    
C44   C59   1.476099 S    
C56   C59   1.404064 A    
C91   H47   1.110160 S    
Zn14  O50   1.933919 S    
C37   H13   1.083025 S    
C151  C159  1.403963 A    
Zn11  O23   1.932201 S    
C66   H38   1.110165 S    
C1    C80   1.464210 S    
C180  C184  1.403749 A    
C2    C79   1.464197 S    
C33   C41   1.403904 A    
C71   C92   1.547200 S    
Zn1   O7    1.934523 S    
Zn2   O8    1.934518 S    
O41   C13   1.282211 A    
C106  H62   1.083010 S    
O26   C20   1.282222 A    
C9    C140  1.472102 S    
C29   C37   1.394032 A    
C10   C139  1.472109 S    
O45   C1    1.272063 A    
O34   C24   1.282443 A    
C112  C120  1.403771 A    
C79   C87   1.532791 S    
O47   C3    1.274186 A    
C99   H55   1.082987 S    
C116  C124  1.403777 A    
O15   C11   1.282134 A    
C37   C43   1.403891 A    
C132  C140  1.404369 A    
O18   C14   1.282143 A    
C94   H50   1.082993 S    
C166  C186  1.400481 A    
O27   C19   1.282223 A    
C192  H108  1.082133 S    
C124  H72   1.083023 S    
C170  H118  1.082980 S    
C105  C113  1.403809 A    
C27   C35   1.394027 A    
O44   C16   1.282208 A    
C170  C178  1.393816 A    
O20   C16   1.282142 A    
C165  C185  1.400467 A    
C100  C108  1.393909 A    
C118  H66   1.083020 S    
C167  H115  1.083386 S    
O48   C4    1.272055 A    
C104  H60   1.083011 S    
C169  C187  1.404331 A    
C66   C70   1.546313 S    
Zn11  O15   1.931518 S    
C38   H14   1.083026 S    
C80   C88   1.535054 S    
C175  C181  1.407328 A    
Zn12  O2    1.943597 S    
C108  H64   1.083020 S    
C176  H100  1.082093 S    
C67   H39   1.110163 S    
O28   C20   1.282227 A    
O17   C13   1.282139 A    
C68   H40   1.110127 S    
O36   C24   1.282443 A    
O12   C8    1.272002 A    
