data_mof_unit_11260.cif
_audit_creation_date              2012-10-26T20:51:08-0400
_audit_creation_method            fapswitch 2.2
_symmetry_space_group_name_H-M    P1
_symmetry_Int_Tables_number       1
_space_group_crystal_system       triclinic
_cell_length_a                    12.912377
_cell_length_b                    10.856219
_cell_length_c                    9.577264
_cell_angle_alpha                 89.93184
_cell_angle_beta                  96.667165
_cell_angle_gamma                 89.941711
_cell_volume                      1333.45600884

loop_
_atom_site_label
_atom_site_type_symbol
_atom_type_description
_atom_site_fract_x
_atom_site_fract_y
_atom_site_fract_z
_atom_type_partial_charge
C1    C     C_R   0.499796 0.262178 0.499454 0.638100
C2    C     C_R   0.497078 0.933419 0.370073 -0.112956
C3    C     C_R   0.483329 0.869450 0.493859 -0.037322
C4    C     C_R   0.300872 0.500294 0.473425 0.585804
C5    C     C_R   0.454919 0.936618 0.606880 0.025608
C6    C     C_3   0.476454 0.925206 0.762458 0.129720
C7    C     C_3   0.482298 0.066005 0.765409 0.151189
C8    C     C_R   0.571666 0.568981 0.085272 0.035808
C9    C     C_R   0.426648 0.436891 0.061165 0.368659
C10   C     C_R   0.425864 0.439282 0.913150 0.073868
C11   C     C_R   0.574282 0.563597 0.938261 0.172225
C12   C     C_R   0.022259 0.423001 0.518764 0.020147
C13   C     C_3   0.689989 0.542355 0.952340 0.432504
C14   C     C_3   0.689037 0.554320 0.110722 0.163458
C15   C     C_R   0.495621 0.737130 0.499037 0.533096
C16   C     C_R   0.699048 0.496005 0.526239 0.588105
C17   C     C_R   0.810262 0.473252 0.538409 -0.026574
C18   C     C_R   0.188067 0.503882 0.459045 0.038020
C19   C     C_R   0.034738 0.629862 0.416816 -0.102263
C20   C     C_R   0.139262 0.611200 0.405660 -0.138555
C21   C     C_R   0.131542 0.408842 0.515824 0.257313
C22   C     C_3   0.848766 0.621000 0.895188 0.025208
C23   C     C_R   0.976783 0.538843 0.475748 -0.036394
C24   C     C_3   0.899319 0.736928 0.845219 -0.338985
C25   C     C_3   0.698428 0.767525 0.170885 -0.003453
C26   C     C_3   0.775782 0.868491 0.219652 -0.322615
C27   C     C_R   0.872846 0.563275 0.489461 -0.175085
C28   C     C_R   0.849714 0.354665 0.568979 0.253161
C29   C     C_R   0.955513 0.328592 0.561035 0.290947
C30   C     C_R   0.460206 0.062587 0.607977 -0.007927
C31   C     C_R   0.491933 0.128539 0.494387 0.064276
C32   C     C_R   0.504774 0.061361 0.369771 0.239102
Cl1   Cl    Cl    0.610233 0.116794 0.828378 -0.427318
Cl2   Cl    Cl    0.334236 0.341651 0.127959 -0.460017
Cl3   Cl    Cl    0.723824 0.388119 0.905254 -0.467193
Cl4   Cl    Cl    0.763435 0.234425 0.601522 -0.416141
Cl5   Cl    Cl    0.993984 0.172769 0.586933 -0.387438
Cl6   Cl    Cl    0.204289 0.281236 0.590840 -0.494360
Cl7   Cl    Cl    0.541444 0.126702 0.213633 -0.481061
Cl8   Cl    Cl    0.366508 0.865986 0.837493 -0.538008
Cu1   Cu    Cu3+1 0.499990 0.499980 0.640670 1.123285
Cu2   Cu    Cu3+1 0.500010 0.500020 0.359330 1.092537
H1    H     H_    0.839059 0.651960 0.457799 0.147088
H2    H     H_    0.867045 0.544528 0.825080 0.179479
H3    H     H_    0.883442 0.816174 0.912713 0.191592
H4    H     H_    0.984939 0.723382 0.850407 0.140875
H5    H     H_    0.867650 0.757574 0.734821 0.172626
H6    H     H_    0.640286 0.762378 0.246436 0.158845
H7    H     H_    0.660270 0.792320 0.064358 0.180635
H8    H     H_    0.812210 0.849265 0.328255 0.153898
H9    H     H_    0.837689 0.873861 0.148615 0.179590
H10   H     H_    0.734894 0.958536 0.218682 0.191925
H11   H     H_    0.550995 0.876701 0.797019 0.171127
H12   H     H_    0.419267 0.111844 0.816022 0.211847
H13   H     H_    0.367509 0.387447 0.847619 0.178849
H14   H     H_    0.711906 0.467112 0.166972 0.188405
H15   H     H_    0.999262 0.716495 0.380636 0.150855
H16   H     H_    0.183854 0.684158 0.363577 0.146079
H17   H     H_    0.507887 0.884623 0.274657 0.163551
H18   H     H_    0.883756 0.600487 0.004445 0.190353
N1    N     N_R   0.500660 0.500930 0.148010 -0.249907
N2    N     N_R   0.500660 0.500890 0.852110 -0.256941
O1    O     O_R   0.500000 0.319640 0.618810 -0.458552
O2    O     O_3   0.751413 0.653936 0.170232 -0.580782
O3    O     O_R   0.500010 0.319680 0.381230 -0.416776
O4    O     O_R   0.348990 0.499960 0.599490 -0.495048
O5    O     O_R   0.349000 0.500000 0.361910 -0.458789
O6    O     O_R   0.499990 0.680320 0.618770 -0.483978
O7    O     O_R   0.500000 0.680360 0.381190 -0.539663
O8    O     O_R   0.651000 0.500000 0.638090 -0.424780
O9    O     O_R   0.651010 0.500040 0.400510 -0.512325
O10   O     O_3   0.739850 0.639630 0.886927 -0.548554

loop_
_geom_bond_atom_site_label_1
_geom_bond_atom_site_label_2
_ccdc_geom_bond_type
C4    O5    A    
C19   C23   A    
C6    C7    S    
C13   O10   S    
C23   C27   A    
C12   C29   A    
Cu2   O3    S    
C18   C21   A    
C7    Cl1   S    
C9    C10   A    
Cu2   O7    S    
C14   H14   S    
C19   C20   A    
Cu2   N1    S    
C8    N1    A    
C11   N2    A    
C14   O2    S    
C25   H7    S    
C24   H5    S    
C2    C3    A    
C4    C18   S    
C7    C30   S    
C26   H9    S    
C19   H15   S    
C4    O4    A    
C10   H13   S    
C11   C13   S    
C12   C23   A    
C10   N2    A    
C16   O9    A    
C12   C21   A    
Cu1   N2    S    
C8    C11   A    
C9    N1    A    
C15   O6    A    
C1    O1    A    
C22   C24   S    
C22   O10   S    
C28   C29   A    
C9    Cl2   S    
C13   Cl3   S    
Cu1   O6    S    
C18   C20   A    
C26   H8    S    
C22   H18   S    
Cu2   O5    S    
C15   O7    A    
C6    Cl8   S    
C24   H3    S    
C6    H11   S    
C20   H16   S    
C13   C14   S    
C17   C27   A    
C27   H1    S    
C1    C31   S    
C16   O8    A    
C28   Cl4   S    
C2    C32   A    
C5    C30   A    
Cu1   Cu2   S    
C32   Cl7   S    
C29   Cl5   S    
C5    C6    S    
C24   H4    S    
Cu1   O1    S    
C30   C31   A    
C16   C17   S    
C3    C15   S    
C8    C14   S    
Cu1   O4    S    
C7    H12   S    
C25   C26   S    
C2    H17   S    
C17   C28   A    
C25   H6    S    
C1    O3    A    
C26   H10   S    
C22   H2    S    
C21   Cl6   S    
C31   C32   A    
Cu2   O9    S    
Cu1   O8    S    
C3    C5    A    
C25   O2    S    
