data_mof_unit_7672.cif
_audit_creation_date              2012-10-26T19:15:06-0400
_audit_creation_method            fapswitch 2.2
_symmetry_space_group_name_H-M    P1
_symmetry_Int_Tables_number       1
_space_group_crystal_system       triclinic
_cell_length_a                    10.883756
_cell_length_b                    10.896443
_cell_length_c                    9.540716
_cell_angle_alpha                 90.889456
_cell_angle_beta                  91.02154
_cell_angle_gamma                 90.701684
_cell_volume                      1131.06893896

loop_
_atom_site_label
_atom_site_type_symbol
_atom_type_description
_atom_site_fract_x
_atom_site_fract_y
_atom_site_fract_z
_atom_type_partial_charge
C1    C     C_R   0.498325 0.263075 0.498890 0.566776
C2    C     C_R   0.522181 0.941864 0.614481 -0.024589
C3    C     C_3   0.573350 0.939959 0.760607 -0.247034
C4    C     C_R   0.262114 0.500984 0.498247 0.565816
C5    C     C_3   0.578476 0.080686 0.756293 -0.014173
C6    C     C_R   0.600466 0.541448 0.076776 0.163394
C7    C     C_R   0.410314 0.440784 0.071563 0.026958
C8    C     C_R   0.409698 0.441628 0.922591 0.010610
C9    C     C_R   0.600168 0.542003 0.929284 0.165740
C10   C     C_3   0.652223 0.668595 0.929884 -0.276242
C11   C     C_3   0.657510 0.665795 0.088384 -0.260657
C12   C     C_R   0.939100 0.460706 0.617408 0.041313
C13   C     C_R   0.494355 0.737548 0.500154 0.566320
C14   C     C_R   0.737493 0.498935 0.500790 0.560010
C15   C     C_R   0.065897 0.460229 0.614047 -0.004441
C16   C     C_R   0.128443 0.493770 0.493187 0.015931
C17   C     C_R   0.058529 0.513888 0.368536 0.074781
C18   C     C_R   0.930951 0.509850 0.372722 -0.123012
C19   C     C_R   0.870244 0.491540 0.499029 -0.005718
C20   C     C_3   0.938701 0.514905 0.761832 -0.246422
C21   C     C_3   0.077767 0.511501 0.759885 -0.244755
C22   C     C_R   0.526391 0.065413 0.612409 0.032862
C23   C     C_R   0.492577 0.131260 0.496208 -0.001315
C24   C     C_R   0.448546 0.065000 0.377739 -0.127175
C25   C     C_R   0.442636 0.935795 0.378189 0.068548
C26   C     C_R   0.485193 0.870793 0.498441 0.019412
Cu1   Cu    Cu3+1 0.499990 0.499980 0.640670 0.973186
Cu2   Cu    Cu3+1 0.500010 0.500020 0.359330 1.001503
H1    H     H_    0.513624 0.126213 0.828657 0.143647
H2    H     H_    0.416392 0.113245 0.285945 0.154195
H3    H     H_    0.503805 0.907300 0.835722 0.141588
H4    H     H_    0.665197 0.896694 0.766156 0.162411
H5    H     H_    0.337518 0.393387 0.125039 0.141364
H6    H     H_    0.743676 0.675185 0.881939 0.125580
H7    H     H_    0.121864 0.604144 0.764617 0.170873
H8    H     H_    0.335837 0.395762 0.864663 0.119234
H9    H     H_    0.582985 0.732256 0.889979 0.155904
H10   H     H_    0.752877 0.663320 0.131582 0.136175
H11   H     H_    0.597982 0.734784 0.138548 0.189836
H12   H     H_    0.879415 0.529003 0.277658 0.154638
H13   H     H_    0.903800 0.610074 0.762809 0.135873
H14   H     H_    0.897610 0.451972 0.839240 0.177155
H15   H     H_    0.116867 0.444029 0.833965 0.159786
I1    I     I_    0.126226 0.569599 0.171387 -0.386452
I2    I     I_    0.761429 0.155785 0.756924 -0.373817
I3    I     I_    0.357252 0.854155 0.196872 -0.346765
N1    N     N_R   0.500790 0.500930 0.147930 -0.221649
N2    N     N_R   0.500790 0.500890 0.852020 -0.231409
O1    O     O_R   0.500000 0.319640 0.618810 -0.492323
O2    O     O_R   0.500010 0.319680 0.381230 -0.512172
O3    O     O_R   0.319650 0.499970 0.618810 -0.520059
O4    O     O_R   0.319660 0.500010 0.381230 -0.470083
O5    O     O_R   0.499990 0.680320 0.618770 -0.509453
O6    O     O_R   0.500000 0.680360 0.381190 -0.476718
O7    O     O_R   0.680340 0.499990 0.618770 -0.490610
O8    O     O_R   0.680350 0.500030 0.381190 -0.514375

loop_
_geom_bond_atom_site_label_1
_geom_bond_atom_site_label_2
_ccdc_geom_bond_type
Cu1   N2    S    
C2    C22   A    
C11   H10   S    
C14   O8    A    
C23   C24   A    
Cu1   O5    S    
Cu2   N1    S    
C4    C16   S    
C21   H7    S    
C1    O2    A    
C7    H5    S    
C9    C10   S    
C20   H14   S    
C12   C15   A    
C14   O7    A    
C12   C20   S    
C6    C9    A    
C8    N2    A    
C2    C3    S    
Cu2   O8    S    
C17   I1    S    
C7    C8    A    
C2    C26   A    
C20   C21   S    
C3    H3    S    
Cu2   O4    S    
Cu2   O2    S    
C4    O4    A    
C10   H9    S    
C20   H13   S    
C25   I3    S    
C12   C19   A    
Cu1   O3    S    
C1    C23   S    
C13   O5    A    
C10   C11   S    
C17   C18   A    
C3    H4    S    
C11   H11   S    
Cu1   O7    S    
C13   C26   S    
C24   H2    S    
C6    N1    A    
C4    O3    A    
C15   C16   A    
C5    H1    S    
C15   C21   S    
C24   C25   A    
C9    N2    A    
C10   H6    S    
C13   O6    A    
C8    H8    S    
C6    C11   S    
C18   H12   S    
C22   C23   A    
C18   C19   A    
Cu2   O6    S    
C3    C5    S    
C25   C26   A    
C21   H15   S    
C5    I2    S    
C14   C19   S    
C5    C22   S    
Cu1   O1    S    
C7    N1    A    
C16   C17   A    
Cu1   Cu2   S    
C1    O1    A    
