data_mof_unit_10073.cif
_audit_creation_date              2012-12-10T17:33:57-0500
_audit_creation_method            fapswitch 2.2
_symmetry_space_group_name_H-M    P1
_symmetry_Int_Tables_number       1
_space_group_crystal_system       triclinic
_cell_length_a                    10.798785
_cell_length_b                    12.107803
_cell_length_c                    12.884812
_cell_angle_alpha                 94.59207
_cell_angle_beta                  91.914368
_cell_angle_gamma                 84.512642
_cell_volume                      1671.01705836

loop_
_atom_site_label
_atom_site_type_symbol
_atom_type_description
_atom_site_fract_x
_atom_site_fract_y
_atom_site_fract_z
_atom_type_partial_charge
C1    C     C_R   0.489409 0.523767 0.700268 0.917913
C2    C     C_R   0.442535 0.469746 0.979420 -0.081469
C3    C     C_R   0.511940 0.555258 0.027675 -0.020077
C4    C     C_R   0.741516 0.497993 0.499426 1.018451
C5    C     C_R   0.544991 0.555734 0.133919 0.408347
C6    C     C_R   0.465289 0.374381 0.135703 0.396343
C7    C     C_R   0.404329 0.387899 0.040755 -0.082089
C8    C     C_R   0.365674 0.957453 0.417502 -0.118938
C9    C     C_R   0.385337 0.841035 0.419594 -0.001947
C10   C     C_R   0.558200 0.855936 0.534838 -0.016533
C11   C     C_R   0.547899 0.974391 0.532316 -0.025807
C12   C     C_3   0.119731 0.499338 0.503278 -0.173277
C13   C     C_R   0.452624 0.025385 0.469688 -0.054741
C14   C     C_R   0.451694 0.141214 0.455899 -0.075400
C15   C     C_R   0.611723 0.161595 0.586323 0.548377
C16   C     C_R   0.512265 0.477527 0.300206 0.953793
C17   C     C_R   0.632340 0.042589 0.587055 -0.204277
C18   C     C_R   0.257424 0.500401 0.500343 0.871715
C19   C     C_3   0.943718 0.385992 0.546322 0.274530
C20   C     C_3   0.085724 0.381675 0.535743 0.164957
C21   C     C_3   0.918839 0.512327 0.389129 0.263294
C22   C     C_3   0.916468 0.597825 0.574625 -0.412522
C23   C     C_3   0.062777 0.505915 0.389152 -0.303625
C24   C     C_3   0.877174 0.494920 0.501593 -0.217222
C25   C     C_3   0.893018 0.239824 0.416780 0.220943
C26   C     C_3   0.888303 0.114367 0.410301 -0.850930
C27   C     C_3   0.062599 0.795171 0.618081 0.063458
C28   C     C_3   0.108742 0.897122 0.576610 -0.812407
C29   C     C_2   0.109971 0.590501 0.324599 0.439578
C30   C     C_3   0.588650 0.732417 0.204635 0.158723
C31   C     C_3   0.692805 0.807956 0.200155 -0.888315
C32   C     C_3   0.602959 0.223022 0.141324 0.142649
C33   C     C_3   0.628976 0.106846 0.177994 -0.890301
C34   C     C_3   0.062588 0.597719 0.582246 0.382395
C35   C     C_2   0.291448 0.328354 0.015776 0.527831
C36   C     C_3   0.441935 0.821819 0.849961 0.098046
C37   C     C_3   0.428275 0.912638 0.774511 -0.742428
C38   C     C_2   0.381665 0.361407 0.812971 0.379660
C39   C     C_2   0.395037 0.182229 0.358471 0.638190
C40   C     C_3   0.710386 0.210327 0.746476 0.104605
C41   C     C_3   0.739852 0.315191 0.811956 -0.692664
C42   C     C_2   0.246794 0.004470 0.369019 0.307851
C43   C     C_2   0.749085 0.991123 0.633597 0.286263
C44   C     C_2   0.299198 0.772499 0.362177 0.419565
C45   C     C_R   0.515999 0.465402 0.187875 -0.335279
C46   C     C_3   0.157832 0.235221 0.639014 0.162752
C47   C     C_3   0.111104 0.209994 0.743818 -0.807418
C48   C     C_3   0.876092 0.460979 0.210597 0.109889
C49   C     C_3   0.969246 0.381223 0.148657 -0.847867
C50   C     C_2   0.852430 0.619675 0.679324 0.508538
C51   C     C_2   0.122945 0.579497 0.690473 0.356262
C52   C     C_R   0.472846 0.543395 0.812643 -0.259220
C53   C     C_R   0.545108 0.639686 0.969346 -0.255929
C54   C     C_R   0.512856 0.640538 0.864671 0.502047
C55   C     C_R   0.429169 0.460705 0.869890 -0.111362
H1    H     H_    0.876052 0.596418 0.371152 0.167285
H2    H     H_    0.794857 0.094030 0.431298 0.222399
H3    H     H_    0.906842 0.078607 0.329614 0.230854
H4    H     H_    0.958557 0.076265 0.464431 0.280116
H5    H     H_    0.104806 0.787511 0.697258 0.136852
H6    H     H_    0.960414 0.811423 0.623821 0.162963
H7    H     H_    0.074081 0.904612 0.495232 0.268596
H8    H     H_    0.074367 0.972968 0.625158 0.208132
H9    H     H_    0.211822 0.889924 0.579013 0.247069
H10   H     H_    0.202180 0.573110 0.292938 0.102616
H11   H     H_    0.560603 0.740332 0.286419 0.220488
H12   H     H_    0.595480 0.706819 0.003148 0.176958
H13   H     H_    0.507780 0.763234 0.155638 0.155200
H14   H     H_    0.776238 0.774261 0.244336 0.291148
H15   H     H_    0.718136 0.815061 0.118374 0.260113
H16   H     H_    0.662066 0.891701 0.236506 0.218818
H17   H     H_    0.677425 0.273600 0.175424 0.129073
H18   H     H_    0.608439 0.216189 0.054692 0.161914
H19   H     H_    0.554921 0.054171 0.147920 0.266633
H20   H     H_    0.719912 0.068635 0.148428 0.227344
H21   H     H_    0.633492 0.110799 0.264410 0.228826
H22   H     H_    0.221171 0.361401 0.961587 0.037813
H23   H     H_    0.929177 0.399706 0.631309 0.229631
H24   H     H_    0.474911 0.858693 0.926625 0.146716
H25   H     H_    0.347495 0.793608 0.858358 0.124843
H26   H     H_    0.394019 0.878459 0.697616 0.243285
H27   H     H_    0.360123 0.981481 0.804246 0.215383
H28   H     H_    0.518958 0.946350 0.766190 0.291042
H29   H     H_    0.317863 0.373157 0.748130 0.152313
H30   H     H_    0.409134 0.130531 0.286560 0.073080
H31   H     H_    0.794388 0.151417 0.754808 0.142674
H32   H     H_    0.629549 0.176392 0.779861 0.185668
H33   H     H_    0.661693 0.380133 0.808660 0.279936
H34   H     H_    0.630047 0.812959 0.580562 0.205645
H35   H     H_    0.757077 0.296345 0.894450 0.176972
H36   H     H_    0.823964 0.347489 0.783255 0.268699
H37   H     H_    0.210710 0.966014 0.296740 0.125710
H38   H     H_    0.837528 0.017511 0.612806 0.106328
H39   H     H_    0.217469 0.756243 0.401136 0.173721
H40   H     H_    0.257771 0.204233 0.633458 0.181741
H41   H     H_    0.105589 0.186853 0.578287 0.200244
H42   H     H_    0.008615 0.228021 0.745414 0.250324
H43   H     H_    0.135296 0.120821 0.756499 0.208856
H44   H     H_    0.153648 0.261362 0.807748 0.272809
H45   H     H_    0.118433 0.318990 0.472525 0.166903
H46   H     H_    0.894685 0.548454 0.201798 0.205737
H47   H     H_    0.783466 0.449565 0.174401 0.191061
H48   H     H_    0.955925 0.293776 0.162414 0.263750
H49   H     H_    0.954836 0.392191 0.064205 0.228965
H50   H     H_    0.066083 0.398150 0.170664 0.253408
H51   H     H_    0.863662 0.696735 0.726101 0.107979
H52   H     H_    0.216311 0.603549 0.706813 0.051137
H53   H     H_    0.095179 0.426178 0.345429 0.157023
H54   H     H_    0.880675 0.672135 0.533416 0.169346
H55   H     H_    0.975676 0.257177 0.374492 0.177156
H56   H     H_    0.806560 0.272982 0.376828 0.207484
N1    N     N_R   0.523380 0.207800 0.519350 -0.162054
N2    N     N_R   0.476620 0.792180 0.480650 -0.157247
O1    O     O_R   0.506240 0.421700 0.658830 -0.598974
O2    O     O_3   0.096405 0.700448 0.548726 -0.616707
O3    O     O_2   0.046057 0.674955 0.303401 -0.589285
O4    O     O_3   0.635982 0.621411 0.176604 -0.643479
O5    O     O_3   0.483805 0.270303 0.173167 -0.553882
O6    O     O_2   0.273538 0.244483 0.057636 -0.530334
O7    O     O_3   0.528500 0.733526 0.812035 -0.568090
O8    O     O_2   0.419540 0.267187 0.833439 -0.607972
O9    O     O_2   0.321820 0.264817 0.357258 -0.534719
O10   O     O_3   0.689647 0.233230 0.640602 -0.546528
O11   O     O_2   0.185464 0.083727 0.412067 -0.617957
O12   O     O_R   0.491240 0.609310 0.646410 -0.559672
O13   O     O_2   0.747397 0.924655 0.699807 -0.611847
O14   O     O_2   0.312587 0.744891 0.269806 -0.629749
O15   O     O_3   0.145793 0.352124 0.630558 -0.618782
O16   O     O_3   0.873229 0.432059 0.314892 -0.691516
O17   O     O_2   0.788705 0.553146 0.712748 -0.580808
O18   O     O_2   0.072265 0.535713 0.757683 -0.577874
O19   O     O_R   0.692710 0.406190 0.506230 -0.546368
O20   O     O_R   0.677700 0.593810 0.493810 -0.662888
O21   O     O_R   0.508760 0.390690 0.353590 -0.583562
O22   O     O_R   0.493760 0.578300 0.341170 -0.617726
O23   O     O_R   0.322300 0.406190 0.506190 -0.567540
O24   O     O_R   0.307290 0.593810 0.493770 -0.629571
O25   O     O_3   0.893627 0.281279 0.522540 -0.595093
Zn1   Zn    Zn3+2 0.510020 0.374730 0.508290 1.043704
Zn2   Zn    Zn3+2 0.489980 0.625270 0.491710 0.974818

loop_
_geom_bond_atom_site_label_1
_geom_bond_atom_site_label_2
_ccdc_geom_bond_type
C47   H43   S    
C44   O14   D    
C8    C13   A    
C6    C45   A    
C54   O7    S    
C19   H23   S    
C11   C13   A    
C35   O6    D    
C19   C20   S    
C16   O21   A    
C49   H49   S    
C42   O11   D    
C4    O19   A    
C53   C54   A    
O19   Zn1   S    
C14   N1    A    
C12   C23   S    
C34   C51   S    
C39   O9    D    
C15   O10   S    
C48   O16   S    
C23   C29   S    
C40   H32   S    
C46   O15   S    
C36   C37   S    
C8    C42   S    
C20   O15   S    
C27   H5    S    
C30   C31   S    
C4    C24   S    
C23   H53   S    
C47   H44   S    
C40   H31   S    
C41   H33   S    
C27   H6    S    
C14   C39   S    
C33   H20   S    
C31   H15   S    
C11   C17   A    
C38   C55   S    
C2    C7    A    
C10   H34   S    
C8    C9    A    
C18   O23   A    
C50   O17   D    
C26   H4    S    
C52   C55   A    
C22   C50   S    
C31   H16   S    
C41   H35   S    
C13   C14   A    
N1    Zn1   S    
C37   H26   S    
O23   Zn1   S    
C53   H12   S    
C43   O13   D    
C26   H2    S    
C52   C54   A    
O12   Zn2   S    
O22   Zn2   S    
C22   C34   S    
O24   Zn2   S    
C46   H40   S    
C32   H17   S    
C36   H25   S    
C32   O5    S    
C32   H18   S    
C51   O18   D    
C49   H50   S    
C34   O2    S    
C5    C45   A    
C35   H22   S    
C5    O4    S    
C18   O24   A    
C17   C43   S    
C33   H21   S    
C20   H45   S    
C22   H54   S    
C48   H47   S    
C12   C20   S    
N2    Zn2   S    
O1    Zn1   S    
C26   H3    S    
C21   O16   S    
C30   H11   S    
C10   N2    A    
C25   H55   S    
C29   H10   S    
C28   H9    S    
C40   C41   S    
C41   H36   S    
C29   O3    D    
C21   C23   S    
C22   C24   S    
C37   H27   S    
C1    O1    A    
C39   H30   S    
C12   C34   S    
O21   Zn1   S    
C15   C17   A    
C40   O10   S    
C46   C47   S    
C48   C49   S    
C9    C44   S    
C38   H29   S    
C7    C35   S    
C15   N1    A    
C1    O12   A    
C3    C5    A    
C36   H24   S    
C16   C45   S    
C49   H48   S    
C21   H1    S    
C25   O25   S    
C6    C7    A    
C30   O4    S    
C47   H42   S    
C2    C55   A    
C9    N2    A    
C32   C33   S    
C19   C24   S    
C25   C26   S    
C3    C53   A    
C19   O25   S    
C48   H46   S    
C43   H38   S    
C2    C3    A    
C42   H37   S    
C36   O7    S    
C1    C52   S    
C38   O8    D    
C44   H39   S    
C10   C11   A    
C25   H56   S    
C28   H8    S    
C33   H19   S    
C31   H14   S    
C46   H41   S    
O20   Zn2   S    
C51   H52   S    
C21   C24   S    
C12   C18   S    
C27   C28   S    
C50   H51   S    
C37   H28   S    
C16   O22   A    
C6    O5    S    
C30   H13   S    
C28   H7    S    
C4    O20   A    
C27   O2    S    
