data_mof_unit_63510.cif
_audit_creation_date              2012-12-10T18:08:26-0500
_audit_creation_method            fapswitch 2.2
_symmetry_space_group_name_H-M    P1
_symmetry_Int_Tables_number       1
_space_group_crystal_system       triclinic
_cell_length_a                    12.731987
_cell_length_b                    13.902898
_cell_length_c                    19.398363
_cell_angle_alpha                 90.258443
_cell_angle_beta                  92.396372
_cell_angle_gamma                 97.993198
_cell_volume                      3397.21482074

loop_
_atom_site_label
_atom_site_type_symbol
_atom_type_description
_atom_site_fract_x
_atom_site_fract_y
_atom_site_fract_z
_atom_type_partial_charge
C1    C     C_R   0.483532 0.315792 0.499274 0.808440
C2    C     C_R   0.516468 0.684207 0.500726 0.808438
C3    C     C_1   0.525931 0.787560 0.501136 -0.116665
C4    C     C_1   0.474069 0.212440 0.498864 -0.116664
C5    C     C_2   0.543586 0.978451 0.501897 -0.138471
C6    C     C_2   0.456414 0.021549 0.498103 -0.138472
C7    C     C_1   0.465528 0.125375 0.498495 0.041605
C8    C     C_1   0.534472 0.874625 0.501505 0.041605
C9    C     C_2   0.028286 0.473460 0.480128 0.394733
C10   C     C_2   0.971714 0.526540 0.519872 0.394732
C11   C     C_1   0.854629 0.519231 0.514188 0.283106
C12   C     C_1   0.145371 0.480769 0.485811 0.283106
C13   C     C_R   0.501141 0.500089 0.367120 0.887437
C14   C     C_R   0.498859 0.499910 0.632880 0.887437
C15   C     C_R   0.408188 0.495255 0.251705 -0.322280
C16   C     C_R   0.591812 0.504750 0.748295 -0.322279
C17   C     C_R   0.408045 0.495517 0.180058 0.607448
C18   C     C_R   0.591955 0.504488 0.819942 0.607448
C19   C     C_R   0.503915 0.500946 0.145946 -0.197023
C20   C     C_R   0.496086 0.499054 0.854054 -0.197021
C21   C     C_R   0.600919 0.506684 0.184757 0.286862
C22   C     C_R   0.399081 0.493311 0.815243 0.286859
C23   C     C_R   0.600172 0.506226 0.257430 0.528906
C24   C     C_R   0.399828 0.493769 0.742570 0.528906
C25   C     C_R   0.503607 0.500485 0.291133 -0.294115
C26   C     C_R   0.496393 0.499515 0.708867 -0.294115
C27   C     C_R   0.497922 0.499396 0.930086 0.508128
C28   C     C_R   0.502078 0.500604 0.069913 0.508125
Cu1   Cu    Cu3+1 0.395330 0.493960 0.495610 1.064518
Cu2   Cu    Cu3+1 0.604670 0.506040 0.504390 1.064518
H1    H     H_    0.332848 0.490515 0.276309 0.230998
H2    H     H_    0.667152 0.509493 0.723691 0.230999
H3    H     H_    0.377902 0.979171 0.494690 0.176468
H4    H     H_    0.622098 0.020829 0.505310 0.176468
N1    N     N_R   0.574541 0.458517 0.035374 -0.134889
N2    N     N_R   0.425459 0.541483 0.964626 -0.134891
N3    N     N_R   0.572577 0.458011 0.966784 -0.137156
N4    N     N_R   0.427423 0.541989 0.033215 -0.137154
N5    N     N_1   0.238030 0.484880 0.489000 -0.146597
N6    N     N_1   0.761970 0.515120 0.511000 -0.146597
O1    O     O_R   0.399110 0.356330 0.495750 -0.567665
O2    O     O_R   0.600890 0.643670 0.504250 -0.567666
O3    O     O_R   0.575900 0.366540 0.503170 -0.566480
O4    O     O_R   0.424100 0.633460 0.496830 -0.566480
O5    O     O_R   0.411580 0.494880 0.396430 -0.594478
O6    O     O_R   0.588420 0.505120 0.603570 -0.594478
O7    O     O_R   0.588360 0.505090 0.403850 -0.501835
O8    O     O_R   0.411640 0.494910 0.596150 -0.501834
F1    F     F_    0.313371 0.488048 0.144122 -0.591585
F2    F     F_    0.686629 0.511962 0.855878 -0.591585
O9    O     O_3   0.694905 0.514992 0.150578 -0.647903
H5    H     H_    0.755790 0.518546 0.184401 0.397338
O10   O     O_3   0.305094 0.484998 0.849422 -0.647905
H6    H     H_    0.244210 0.481438 0.815599 0.397338
F3    F     F_    0.693554 0.511863 0.294823 -0.622119
F4    F     F_    0.306445 0.488127 0.705177 -0.622119
F5    F     F_    0.024090 0.589772 0.567482 -0.636723
F6    F     F_    0.975910 0.410228 0.432517 -0.636723

loop_
_geom_bond_atom_site_label_1
_geom_bond_atom_site_label_2
_ccdc_geom_bond_type
C5    C8    S    
C13   O5    A    
C15   H1    S    
C6    C7    S    
C20   C27   S    
C27   N2    A    
C24   F4    S    
C9    C10   D    
Cu2   O6    S    
C6    H3    S    
C28   N4    A    
C1    C4    S    
Cu1   O1    S    
C5    H4    S    
Cu1   N5    S    
C12   N5    T    
N2    N4    A    
C2    C3    S    
Cu2   N6    S    
C14   O6    A    
O10   H6    S    
C14   C26   S    
C23   F3    S    
C19   C28   S    
C13   C25   S    
Cu1   Cu2   S    
C2    O2    A    
C4    C7    T    
C5    C6    D    
C1    O1    A    
C19   C21   A    
C24   C26   A    
C3    C8    T    
C22   O10   S    
C18   C20   A    
C23   C25   A    
Cu1   O4    S    
C16   C26   A    
C11   N6    T    
C9    C12   S    
C22   C24   A    
Cu2   O3    S    
C15   C25   A    
Cu1   O5    S    
C16   H2    S    
C10   C11   S    
Cu1   O8    S    
O9    H5    S    
Cu2   O7    S    
C21   O9    S    
C10   F5    S    
C2    O4    A    
C18   F2    S    
C16   C18   A    
C9    F6    S    
C17   F1    S    
C15   C17   A    
C17   C19   A    
C14   O8    A    
N1    N3    A    
C13   O7    A    
C21   C23   A    
C1    O3    A    
Cu2   O2    S    
C27   N3    A    
C28   N1    A    
C20   C22   A    
