data_mof_unit_13738.cif
_audit_creation_date              2013-03-05T15:49:08-0500
_audit_creation_method            fapswitch 2.2
_symmetry_space_group_name_H-M    P1
_symmetry_Int_Tables_number       1
_space_group_crystal_system       triclinic
_cell_length_a                    22.494506
_cell_length_b                    13.001571
_cell_length_c                    26.905021
_cell_angle_alpha                 89.688126
_cell_angle_beta                  90.229677
_cell_angle_gamma                 89.843924
_cell_volume                      7868.53836947

loop_
_atom_site_label
_atom_site_type_symbol
_atom_site_description
_atom_site_fract_x
_atom_site_fract_y
_atom_site_fract_z
_atom_type_partial_charge
O1    O     O_R   0.769900 0.064540 0.196060 -0.512619
O2    O     O_R   0.230100 0.064540 0.803940 -0.506310
O3    O     O_R   0.269900 0.564540 0.196060 -0.509826
O4    O     O_R   0.730100 0.564540 0.803940 -0.511211
O5    O     O_R   0.750800 0.274080 0.199250 -0.491175
O6    O     O_R   0.249200 0.274080 0.800750 -0.494548
O7    O     O_R   0.250800 0.774080 0.199250 -0.487675
O8    O     O_R   0.749200 0.774080 0.800750 -0.499242
C1    C     C_R   0.720567 0.344654 0.178116 0.544706
C2    C     C_R   0.278747 0.346247 0.821267 0.556187
C3    C     C_R   0.220858 0.845423 0.178480 0.549316
C4    C     C_R   0.778715 0.846332 0.821221 0.549778
O9    O     O_R   0.669990 0.371670 0.194150 -0.479362
O10   O     O_R   0.330010 0.371670 0.805850 -0.493564
O11   O     O_R   0.169990 0.871670 0.194150 -0.487437
O12   O     O_R   0.830010 0.871670 0.805850 -0.493708
O13   O     O_R   0.574600 0.238480 0.197800 -0.493194
O14   O     O_R   0.425400 0.238480 0.802200 -0.485751
O15   O     O_R   0.074600 0.738480 0.197800 -0.499278
O16   O     O_R   0.925400 0.738480 0.802200 -0.486191
C5    C     C_R   0.551591 0.157915 0.178561 0.540598
C6    C     C_R   0.447306 0.156977 0.822233 0.538431
C7    C     C_R   0.051620 0.657919 0.178547 0.530211
C8    C     C_R   0.947357 0.656956 0.822193 0.535841
O17   O     O_R   0.566130 0.068680 0.194240 -0.491359
O18   O     O_R   0.433870 0.068680 0.805760 -0.502766
O19   O     O_R   0.066130 0.568680 0.194240 -0.495570
O20   O     O_R   0.933870 0.568680 0.805760 -0.502207
O21   O     O_R   0.680610 0.992490 0.199570 -0.487053
O22   O     O_R   0.319390 0.992490 0.800430 -0.494744
O23   O     O_R   0.180610 0.492490 0.199570 -0.490908
O24   O     O_R   0.819390 0.492490 0.800430 -0.499239
C9    C     C_R   0.731580 0.002944 0.179102 0.550158
C10   C     C_R   0.268431 0.001011 0.820419 0.556144
C11   C     C_R   0.231650 0.502764 0.179174 0.553917
C12   C     C_R   0.768504 0.501198 0.820518 0.542055
O25   O     O_R   0.770060 0.065440 0.307230 -0.478097
O26   O     O_R   0.229940 0.065440 0.692770 -0.490620
O27   O     O_R   0.270060 0.565440 0.307230 -0.492973
O28   O     O_R   0.729940 0.565440 0.692770 -0.475798
O29   O     O_R   0.750960 0.274920 0.302300 -0.466562
O30   O     O_R   0.249040 0.274920 0.697700 -0.469175
O31   O     O_R   0.250960 0.774920 0.302300 -0.470802
O32   O     O_R   0.749040 0.774920 0.697700 -0.451536
C13   C     C_R   0.722313 0.350545 0.320486 0.564993
C14   C     C_R   0.277899 0.350493 0.679257 0.567534
C15   C     C_R   0.220814 0.846787 0.322151 0.604039
C16   C     C_R   0.777639 0.850533 0.679397 0.567187
O33   O     O_R   0.670160 0.372580 0.305320 -0.462234
O34   O     O_R   0.329840 0.372580 0.694680 -0.464183
O35   O     O_R   0.170160 0.872580 0.305320 -0.452643
O36   O     O_R   0.829840 0.872580 0.694680 -0.467192
O37   O     O_R   0.574760 0.239320 0.300850 -0.503223
O38   O     O_R   0.425240 0.239320 0.699150 -0.504297
O39   O     O_R   0.074760 0.739320 0.300850 -0.470083
O40   O     O_R   0.925240 0.739320 0.699150 -0.503195
C17   C     C_R   0.555413 0.158529 0.322266 0.545147
C18   C     C_R   0.446260 0.159345 0.678842 0.535378
C19   C     C_R   0.051866 0.658176 0.320325 0.567316
C20   C     C_R   0.944435 0.659275 0.677650 0.539620
O41   O     O_R   0.566290 0.069580 0.305400 -0.492466
O42   O     O_R   0.433710 0.069580 0.694600 -0.488235
O43   O     O_R   0.066290 0.569580 0.305400 -0.508186
O44   O     O_R   0.933710 0.569580 0.694600 -0.459549
O45   O     O_R   0.680760 0.993330 0.302620 -0.469732
O46   O     O_R   0.319240 0.993330 0.697380 -0.459429
O47   O     O_R   0.180760 0.493330 0.302620 -0.468386
O48   O     O_R   0.819240 0.493330 0.697380 -0.458526
C21   C     C_R   0.730989 0.004842 0.323792 0.586962
C22   C     C_R   0.269812 0.007019 0.675279 0.583736
C23   C     C_R   0.231605 0.502398 0.323042 0.601879
C24   C     C_R   0.768631 0.500841 0.677110 0.546225
Cr1   Cr    Cr6+3 0.756570 0.170940 0.251190 1.120319
Cr2   Cr    Cr6+3 0.243430 0.170940 0.748810 1.122234
Cr3   Cr    Cr6+3 0.256570 0.670940 0.251190 1.124702
Cr4   Cr    Cr6+3 0.743430 0.670940 0.748810 1.122842
Cr5   Cr    Cr6+3 0.623740 0.299110 0.249580 1.110311
Cr6   Cr    Cr6+3 0.376260 0.299110 0.750420 1.108936
Cr7   Cr    Cr6+3 0.123740 0.799110 0.249580 1.115348
Cr8   Cr    Cr6+3 0.876260 0.799110 0.750420 1.111259
Cr9   Cr    Cr6+3 0.625990 0.036240 0.250480 1.119354
Cr10  Cr    Cr6+3 0.374010 0.036240 0.749520 1.116664
Cr11  Cr    Cr6+3 0.125990 0.536240 0.250480 1.106011
Cr12  Cr    Cr6+3 0.874010 0.536240 0.749520 1.130974
O49   O     O_3   0.668770 0.168760 0.250420 -0.300933
O50   O     O_3   0.331230 0.168760 0.749580 -0.293928
O51   O     O_3   0.168770 0.668760 0.250420 -0.293254
O52   O     O_3   0.831230 0.668760 0.749580 -0.294658
C25   C     C_R   0.497032 0.075397 0.107768 -0.011624
C26   C     C_R   0.487160 0.069725 0.898852 -0.030676
C27   C     C_R   0.997237 0.575429 0.107657 -0.033690
C28   C     C_R   0.987261 0.569535 0.898736 -0.040424
C29   C     C_R   0.490426 0.074264 0.055825 0.043600
C30   C     C_R   0.487701 0.071225 0.951013 0.022827
C31   C     C_R   0.990729 0.574258 0.055700 -0.003595
C32   C     C_R   0.987909 0.571082 0.950888 0.003478
C33   C     C_R   0.484065 0.979519 0.978702 -0.041572
C34   C     C_R   0.483800 0.981186 0.030145 -0.048588
C35   C     C_R   0.983895 0.479439 0.978608 -0.059878
C36   C     C_R   0.983734 0.481196 0.030051 -0.082024
H1    H     H_    0.480782 0.905398 0.960830 0.172483
H2    H     H_    0.481270 0.908081 0.049455 0.152941
H3    H     H_    0.980125 0.405338 0.960770 0.176527
H4    H     H_    0.980876 0.408151 0.049384 0.159425
C37   C     C_R   0.476984 0.162246 0.871853 -0.028549
C38   C     C_R   0.516620 0.166270 0.131482 -0.020438
C39   C     C_R   0.977203 0.662108 0.871734 -0.034336
C40   C     C_R   0.016834 0.666290 0.131386 -0.031425
C41   C     C_R   0.511920 0.261269 0.105536 -0.034697
C42   C     C_R   0.483627 0.257566 0.896599 -0.034629
C43   C     C_R   0.012419 0.761262 0.105379 -0.047624
C44   C     C_R   0.984153 0.757410 0.896423 -0.043187
C45   C     C_R   0.500718 0.261595 0.053871 0.017777
C46   C     C_R   0.490039 0.259383 0.948851 0.007236
C47   C     C_R   0.001550 0.761532 0.053669 -0.011701
C48   C     C_R   0.990792 0.759241 0.948655 -0.011347
C49   C     C_R   0.493652 0.167372 0.028659 0.094260
C50   C     C_R   0.489907 0.166105 0.976114 0.076722
C51   C     C_R   0.994344 0.667293 0.028491 0.041698
C52   C     C_R   0.990519 0.665983 0.975950 0.041531
C53   C     C_R   0.499673 0.353655 0.026255 -0.083601
C54   C     C_R   0.494092 0.352615 0.974834 -0.087677
C55   C     C_R   0.000768 0.853565 0.026013 -0.096496
C56   C     C_R   0.995137 0.852484 0.974596 -0.102133
H5    H     H_    0.493424 0.426012 0.955676 0.166915
H6    H     H_    0.504065 0.427699 0.044036 0.171317
H7    H     H_    0.994559 0.925855 0.955413 0.170944
H8    H     H_    0.005285 0.927615 0.043767 0.176614
C57   C     C_R   0.743020 0.961013 0.129387 -0.007404
C58   C     C_R   0.258094 0.951571 0.868801 0.000535
C59   C     C_R   0.243290 0.460426 0.129579 -0.007214
C60   C     C_R   0.758089 0.450547 0.868653 -0.004770
C61   C     C_R   0.790642 0.000158 0.101990 -0.118820
C62   C     C_R   0.205492 0.972819 0.894595 -0.116066
C63   C     C_R   0.291074 0.499198 0.102247 -0.119885
C64   C     C_R   0.705694 0.471352 0.894832 -0.120173
C65   C     C_R   0.795812 0.980655 0.051480 -0.017474
C66   C     C_R   0.201066 0.949930 0.945002 0.003608
C67   C     C_R   0.296191 0.479953 0.051698 -0.022977
C68   C     C_R   0.700737 0.443737 0.944714 0.007733
C69   C     C_R   0.749864 0.926428 0.026015 0.031549
C70   C     C_R   0.249586 0.904366 0.970112 0.039527
C71   C     C_R   0.250177 0.425912 0.026189 0.024625
C72   C     C_R   0.748348 0.393269 0.968867 0.041325
C73   C     C_R   0.712914 0.864240 0.056977 0.028010
C74   C     C_R   0.300119 0.873388 0.943307 0.004681
C75   C     C_R   0.213063 0.363965 0.057147 0.033111
C76   C     C_R   0.799463 0.366063 0.941856 -0.000202
C77   C     C_R   0.706304 0.887770 0.107461 -0.109457
C78   C     C_R   0.304291 0.897648 0.892839 -0.120170
C79   C     C_R   0.206475 0.387441 0.107624 -0.116710
C80   C     C_R   0.804036 0.394660 0.891948 -0.127113
C81   C     C_R   0.697372 0.878818 0.942728 0.223896
C82   C     C_R   0.273318 0.962801 0.057806 0.238193
C83   C     C_R   0.197574 0.378615 0.942913 0.225182
C84   C     C_R   0.710539 0.292290 0.042126 0.214352
C85   C     C_R   0.708213 0.851177 0.893090 -0.108306
C86   C     C_R   0.265319 0.947058 0.109153 -0.100440
C87   C     C_R   0.208376 0.350862 0.893275 -0.091832
C88   C     C_R   0.703421 0.286256 0.093620 -0.095051
C89   C     C_R   0.790305 0.969224 0.890583 -0.121752
C90   C     C_R   0.208526 0.792402 0.092745 -0.114244
C91   C     C_R   0.290431 0.468987 0.890706 -0.123369
C92   C     C_R   0.766136 0.435608 0.105932 -0.123467
C93   C     C_R   0.781017 0.992170 0.940209 -0.097255
C94   C     C_R   0.215931 0.806304 0.042185 -0.153379
C95   C     C_R   0.281154 0.491981 0.940342 -0.139884
C96   C     C_R   0.773362 0.443514 0.054615 -0.136261
C97   C     C_R   0.742671 0.931506 0.969576 0.042156
C98   C     C_R   0.247358 0.891197 0.024287 0.013739
C99   C     C_R   0.242935 0.431152 0.969741 0.024865
C100  C     C_R   0.745321 0.373321 0.022610 0.013099
C101  C     C_R   0.757874 0.890565 0.868190 -0.025162
C102  C     C_R   0.232465 0.863123 0.126188 0.003786
C103  C     C_R   0.257998 0.390296 0.868322 -0.017955
C104  C     C_R   0.730478 0.357712 0.125213 0.006803
H9    H     H_    0.823871 0.048058 0.119742 0.161586
H10   H     H_    0.169129 0.013051 0.876312 0.157228
H11   H     H_    0.324336 0.546971 0.120039 0.163776
H12   H     H_    0.669842 0.514303 0.877309 0.157052
H13   H     H_    0.677531 0.801183 0.873747 0.176313
H14   H     H_    0.283586 0.000679 0.135793 0.163292
H15   H     H_    0.177631 0.300962 0.873946 0.175745
H16   H     H_    0.676768 0.225095 0.109555 0.141574
H17   H     H_    0.804600 0.057385 0.954587 0.174767
H18   H     H_    0.196217 0.751607 0.016745 0.135517
H19   H     H_    0.304618 0.557354 0.954684 0.149552
H20   H     H_    0.799705 0.505941 0.039585 0.126085
H21   H     H_    0.824699 0.010040 0.870522 0.169851
H22   H     H_    0.183257 0.726846 0.105940 0.125241
H23   H     H_    0.324763 0.509887 0.870610 0.168973
H24   H     H_    0.787478 0.490443 0.130300 0.133755
H25   H     H_    0.673985 0.846941 0.129876 0.148508
H26   H     H_    0.344847 0.879216 0.873098 0.147607
H27   H     H_    0.173976 0.346923 0.129991 0.146097
H28   H     H_    0.844687 0.377536 0.872069 0.149722
C105  C     C_R   0.533453 0.166865 0.373391 0.009593
C106  C     C_R   0.475756 0.172142 0.630902 0.016334
C107  C     C_R   0.016848 0.663301 0.366611 0.033547
C108  C     C_R   0.964252 0.671447 0.626021 0.020571
C109  C     C_R   0.534963 0.262170 0.397741 -0.110700
C110  C     C_R   0.460647 0.257448 0.601130 -0.106918
C111  C     C_R   0.001786 0.757691 0.388166 -0.041021
C112  C     C_R   0.937933 0.749243 0.596629 -0.104639
C113  C     C_R   0.528716 0.266901 0.449141 -0.117030
C114  C     C_R   0.477564 0.261212 0.551624 -0.090744
C115  C     C_R   0.987051 0.761899 0.438605 -0.060209
C116  C     C_R   0.944957 0.750065 0.545262 -0.105499
C117  C     C_R   0.520368 0.176537 0.477066 0.022568
C118  C     C_R   0.511091 0.180856 0.531278 0.032748
C119  C     C_R   0.984714 0.671062 0.467331 0.013503
C120  C     C_R   0.979455 0.674280 0.522230 0.019141
C121  C     C_R   0.517294 0.081815 0.452449 -0.026101
C122  C     C_R   0.530648 0.100147 0.562398 -0.093579
C123  C     C_R   0.990439 0.576062 0.443354 -0.090713
C124  C     C_R   0.008917 0.600513 0.552141 -0.077067
C125  C     C_R   0.523149 0.077062 0.401150 -0.057353
C126  C     C_R   0.512286 0.094852 0.611725 -0.090623
C127  C     C_R   0.006619 0.572151 0.393632 -0.079942
C128  C     C_R   0.000782 0.598269 0.603537 -0.063939
H29   H     H_    0.544011 0.332603 0.377492 0.179049
H30   H     H_    0.431950 0.317817 0.614972 0.172569
H31   H     H_    0.006764 0.828629 0.367375 0.183430
H32   H     H_    0.908563 0.805881 0.612916 0.159905
H33   H     H_    0.558236 0.039135 0.548183 0.174397
H34   H     H_    0.509798 0.011015 0.472760 0.210051
H35   H     H_    0.037521 0.543258 0.535763 0.184848
H36   H     H_    0.985342 0.504439 0.463603 0.177839
H37   H     H_    0.524885 0.028991 0.634286 0.178485
H38   H     H_    0.522320 0.002316 0.383583 0.200044
H39   H     H_    0.021501 0.537807 0.625453 0.191372
H40   H     H_    0.015259 0.497413 0.377570 0.183583
H41   H     H_    0.532083 0.341002 0.467081 0.139536
H42   H     H_    0.461107 0.323887 0.528722 0.139496
H43   H     H_    0.981562 0.836555 0.455583 0.158434
H44   H     H_    0.921271 0.807480 0.523589 0.126734
C129  C     C_R   0.734589 0.981299 0.376371 0.022691
C130  C     C_R   0.268016 0.985490 0.621950 0.011691
C131  C     C_R   0.235962 0.474954 0.375170 0.023435
C132  C     C_R   0.762615 0.453043 0.627919 -0.001142
C133  C     C_R   0.723055 0.883202 0.395998 0.184549
C134  C     C_R   0.297752 0.900429 0.600656 0.187441
C135  C     C_R   0.231135 0.373399 0.393822 0.198341
C136  C     C_R   0.814652 0.423900 0.601728 0.195963
C137  C     C_R   0.722890 0.869622 0.447547 -0.043507
C138  C     C_R   0.303630 0.896153 0.548774 -0.060284
C139  C     C_R   0.229936 0.359369 0.445652 -0.038936
C140  C     C_R   0.813802 0.426975 0.550238 -0.042112
C141  C     C_R   0.729464 0.954556 0.479091 0.022560
C142  C     C_R   0.280876 0.975322 0.518655 0.033990
C143  C     C_R   0.232298 0.444387 0.477554 0.026829
C144  C     C_R   0.759973 0.430307 0.524269 0.006511
C145  C     C_R   0.735966 0.052990 0.458902 -0.106013
C146  C     C_R   0.254008 0.060877 0.540160 -0.104528
C147  C     C_R   0.235295 0.543877 0.458228 -0.104842
C148  C     C_R   0.706733 0.442119 0.551143 -0.110497
C149  C     C_R   0.740000 0.065875 0.408121 -0.120358
C150  C     C_R   0.247193 0.065488 0.591111 -0.142442
C151  C     C_R   0.237674 0.558871 0.407632 -0.124712
C152  C     C_R   0.708399 0.458733 0.602268 -0.120168
C153  C     C_R   0.778898 0.991173 0.558376 -0.151341
C154  C     C_R   0.210983 0.943989 0.452655 -0.117823
C155  C     C_R   0.284878 0.477877 0.555260 -0.153313
C156  C     C_R   0.717161 0.481622 0.443186 -0.151279
C157  C     C_R   0.788571 0.974751 0.608738 0.144929
C158  C     C_R   0.195530 0.906963 0.406577 0.200751
C159  C     C_R   0.293945 0.465539 0.605873 0.158328
C160  C     C_R   0.708951 0.469566 0.392324 0.161014
C161  C     C_R   0.702455 0.860187 0.610268 0.158393
C162  C     C_R   0.300054 0.905348 0.382656 0.166988
C163  C     C_R   0.202570 0.363833 0.610498 0.136085
C164  C     C_R   0.795230 0.355489 0.390508 0.147165
C165  C     C_R   0.692527 0.878815 0.559383 0.182603
C166  C     C_R   0.315757 0.938292 0.431107 0.217090
C167  C     C_R   0.194349 0.376209 0.558833 0.183373
C168  C     C_R   0.799932 0.360635 0.442459 0.173554
C169  C     C_R   0.732922 0.941140 0.533134 -0.072411
C170  C     C_R   0.270197 0.956717 0.465851 -0.060607
C171  C     C_R   0.237088 0.430776 0.531348 -0.068264
C172  C     C_R   0.759129 0.422513 0.469373 -0.071766
C173  C     C_R   0.754041 0.900428 0.633857 -0.043885
C174  C     C_R   0.239534 0.888909 0.370513 -0.035029
C175  C     C_R   0.255913 0.399489 0.632962 -0.037384
C176  C     C_R   0.744867 0.398626 0.366480 -0.040517
H45   H     H_    0.808518 0.042129 0.538443 0.215539
H46   H     H_    0.176417 0.953207 0.480333 0.185820
H47   H     H_    0.315893 0.524219 0.534094 0.176815
H48   H     H_    0.689352 0.536322 0.462584 0.187370
H49   H     H_    0.717436 0.792999 0.462831 0.168631
H50   H     H_    0.322640 0.828392 0.531674 0.165664
H51   H     H_    0.228807 0.282502 0.461297 0.165137
H52   H     H_    0.855656 0.424077 0.530898 0.196059
H53   H     H_    0.737926 0.119953 0.482545 0.168321
H54   H     H_    0.235796 0.121901 0.517100 0.167568
H55   H     H_    0.236529 0.610142 0.482492 0.140337
H56   H     H_    0.664021 0.443224 0.532460 0.144973
H57   H     H_    0.744410 0.143178 0.393411 0.150497
H58   H     H_    0.227121 0.133892 0.606533 0.182725
H59   H     H_    0.239437 0.637201 0.393616 0.153267
H60   H     H_    0.667747 0.478547 0.621461 0.184505
C177  C     C_1   0.497935 0.973102 0.873392 0.257816
N1    N     N_1   0.506657 0.896094 0.853259 -0.214870
C178  C     C_1   0.484050 0.983243 0.136516 0.250383
N2    N     N_1   0.473534 0.909827 0.159333 -0.223704
C179  C     C_1   0.997782 0.472790 0.873303 0.256048
N3    N     N_1   0.006301 0.395688 0.853193 -0.209948
C180  C     C_1   0.984177 0.483303 0.136410 0.227301
N4    N     N_1   0.973613 0.409911 0.159230 -0.241741
C181  C     C_1   0.690200 0.766104 0.041171 0.234938
N5    N     N_1   0.672366 0.686759 0.028991 -0.236010
C182  C     C_1   0.348622 0.819456 0.967339 0.192682
N6    N     N_1   0.387266 0.775889 0.986714 -0.271871
C183  C     C_1   0.189715 0.266374 0.041317 0.295974
N7    N     N_1   0.171280 0.187452 0.029175 -0.195395
C184  C     C_1   0.848133 0.311031 0.965059 0.193372
N8    N     N_1   0.887023 0.266826 0.983733 -0.267968
N9    N     N_R   0.707131 0.799271 0.364679 0.080781
O53   O     O_R   0.658574 0.749003 0.374019 -0.217062
O54   O     O_R   0.736345 0.780744 0.324042 -0.303245
N10   N     N_R   0.320625 0.817461 0.630679 0.093040
O55   O     O_R   0.366402 0.764785 0.615762 -0.237440
O56   O     O_R   0.293089 0.788610 0.670829 -0.283912
N11   N     N_R   0.228920 0.285170 0.361580 0.089556
O57   O     O_R   0.212123 0.196183 0.378839 -0.298976
O58   O     O_R   0.247469 0.290826 0.315904 -0.306025
N12   N     N_R   0.868078 0.389655 0.626439 0.116229
O59   O     O_R   0.919770 0.407283 0.606667 -0.302416
O60   O     O_R   0.864474 0.321737 0.662018 -0.227636
N13   N     N_R   0.833345 0.034237 0.633695 0.114483
O61   O     O_R   0.821632 0.076051 0.676409 -0.260996
O62   O     O_R   0.881712 0.060600 0.610551 -0.253249
N14   N     N_R   0.136311 0.870691 0.400333 0.090423
O63   O     O_R   0.091872 0.930466 0.411396 -0.314043
O64   O     O_R   0.128258 0.771876 0.398363 -0.384223
N15   N     N_R   0.341965 0.520406 0.628992 0.118757
O65   O     O_R   0.333015 0.569566 0.670312 -0.219079
O66   O     O_R   0.391919 0.533458 0.605572 -0.297954
N16   N     N_R   0.662666 0.527205 0.367878 0.126359
O67   O     O_R   0.612488 0.544355 0.390336 -0.287412
O68   O     O_R   0.671926 0.568479 0.324400 -0.220096
N17   N     N_R   0.641371 0.835940 0.534832 0.098173
O69   O     O_R   0.632067 0.737282 0.536152 -0.261970
O70   O     O_R   0.609003 0.892666 0.505298 -0.351974
N18   N     N_R   0.376759 0.956119 0.444590 0.091753
O71   O     O_R   0.418548 0.894165 0.429893 -0.273102
O72   O     O_R   0.390383 0.031587 0.474047 -0.351560
N19   N     N_R   0.142073 0.337382 0.534672 0.115840
O73   O     O_R   0.134624 0.238637 0.530500 -0.274492
O74   O     O_R   0.108691 0.399053 0.508436 -0.327911
N20   N     N_R   0.844630 0.299615 0.467034 0.092506
O75   O     O_R   0.829696 0.230666 0.499837 -0.333431
O76   O     O_R   0.900591 0.313533 0.456958 -0.252603
N21   N     N_R   0.658491 0.805736 0.638455 0.120540
O77   O     O_R   0.651749 0.707147 0.632881 -0.262918
O78   O     O_R   0.631040 0.852093 0.674467 -0.311881
N22   N     N_R   0.344883 0.891458 0.345664 0.113898
O79   O     O_R   0.374621 0.805597 0.344089 -0.255648
O80   O     O_R   0.348178 0.955703 0.308561 -0.289337
N23   N     N_R   0.155385 0.323396 0.640765 0.105689
O81   O     O_R   0.128981 0.237764 0.629477 -0.240646
O82   O     O_R   0.139225 0.372206 0.680616 -0.300763
N24   N     N_R   0.840228 0.302867 0.362464 0.118625
O83   O     O_R   0.855566 0.208896 0.373545 -0.257026
O84   O     O_R   0.864536 0.348154 0.324414 -0.299584
C185  C     C_1   0.484442 0.353292 0.868553 0.225058
N25   N     N_1   0.485164 0.429724 0.846298 -0.248573
C186  C     C_1   0.519448 0.358137 0.131395 0.229676
N26   N     N_1   0.525366 0.435519 0.151884 -0.231556
C187  C     C_1   0.985020 0.853090 0.868339 0.220875
N27   N     N_1   0.985783 0.929484 0.846055 -0.245562
C188  C     C_1   0.019804 0.858166 0.131244 0.226601
N28   N     N_1   0.025604 0.935572 0.151737 -0.242419
N29   N     N_R   0.638012 0.869019 0.961775 0.078931
O85   O     O_R   0.617379 0.937707 0.992224 -0.300889
O86   O     O_R   0.601585 0.801624 0.943193 -0.327101
N30   N     N_R   0.306944 0.050907 0.041033 0.077298
O87   O     O_R   0.301297 0.087022 0.996074 -0.341451
O88   O     O_R   0.341324 0.099716 0.071917 -0.355266
N31   N     N_R   0.138118 0.369817 0.961865 0.068254
O89   O     O_R   0.117756 0.439064 0.992160 -0.362589
O90   O     O_R   0.101398 0.302874 0.943301 -0.319732
N32   N     N_R   0.681876 0.217122 0.010850 0.077971
O91   O     O_R   0.639143 0.160415 0.028419 -0.327185
O92   O     O_R   0.701176 0.198269 0.966292 -0.333870
C189  C     C_1   0.852599 0.006521 0.030006 0.180618
N33   N     N_1   0.898268 0.027633 0.013198 -0.280221
C190  C     C_1   0.147692 0.979600 0.970871 0.238879
N34   N     N_1   0.105024 0.003860 0.991624 -0.257422
C191  C     C_1   0.352740 0.506964 0.030109 0.199140
N35   N     N_1   0.398194 0.529141 0.013214 -0.279251
C192  C     C_1   0.647907 0.473800 0.971238 0.247733
N36   N     N_1   0.605753 0.498527 0.992582 -0.253132

loop_
_geom_bond_atom_site_label_1
_geom_bond_atom_site_label_2
_geom_bond_distance
_ccdc_geom_bond_type
C35   H3    1.082061 S    
C37   C42   1.418003 A    
O4    C12   1.269839 A    
C61   C65   1.389053 A    
O25   C21   1.262867 A    
C39   C44   1.417822 A    
C70   C74   1.407733 A    
C59   C79   1.393421 A    
C127  H40   1.083029 S    
C64   C68   1.392362 A    
Cr7   O51   1.971997 S    
C157  C173  1.412441 A    
C177  N1    1.157605 T    
C141  C145  1.395857 A    
C157  N13   1.438025 S    
C133  C137  1.397181 A    
C131  C151  1.401792 A    
C82   C86   1.407800 A    
O39   C19   1.285257 A    
C28   C179  1.454454 S    
C32   C35   1.405518 A    
O21   C9    1.281170 A    
C132  C136  1.420357 A    
C82   C98   1.424369 A    
C1    C104  1.450715 S    
C123  H36   1.082895 S    
C162  C166  1.418000 A    
O44   Cr12  2.046171 S    
C83   N31   1.437876 S    
C121  H34   1.081895 S    
C74   C78   1.395889 A    
C3    O11   1.267603 A    
C86   C102  1.395997 A    
C168  C172  1.421854 A    
N30   O88   1.301742 A    
C25   C38   1.416311 A    
N12   O59   1.301031 A    
C116  H44   1.082467 S    
C69   C73   1.428437 A    
C70   C98   1.467754 S    
O2    C10   1.269374 A    
O17   Cr9   2.062575 S    
C161  C173  1.422715 A    
C58   C62   1.401760 A    
N21   O78   1.300940 A    
C153  H45   1.082535 S    
C93   C97   1.411650 A    
C155  H47   1.084336 S    
O16   Cr8   1.937798 S    
N11   O57   1.301880 A    
C92   C96   1.394132 A    
N15   O66   1.301572 A    
C80   H28   1.084393 S    
C95   C99   1.411593 A    
C30   C33   1.405237 A    
C137  H49   1.083162 S    
C34   H2    1.082458 S    
C117  C121  1.403249 A    
O28   Cr4   2.065912 S    
O12   Cr8   2.053995 S    
O22   Cr10  1.928242 S    
O15   C7    1.280375 A    
C126  H37   1.083347 S    
C15   C174  1.474776 S    
O46   Cr10  1.948196 S    
C178  N2    1.157560 T    
C116  C120  1.401225 A    
C69   C97   1.527494 S    
C160  N16   1.436337 S    
C8    C39   1.491941 S    
C56   H7    1.082151 S    
C57   C61   1.398260 A    
C71   C75   1.428765 A    
C122  C126  1.392924 A    
C191  N35   1.157219 T    
C108  C128  1.397289 A    
C190  N34   1.156298 T    
C90   H22   1.084692 S    
O31   Cr3   1.937838 S    
C17   C105  1.467840 S    
C94   H18   1.084185 S    
Cr12  O52   1.971213 S    
C26   C37   1.419412 A    
C17   O41   1.268188 A    
C19   O43   1.263878 A    
C40   C43   1.418978 A    
C20   O44   1.273885 A    
O1    Cr1   2.056055 S    
Cr8   O52   1.976946 S    
O32   C16   1.274188 A    
C185  N25   1.157574 T    
C26   C177  1.454373 S    
O46   C22   1.270419 A    
C141  C169  1.465226 S    
C67   C191  1.443937 S    
N20   O75   1.300302 A    
C93   H17   1.074408 S    
C167  N19   1.435580 S    
C20   C108  1.468419 S    
N15   O65   1.301467 A    
C16   O36   1.276446 A    
N23   O81   1.300160 A    
O27   C23   1.266535 A    
C131  C135  1.414574 A    
O31   C15   1.273990 A    
C89   C93   1.386249 A    
C140  C144  1.395992 A    
C68   C192  1.442770 S    
C27   C180  1.453648 S    
C164  C176  1.415154 A    
O47   Cr11  1.941892 S    
C91   C95   1.386588 A    
C109  H29   1.083177 S    
C91   C103  1.396045 A    
C33   C34   1.384407 A    
C115  H43   1.081975 S    
C55   C56   1.388808 A    
C57   C77   1.394072 A    
C151  H59   1.084935 S    
O24   C12   1.272830 A    
O40   C20   1.268950 A    
C12   C60   1.469624 S    
O45   C21   1.272869 A    
N24   O83   1.301364 A    
O8    Cr4   1.946235 S    
O32   Cr4   1.927846 S    
C1    O9    1.267776 A    
C77   H25   1.084501 S    
C67   C71   1.428131 A    
C78   H26   1.084388 S    
C58   C78   1.405470 A    
O27   Cr3   2.053882 S    
O3    Cr3   2.056055 S    
C155  C159  1.384531 A    
C5    C38   1.491670 S    
O8    C4    1.277768 A    
C158  C174  1.409018 A    
Cr5   O49   1.971997 S    
C75   C183  1.440454 S    
C115  C119  1.409122 A    
N13   O62   1.301567 A    
C29   C49   1.412873 A    
C82   N30   1.445624 S    
N17   O70   1.300585 A    
O22   C10   1.272961 A    
C83   C87   1.407205 A    
C156  H48   1.083371 S    
C4    O12   1.270957 A    
C84   C88   1.397106 A    
C107  C127  1.406902 A    
N14   O63   1.300965 A    
C2    O10   1.271004 A    
C43   C188  1.452232 S    
C84   C100  1.414049 A    
C48   C52   1.414177 A    
N11   O58   1.301179 A    
N10   O56   1.301359 A    
C75   C79   1.401927 A    
O5    C1    1.271056 A    
C65   C189  1.443885 S    
C125  H38   1.083146 S    
C114  C118  1.401866 A    
C163  C175  1.421366 A    
O3    C11   1.263498 A    
C60   C64   1.401899 A    
N22   O80   1.300614 A    
C117  C118  1.475600 S    
C162  C174  1.415800 A    
Cr1   O49   1.975323 S    
C45   C49   1.412572 A    
Cr3   O51   1.975323 S    
C154  H46   1.085620 S    
C84   N32   1.444617 S    
C94   C98   1.396814 A    
C47   C51   1.412681 A    
C44   C48   1.412932 A    
O26   Cr2   2.065912 S    
C2    C103  1.469627 S    
C168  N20   1.436013 S    
C138  H50   1.083800 S    
C3    C102  1.449248 S    
O29   C13   1.275041 A    
O28   C24   1.281880 A    
C128  H39   1.083335 S    
C166  N18   1.437682 S    
O14   C6    1.282582 A    
C137  C141  1.404163 A    
C8    O20   1.269305 A    
C16   C173  1.479207 S    
C162  N22   1.431456 S    
C139  C143  1.404150 A    
C6    C37   1.492237 S    
N16   O68   1.302097 A    
O40   Cr8   1.933960 S    
C129  C133  1.403010 A    
C114  H42   1.082503 S    
C63   C67   1.389358 A    
C54   H5    1.082153 S    
O41   Cr9   2.048028 S    
C49   C50   1.416081 A    
C30   C50   1.410464 A    
C74   C182  1.444093 S    
C148  C152  1.393932 A    
C44   C187  1.452185 S    
O33   Cr5   2.064056 S    
C161  N21   1.434688 S    
C143  C171  1.460670 S    
C25   C178  1.453517 S    
O29   Cr1   1.937838 S    
C145  C149  1.378966 A    
C45   C53   1.405434 A    
N18   O71   1.300445 A    
C139  H51   1.082714 S    
C109  C113  1.392283 A    
C66   C190  1.442865 S    
N12   O60   1.301727 A    
C22   C130  1.463783 S    
C163  N23   1.439245 S    
C92   H24   1.083077 S    
Cr9   O49   1.975775 S    
C38   C41   1.418934 A    
C142  C146  1.394105 A    
Cr11  O51   1.975775 S    
O26   C22   1.267436 A    
N32   O91   1.301812 A    
C96   H20   1.083705 S    
O20   Cr12  2.067439 S    
C136  N12   1.439456 S    
C182  N6    1.157017 T    
N21   O77   1.300579 A    
N31   O89   1.301346 A    
C106  C126  1.398500 A    
C134  C138  1.404038 A    
C165  N17   1.439666 S    
C142  C170  1.461461 S    
N29   O86   1.301760 A    
C138  C142  1.401037 A    
C188  N28   1.157601 T    
O30   C14   1.278221 A    
C79   H27   1.084553 S    
N9    O54   1.301174 A    
C122  H33   1.078489 S    
C135  N11   1.442801 S    
C5    O17   1.273767 A    
C90   C94   1.382101 A    
O6    Cr2   1.946235 S    
O42   Cr10  2.046171 S    
C42   C185  1.452153 S    
C184  N8    1.157000 T    
O18   Cr10  2.067439 S    
C13   C176  1.478052 S    
C107  C111  1.401523 A    
C85   H13   1.083010 S    
C105  C125  1.402900 A    
O34   Cr6   2.053845 S    
C26   C30   1.403623 A    
O24   Cr12  1.928242 S    
O30   Cr2   1.927846 S    
C180  N4    1.157576 T    
O48   Cr12  1.948196 S    
C76   C80   1.395609 A    
C47   C55   1.405645 A    
C147  H55   1.084128 S    
C66   C70   1.408834 A    
N19   O73   1.300574 A    
C148  H56   1.082576 S    
C140  H52   1.078212 S    
C31   C36   1.405060 A    
C15   O35   1.268058 A    
Cr10  O50   1.971213 S    
C25   C29   1.404978 A    
C165  C169  1.408544 A    
C136  C140  1.385758 A    
O43   Cr11  2.048028 S    
C23   C131  1.448177 S    
C145  H53   1.081935 S    
C153  C157  1.386801 A    
C123  C127  1.388989 A    
O39   Cr7   1.930335 S    
O45   Cr9   1.941892 S    
C119  C120  1.483071 S    
C159  C175  1.415184 A    
C164  C168  1.403297 A    
C64   H12   1.084499 S    
O13   Cr5   1.946396 S    
O23   Cr11  1.930668 S    
C111  H31   1.082391 S    
C132  C152  1.400454 A    
O15   Cr7   1.946396 S    
C53   C54   1.388831 A    
C159  N15   1.437441 S    
C149  H57   1.083119 S    
C135  C139  1.405749 A    
C41   C186  1.452111 S    
O9    Cr5   2.049132 S    
C129  C149  1.401357 A    
O23   C11   1.281499 A    
C11   C59   1.470404 S    
C189  N33   1.157178 T    
C9    C57   1.470533 S    
C65   C69   1.427701 A    
O37   C17   1.273840 A    
C48   C56   1.405597 A    
C27   C40   1.416422 A    
C68   C72   1.409195 A    
O6    C2    1.277873 A    
C51   C52   1.416085 A    
C147  C151  1.375382 A    
C133  N9    1.427885 S    
C72   C100  1.469527 S    
C161  C165  1.405878 A    
C31   C51   1.413156 A    
O19   Cr11  2.062575 S    
C144  C172  1.481047 S    
C71   C99   1.527943 S    
C61   H9    1.085173 S    
C183  N7    1.156060 T    
N24   O84   1.301318 A    
C155  C171  1.395310 A    
C7    C40   1.491380 S    
C92   C104  1.392924 A    
O47   C23   1.272914 A    
C81   C85   1.406995 A    
O13   C5    1.280517 A    
C73   C181  1.441402 S    
C96   C100  1.406976 A    
C179  N3    1.157611 T    
C6    O18   1.269663 A    
C81   C97   1.425717 A    
O36   Cr8   2.053845 S    
C73   C77   1.402319 A    
C85   C101  1.401549 A    
C4    C101  1.469248 S    
O38   Cr6   1.933960 S    
C119  C123  1.402426 A    
C18   O42   1.272357 A    
N13   O61   1.301593 A    
C110  H30   1.083412 S    
C167  C171  1.406484 A    
C186  N26   1.157591 T    
C28   C32   1.403414 A    
C72   C76   1.408047 A    
O1    C9    1.263781 A    
C192  N36   1.156273 T    
C181  N5    1.156459 T    
O7    C3    1.270527 A    
C160  C176  1.412217 A    
N14   O64   1.299280 A    
C163  C167  1.409842 A    
C59   C63   1.398380 A    
N31   O90   1.301755 A    
C146  C150  1.381593 A    
C154  C170  1.387697 A    
C89   C101  1.395818 A    
C143  C147  1.393397 A    
C36   H4    1.082505 S    
C120  C124  1.410880 A    
C19   C107  1.477920 S    
C24   C132  1.471076 S    
C105  C109  1.405224 A    
C13   O33   1.271978 A    
Cr4   O52   1.975168 S    
O2    Cr2   2.046268 S    
O48   C24   1.263658 A    
C144  C148  1.409897 A    
Cr6   O50   1.976946 S    
C62   C66   1.390897 A    
C87   C103  1.401752 A    
C112  H32   1.083484 S    
O5    Cr1   1.935235 S    
C14   C175  1.478693 S    
C88   C104  1.401305 A    
C158  N14   1.423941 S    
C14   O34   1.272392 A    
O35   Cr7   2.064056 S    
O11   Cr7   2.049132 S    
C124  H35   1.079603 S    
C134  N10   1.437021 S    
O16   C8    1.282798 A    
C89   H21   1.083493 S    
C121  C125  1.388692 A    
O7    Cr3   1.935235 S    
C152  H60   1.083136 S    
C118  C122  1.407356 A    
C111  C115  1.399570 A    
C62   H10   1.084575 S    
N20   O76   1.301648 A    
C106  C110  1.404764 A    
C108  C112  1.408246 A    
N19   O74   1.300510 A    
C28   C39   1.419620 A    
C35   C36   1.384425 A    
C113  C117  1.404562 A    
C156  C160  1.389897 A    
C95   H19   1.074376 S    
C153  C169  1.398857 A    
N23   O82   1.301437 A    
Cr2   O50   1.975168 S    
C41   C45   1.411701 A    
C86   H14   1.083167 S    
C46   C50   1.413933 A    
C112  C116  1.391655 A    
O25   Cr1   2.053882 S    
O14   Cr6   1.937798 S    
N18   O72   1.301123 A    
O21   Cr9   1.930668 S    
C7    O19   1.273764 A    
O37   Cr5   1.930335 S    
N30   O87   1.300809 A    
C187  N27   1.157576 T    
O38   C18   1.268417 A    
C42   C46   1.412961 A    
C18   C106  1.461744 S    
N32   O92   1.300984 A    
C166  C170  1.410790 A    
C32   C52   1.410571 A    
C146  H54   1.083103 S    
C154  C158  1.376039 A    
C91   H23   1.083499 S    
C90   C102  1.397442 A    
C164  N24   1.438700 S    
C130  C134  1.415863 A    
N10   O55   1.301123 A    
C113  H41   1.082625 S    
C63   H11   1.085200 S    
C53   H6    1.081914 S    
N29   O85   1.301093 A    
C76   C184  1.444187 S    
C55   H8    1.081939 S    
C150  H58   1.081815 S    
C60   C80   1.405267 A    
N22   O79   1.300821 A    
C156  C172  1.401091 A    
C130  C150  1.405155 A    
O10   Cr6   2.053995 S    
N9    O53   1.299083 A    
O4    Cr4   2.046268 S    
C46   C54   1.405581 A    
C83   C99   1.425484 A    
C10   C58   1.468298 S    
C27   C31   1.405151 A    
N16   O67   1.301698 A    
C110  C114  1.387353 A    
N17   O69   1.300547 A    
C43   C47   1.411603 A    
C87   H15   1.083012 S    
C124  C128  1.395740 A    
C21   C129  1.447649 S    
C29   C34   1.404750 A    
C88   H16   1.084682 S    
C33   H1    1.081888 S    
C81   N29   1.437880 S    
