data_mof_unit_28896.cif
_audit_creation_date              2012-12-10T17:12:40-0500
_audit_creation_method            fapswitch 2.2
_symmetry_space_group_name_H-M    P1
_symmetry_Int_Tables_number       1
_space_group_crystal_system       triclinic
_cell_length_a                    23.434333
_cell_length_b                    10.765545
_cell_length_c                    10.020058
_cell_angle_alpha                 91.577631
_cell_angle_beta                  89.948415
_cell_angle_gamma                 90.171143
_cell_volume                      2526.92362121

loop_
_atom_site_label
_atom_site_type_symbol
_atom_type_description
_atom_site_fract_x
_atom_site_fract_y
_atom_site_fract_z
_atom_type_partial_charge
C1    C     C_R   0.499314 0.262829 0.497633 0.898070
C2    C     C_R   0.120163 0.635214 0.488381 0.512550
C3    C     C_R   0.238657 0.572970 0.608203 -0.175308
C4    C     C_R   0.389455 0.502913 0.500283 0.877686
C5    C     C_R   0.298118 0.570051 0.609869 0.182985
C6    C     C_R   0.327415 0.513086 0.500857 -0.072922
C7    C     C_R   0.296830 0.465412 0.390472 -0.268746
C8    C     C_R   0.237719 0.470713 0.389423 -0.104255
C9    C     C_R   0.208747 0.523554 0.498603 0.291401
C10   C     C_R   0.765208 0.456414 0.399493 0.205710
C11   C     C_R   0.705443 0.444902 0.396769 0.114656
C12   C     C_R   0.971421 0.301080 0.545019 -0.168482
C13   C     C_R   0.672880 0.501248 0.500625 -0.158408
C14   C     C_R   0.699971 0.563939 0.607271 -0.338019
C15   C     C_R   0.759118 0.570448 0.613798 0.240052
C16   C     C_R   0.501628 0.737416 0.501766 0.873854
C17   C     C_R   0.791703 0.517467 0.509398 0.210793
C18   C     C_2   0.496948 0.930035 0.394061 -0.250737
C19   C     C_2   0.510572 0.868749 0.504300 0.012238
C20   C     C_2   0.507914 0.061633 0.385295 0.270085
C21   C     C_2   0.491342 0.132211 0.490650 -0.366734
C22   C     C_2   0.527423 0.581913 0.926665 -0.166988
C23   C     C_R   0.030624 0.301705 0.539323 -0.166768
C24   C     C_2   0.533123 0.570472 0.075284 -0.087307
C25   C     C_R   0.610608 0.498462 0.499821 0.892670
C26   C     C_R   0.880224 0.631848 0.501919 0.546771
C27   C     C_R   0.881445 0.412748 0.534703 0.529357
C28   C     C_R   0.940956 0.411926 0.531951 -0.008750
C29   C     C_R   0.970387 0.524698 0.513961 -0.022656
C30   C     C_R   0.939844 0.635910 0.500817 -0.057321
C31   C     C_3   0.670894 0.424925 0.167006 -0.734514
C32   C     C_3   0.803788 0.548845 0.828462 -0.780292
C33   C     C_3   0.515549 0.932352 0.740495 -0.769328
C34   C     C_R   0.060388 0.413309 0.521170 0.002166
C35   C     C_3   0.545750 0.032078 0.155320 -0.805627
C36   C     C_3   0.426541 0.352087 0.108215 -0.673955
C37   C     C_3   0.063809 0.895351 0.317966 -0.670786
C38   C     C_3   0.349495 0.749118 0.696518 -0.727404
C39   C     C_3   0.821221 0.484721 0.199151 -0.785966
C40   C     C_R   0.030367 0.525850 0.508643 -0.062496
C41   C     C_R   0.060113 0.638900 0.490780 -0.061421
C42   C     C_R   0.028801 0.750650 0.477553 0.218223
C43   C     C_R   0.969202 0.747807 0.483964 -0.233336
C44   C     C_R   0.119753 0.415108 0.515907 0.501173
H1    H     H_    0.477160 0.883141 0.308444 0.165175
H2    H     H_    0.763070 0.705943 0.763468 0.233743
H3    H     H_    0.826510 0.603086 0.907985 0.241410
H4    H     H_    0.833416 0.477082 0.787716 0.264083
H5    H     H_    0.766064 0.502845 0.873155 0.234252
H6    H     H_    0.584628 0.895546 0.614360 0.227026
H7    H     H_    0.526067 0.022992 0.790060 0.240965
H8    H     H_    0.531451 0.857267 0.804018 0.232898
H9    H     H_    0.468335 0.924659 0.732136 0.237269
H10   H     H_    0.571716 0.166263 0.296927 0.228070
H11   H     H_    0.566389 0.086343 0.075794 0.239071
H12   H     H_    0.318607 0.422191 0.305908 0.172636
H13   H     H_    0.504197 0.997073 0.116307 0.242052
H14   H     H_    0.573916 0.952988 0.179592 0.243018
H15   H     H_    0.468258 0.092848 0.573423 0.166031
H16   H     H_    0.548794 0.658608 0.879824 0.154016
H17   H     H_    0.490031 0.418385 0.893715 0.198014
H18   H     H_    0.567963 0.620521 0.123753 0.132750
H19   H     H_    0.052945 0.214448 0.549147 0.187091
H20   H     H_    0.428488 0.534839 0.030377 0.218635
H21   H     H_    0.383819 0.342514 0.061158 0.196339
H22   H     H_    0.422883 0.323009 0.212903 0.272177
H23   H     H_    0.214278 0.432617 0.304589 0.145997
H24   H     H_    0.456920 0.289424 0.054626 0.213040
H25   H     H_    0.038239 0.939565 0.510695 0.215273
H26   H     H_    0.021635 0.907929 0.269540 0.210360
H27   H     H_    0.087491 0.819799 0.264468 0.255568
H28   H     H_    0.088705 0.982798 0.310351 0.245127
H29   H     H_    0.945977 0.833879 0.473316 0.192938
H30   H     H_    0.215475 0.614560 0.691613 0.140937
H31   H     H_    0.306088 0.621574 0.809507 0.219458
H32   H     H_    0.313507 0.814527 0.682683 0.238745
H33   H     H_    0.377254 0.749041 0.606625 0.232847
H34   H     H_    0.949662 0.213418 0.558712 0.189046
H35   H     H_    0.375271 0.781850 0.783587 0.229328
H36   H     H_    0.782644 0.319879 0.253636 0.262033
H37   H     H_    0.848463 0.432993 0.126058 0.243998
H38   H     H_    0.785591 0.528239 0.144713 0.238903
H39   H     H_    0.847610 0.558601 0.247704 0.257029
H40   H     H_    0.645856 0.314219 0.326257 0.222985
H41   H     H_    0.699113 0.378768 0.091910 0.235720
H42   H     H_    0.680318 0.526295 0.170971 0.234055
H43   H     H_    0.626038 0.411527 0.134043 0.239579
H44   H     H_    0.675054 0.607320 0.686887 0.172950
N1    N     N_R   0.852530 0.521163 0.517040 -0.328939
N2    N     N_2   0.056366 0.866556 0.457089 -0.249539
N3    N     N_2   0.327889 0.625589 0.720202 -0.288436
N4    N     N_2   0.799378 0.400049 0.296707 -0.274303
N5    N     N_R   0.148023 0.524632 0.499863 -0.355997
N6    N     N_2   0.500610 0.501330 0.852150 -0.193376
N7    N     N_2   0.500630 0.501360 0.147810 -0.013179
N8    N     N_2   0.679248 0.368868 0.295331 -0.303463
N9    N     N_2   0.785918 0.631360 0.725050 -0.273903
N10   N     N_2   0.542906 0.925470 0.610664 -0.295330
N11   N     N_2   0.536928 0.111524 0.272415 -0.268726
N12   N     N_2   0.445443 0.479868 0.103159 -0.214463
O1    O     O_R   0.499990 0.319060 0.613040 -0.614256
O2    O     O_R   0.583840 0.500020 0.613040 -0.612499
O3    O     O_R   0.583850 0.500060 0.386900 -0.612678
O4    O     O_2   0.850022 0.736847 0.485155 -0.559844
O5    O     O_2   0.852456 0.306211 0.554327 -0.563489
O6    O     O_2   0.149302 0.308543 0.528284 -0.557912
O7    O     O_2   0.150879 0.740344 0.475220 -0.526469
O8    O     O_R   0.500010 0.319100 0.386900 -0.608425
O9    O     O_R   0.416150 0.499940 0.613100 -0.580339
O10   O     O_R   0.416160 0.499980 0.386960 -0.607724
O11   O     O_R   0.499990 0.680900 0.613100 -0.601263
O12   O     O_R   0.500010 0.680940 0.386960 -0.627779
Zn1   Zn    Zn3+2 0.499990 0.499970 0.650990 0.950919
Zn2   Zn    Zn3+2 0.500010 0.500030 0.349010 0.956865

loop_
_geom_bond_atom_site_label_1
_geom_bond_atom_site_label_2
_ccdc_geom_bond_type
C11   N8    S    
C43   H29   S    
C4    O9    A    
C1    C21   S    
C31   H41   S    
C9    N5    S    
O1    Zn1   S    
C41   C42   A    
O12   Zn2   S    
C7    C8    A    
C38   H32   S    
C26   N1    A    
C12   C23   A    
C37   N2    S    
C12   C28   A    
C35   H14   S    
C34   C40   A    
C28   C29   A    
C21   H15   S    
C22   H16   S    
C5    C6    A    
C36   H22   S    
C25   O2    A    
N7    N12   S    
C38   H35   S    
C27   O5    S    
N7    Zn2   S    
C31   N8    S    
C2    O7    S    
C18   C19   D    
C32   N9    S    
C33   N10   S    
H40   N8    S    
O8    Zn2   S    
C3    H30   S    
C44   N5    A    
C26   O4    S    
C19   N10   S    
C8    C9    A    
C12   H34   S    
O10   Zn2   S    
O9    Zn1   S    
C23   H19   S    
C10   N4    S    
C31   H42   S    
C37   H26   S    
C32   H4    S    
C13   C25   S    
C7    H12   S    
C15   N9    S    
C35   N11   S    
N6    Zn1   S    
C33   H9    S    
H6    N10   S    
C31   H43   S    
C35   H11   S    
O3    Zn2   S    
C34   C44   A    
C39   H37   S    
O11   Zn1   S    
C24   N7    D    
H17   N6    S    
C25   O3    A    
C38   N3    S    
C22   N6    D    
C42   N2    S    
H36   N4    S    
C29   C30   A    
C3    C9    A    
C10   C17   A    
C23   C34   A    
C17   N1    S    
C36   N12   S    
C5    N3    S    
C4    C6    S    
C40   C41   A    
H2    N9    S    
C26   C30   A    
C44   O6    S    
C37   H27   S    
C32   H3    S    
C22   C24   S    
C30   C43   A    
C42   C43   A    
H25   N2    S    
C18   H1    S    
C1    O1    A    
C39   N4    S    
C16   O12   A    
C15   C17   A    
C4    O10   A    
C24   H18   S    
C36   H21   S    
C2    N5    A    
C39   H38   S    
C3    C5    A    
C33   H8    S    
C36   H24   S    
C6    C7    A    
C38   H33   S    
H31   N3    S    
C33   H7    S    
C35   H13   S    
C14   H44   S    
O2    Zn1   S    
C11   C13   A    
C20   N11   S    
C16   C19   S    
C29   C40   A    
C27   N1    A    
C18   C20   S    
H10   N11   S    
C32   H5    S    
C10   C11   A    
C1    O8    A    
C39   H39   S    
H20   N12   S    
C20   C21   D    
C8    H23   S    
C37   H28   S    
C27   C28   A    
C14   C15   A    
C2    C41   A    
C13   C14   A    
C16   O11   A    
