data_mof_unit_51103.cif
_audit_creation_date              2012-12-10T17:21:07-0500
_audit_creation_method            fapswitch 2.2
_symmetry_space_group_name_H-M    P1
_symmetry_Int_Tables_number       1
_space_group_crystal_system       triclinic
_cell_length_a                    10.396286
_cell_length_b                    10.854675
_cell_length_c                    11.07165
_cell_angle_alpha                 96.833472
_cell_angle_beta                  92.36993
_cell_angle_gamma                 81.668682
_cell_volume                      1227.07981659

loop_
_atom_site_label
_atom_site_type_symbol
_atom_type_description
_atom_site_fract_x
_atom_site_fract_y
_atom_site_fract_z
_atom_type_partial_charge
C1    C     C_R   0.448545 0.513401 0.270288 0.964820
C2    C     C_2   0.920284 0.515650 0.517619 0.579698
C3    C     C_R   0.499177 0.256779 0.497310 0.932629
C4    C     C_R   0.550054 0.505882 0.730864 0.962794
C5    C     C_R   0.498331 0.740363 0.493486 0.946064
C6    C     C_3   0.603699 0.038508 0.403162 0.472731
C7    C     C_3   0.573451 0.902230 0.379289 -0.047492
C8    C     C_3   0.528937 0.075929 0.626467 0.330234
C9    C     C_3   0.353000 0.084477 0.453742 0.769407
C10   C     C_3   0.495521 0.118012 0.494032 -0.200980
C11   C     C_3   0.839720 0.009820 0.401253 0.186223
C12   C     C_3   0.495659 0.875053 0.487514 -0.154120
C13   C     C_3   0.929520 0.916998 0.469414 -0.844920
C14   C     C_3   0.254661 0.478584 0.939441 0.110155
C15   C     C_3   0.142970 0.454472 0.852051 -0.765699
C16   C     C_3   0.875842 0.692184 0.654208 0.004555
C17   C     C_3   0.817749 0.740302 0.777727 -0.733258
C18   C     C_3   0.831920 0.330713 0.271144 0.245191
C19   C     C_3   0.910177 0.232397 0.182158 -0.844422
C20   C     C_3   0.133722 0.125964 0.533173 0.062573
C21   C     C_3   0.044534 0.229348 0.605166 -0.678321
C22   C     C_3   0.243569 0.203441 0.296093 0.195642
C23   C     C_3   0.550796 0.931003 0.612288 -0.516026
C24   C     C_3   0.280418 0.242544 0.176103 -0.778700
C25   C     C_3   0.353978 0.941461 0.468179 -0.159527
C26   C     C_2   0.426032 0.553805 0.150844 -0.353140
C27   C     C_2   0.495445 0.500700 0.055570 0.016490
C28   C     C_2   0.566036 0.528487 0.861293 -0.389416
C29   C     C_2   0.463421 0.537517 0.935432 0.522515
C30   C     C_2   0.057673 0.532391 0.476416 0.082659
H1    H     H_    0.303887 0.928567 0.550714 0.166778
H2    H     H_    0.926193 0.945086 0.569238 0.263530
H3    H     H_    0.029361 0.912262 0.440848 0.235621
H4    H     H_    0.903560 0.821888 0.447898 0.265295
H5    H     H_    0.210897 0.525146 0.025695 0.177283
H6    H     H_    0.309144 0.385253 0.954413 0.183904
H7    H     H_    0.182435 0.403967 0.765626 0.273258
H8    H     H_    0.080805 0.395017 0.891315 0.222029
H9    H     H_    0.082745 0.544437 0.836388 0.258903
H10   H     H_    0.812313 0.736111 0.584227 0.185590
H11   H     H_    0.973895 0.721117 0.653385 0.146321
H12   H     H_    0.506754 0.895570 0.688892 0.194312
H13   H     H_    0.716024 0.720491 0.778940 0.241983
H14   H     H_    0.875737 0.694293 0.850618 0.262607
H15   H     H_    0.817696 0.843166 0.795847 0.233067
H16   H     H_    0.803965 0.417249 0.225937 0.204941
H17   H     H_    0.744860 0.294652 0.297740 0.208956
H18   H     H_    0.947209 0.147682 0.226194 0.230776
H19   H     H_    0.851456 0.200566 0.102510 0.277992
H20   H     H_    0.991842 0.272418 0.148090 0.257679
H21   H     H_    0.134253 0.044046 0.583535 0.159046
H22   H     H_    0.092752 0.106598 0.441008 0.152357
H23   H     H_    0.665289 0.519141 0.897914 0.166273
H24   H     H_    0.941094 0.220186 0.583067 0.254379
H25   H     H_    0.062021 0.224534 0.704227 0.242140
H26   H     H_    0.065269 0.320941 0.584131 0.255354
H27   H     H_    0.234363 0.286838 0.364469 0.217268
H28   H     H_    0.148529 0.171400 0.280187 0.170966
H29   H     H_    0.294602 0.160129 0.105777 0.298804
H30   H     H_    0.203254 0.313198 0.143501 0.205526
H31   H     H_    0.370808 0.285413 0.188750 0.261287
H32   H     H_    0.352108 0.633371 0.140583 0.195187
H33   H     H_    0.137481 0.552976 0.640912 0.179044
H34   H     H_    0.504416 0.900982 0.300718 0.200814
H35   H     H_    0.656180 0.897540 0.617962 0.234782
H36   H     H_    0.829454 0.970709 0.305331 0.187201
H37   H     H_    0.883774 0.096291 0.401993 0.168191
I1    I     I_    0.388678 0.142462 0.767828 -0.326568
I2    I     I_    0.610841 0.326681 0.042774 -0.388101
I3    I     I_    0.065824 0.553592 0.288756 -0.352158
I4    I     I_    0.600085 0.097991 0.224639 -0.353862
I5    I     I_    0.705944 0.758776 0.272235 -0.335164
I6    I     I_    0.696595 0.145176 0.721607 -0.274550
I7    I     I_    0.252009 0.849914 0.312763 -0.360111
N1    N     N_2   0.157300 0.551950 0.551120 -0.221881
N2    N     N_2   0.842730 0.448000 0.448950 0.030582
O1    O     O_R   0.568940 0.489540 0.307530 -0.624373
O2    O     O_3   0.333785 0.557451 0.892245 -0.579526
O3    O     O_3   0.881044 0.561110 0.634781 -0.623138
O4    O     O_3   0.909579 0.356199 0.373761 -0.623976
O5    O     O_3   0.258267 0.163495 0.530068 -0.620121
O6    O     O_3   0.334492 0.101325 0.327358 -0.641299
O7    O     O_R   0.348880 0.522880 0.340350 -0.586011
O8    O     O_R   0.610030 0.298130 0.483570 -0.594759
O9    O     O_R   0.389960 0.331470 0.516390 -0.582504
O10   O     O_R   0.651120 0.477120 0.659650 -0.558364
O11   O     O_R   0.431060 0.510460 0.692470 -0.555540
O12   O     O_R   0.610040 0.668530 0.483610 -0.619969
O13   O     O_R   0.389970 0.701870 0.516430 -0.604661
O14   O     O_3   0.724645 0.042492 0.466359 -0.595452
Zn1   Zn    Zn3+2 0.646940 0.477740 0.478080 1.022415
Zn2   Zn    Zn3+2 0.353060 0.522260 0.521920 1.011284

loop_
_geom_bond_atom_site_label_1
_geom_bond_atom_site_label_2
_ccdc_geom_bond_type
C25   H1    S    
C24   H31   S    
C3    O9    A    
C1    O1    A    
C13   H2    S    
C19   H20   S    
C18   H17   S    
C22   H27   S    
C9    C25   S    
C4    O11   A    
O7    Zn2   S    
C12   C23   S    
C26   C27   D    
C23   H12   S    
C22   O6    S    
C28   C29   D    
C17   H15   S    
C18   C19   S    
C20   H21   S    
O10   Zn1   S    
C14   H6    S    
C21   H24   S    
C4    O10   A    
C8    C23   S    
C27   C29   S    
C25   I7    S    
C15   H7    S    
C2    O3    S    
C30   I3    S    
C5    O12   A    
C29   O2    S    
C16   C17   S    
O8    Zn1   S    
C9    C10   S    
C27   I2    S    
C11   H36   S    
C9    O6    S    
O11   Zn2   S    
C6    I4    S    
C18   H16   S    
C4    C28   S    
O9    Zn2   S    
C11   H37   S    
C7    C12   S    
C5    C12   S    
C7    I5    S    
C21   H25   S    
C19   H18   S    
C6    O14   S    
C17   H13   S    
C15   H8    S    
C13   H3    S    
C19   H19   S    
O12   Zn1   S    
C24   H30   S    
O13   Zn2   S    
C15   H9    S    
C22   H28   S    
N1    Zn2   S    
C16   H10   S    
C18   O4    S    
C8    I1    S    
C1    C26   S    
C22   C24   S    
C14   H5    S    
C2    N2    D    
O1    Zn1   S    
N2    O4    S    
C6    C10   S    
C21   H26   S    
C28   H23   S    
C6    C7    S    
C1    O7    A    
C12   C25   S    
C2    C30   S    
C16   O3    S    
C23   H35   S    
C26   H32   S    
C17   H14   S    
C13   H4    S    
C20   H22   S    
C3    C10   S    
C30   N1    D    
C11   C13   S    
C11   O14   S    
H33   N1    S    
C24   H29   S    
C8    I6    S    
C14   O2    S    
C7    H34   S    
N2    Zn1   S    
C20   C21   S    
C8    C10   S    
C3    O8    A    
C14   C15   S    
C20   O5    S    
C16   H11   S    
C5    O13   A    
C9    O5    S    
