data_mof_unit_14915.cif
_audit_creation_date              2013-03-05T15:48:11-0500
_audit_creation_method            fapswitch 2.2
_symmetry_space_group_name_H-M    P1
_symmetry_Int_Tables_number       1
_space_group_crystal_system       triclinic
_cell_length_a                    20.96924
_cell_length_b                    7.130676
_cell_length_c                    14.076853
_cell_angle_alpha                 89.26578
_cell_angle_beta                  98.508812
_cell_angle_gamma                 90.987083
_cell_volume                      2081.25064136

loop_
_atom_site_label
_atom_site_type_symbol
_atom_site_description
_atom_site_fract_x
_atom_site_fract_y
_atom_site_fract_z
_atom_type_partial_charge
O1    O     O_R   0.447130 0.507140 0.597350 -0.590291
O2    O     O_R   0.552870 0.007140 0.402650 -0.594076
O3    O     O_R   0.578910 0.181280 0.586990 -0.584997
O4    O     O_R   0.421090 0.681280 0.413010 -0.587557
C1    C     C_R   0.604506 0.345026 0.607330 0.982858
C2    C     C_R   0.395526 0.843938 0.392612 0.980914
O5    O     O_R   0.449230 0.177860 0.608640 -0.594373
O6    O     O_R   0.550770 0.677860 0.391360 -0.590985
O7    O     O_R   0.422260 0.000770 0.424450 -0.586480
O8    O     O_R   0.577740 0.500770 0.575550 -0.589720
C3    C     C_R   0.432765 0.344212 0.634124 0.923957
C4    C     C_R   0.566925 0.848298 0.365658 0.923508
O9    O     O_3   0.491310 0.336980 0.439550 -0.277530
O10   O     O_3   0.508690 0.836980 0.560450 -0.276848
V1    V     V_3+5 0.501610 0.064760 0.511210 1.203644
V2    V     V_3+5 0.498390 0.564760 0.488790 1.202772
C5    C     C_R   0.617643 0.952905 0.126974 -0.056228
C6    C     C_R   0.384204 0.300065 0.878108 -0.055776
H1    H     H_    0.528226 0.958336 0.183299 0.131517
H2    H     H_    0.473717 0.292331 0.822221 0.131315
H3    H     H_    0.594533 0.998477 0.056819 0.162821
H4    H     H_    0.408326 0.276991 0.950634 0.163193
C7    C     C_R   0.606427 0.865401 0.289303 -0.086218
C8    C     C_R   0.393523 0.344309 0.711039 -0.085382
C9    C     C_R   0.918178 0.826455 0.303915 -0.080573
C10   C     C_R   0.081462 0.356865 0.694988 -0.085700
C11   C     C_R   0.879690 0.814920 0.376430 -0.095958
C12   C     C_R   0.119681 0.333748 0.623111 -0.096345
C13   C     C_R   0.813381 0.831085 0.355975 -0.173323
C14   C     C_R   0.186163 0.325760 0.644629 -0.177664
C15   C     C_R   0.781771 0.852365 0.260742 0.122127
C16   C     C_R   0.218046 0.342410 0.739779 0.122881
C17   C     C_R   0.819654 0.859814 0.184415 -0.003589
C18   C     C_R   0.180335 0.358826 0.815741 -0.005852
C19   C     C_R   0.713387 0.867898 0.239920 0.063921
C20   C     C_R   0.286673 0.340119 0.760922 0.064767
C21   C     C_R   0.684297 0.917148 0.145542 -0.009594
C22   C     C_R   0.316800 0.321184 0.857607 -0.008765
C23   C     C_R   0.721321 0.922709 0.070392 0.273058
C24   C     C_R   0.279833 0.329834 0.932518 0.271453
C25   C     C_R   0.786907 0.876966 0.088298 -0.285723
C26   C     C_R   0.213451 0.364784 0.912067 -0.277213
C27   C     C_R   0.672562 0.835280 0.310106 -0.206283
C28   C     C_R   0.326702 0.358562 0.688678 -0.209290
C29   C     C_R   0.579292 0.929254 0.198734 -0.171762
C30   C     C_R   0.422036 0.309815 0.805158 -0.170221
C31   C     C_R   0.888724 0.850928 0.207302 -0.224871
C32   C     C_R   0.111184 0.366738 0.792158 -0.221996
H5    H     H_    0.690327 0.785191 0.381535 0.100696
H6    H     H_    0.307602 0.386446 0.614503 0.101524
H7    H     H_    0.788393 0.831711 0.417502 0.118168
H8    H     H_    0.211370 0.300679 0.584727 0.119966
H9    H     H_    0.901427 0.799511 0.450873 0.161276
H10   H     H_    0.097816 0.322162 0.548626 0.168435
C33   C     C_1   0.166400 0.858901 0.168827 -0.223578
C34   C     C_1   0.833759 0.355663 0.830845 -0.209706
C35   C     C_1   0.218823 0.855898 0.219876 0.124380
C36   C     C_1   0.781387 0.354252 0.779633 0.131556
C37   C     C_1   0.280641 0.852951 0.279684 0.125885
C38   C     C_1   0.719561 0.354147 0.719836 0.122956
C39   C     C_1   0.333076 0.849830 0.330743 -0.268985
C40   C     C_1   0.667058 0.352409 0.668927 -0.271992
O11   O     O_R   0.922300 0.202240 0.924350 -0.574399
O12   O     O_R   0.077700 0.702240 0.075650 -0.594458
O13   O     O_R   0.050780 0.535130 0.891350 -0.550054
O14   O     O_R   0.949220 0.035130 0.108650 -0.560355
C41   C     C_R   0.069137 0.369990 0.867335 0.963474
C42   C     C_R   0.930614 0.866416 0.132146 0.974106
O15   O     O_R   0.921100 0.531560 0.912990 -0.574659
O16   O     O_R   0.078900 0.031560 0.087010 -0.552357
O17   O     O_R   0.947120 0.708470 0.097370 -0.591616
O18   O     O_R   0.052880 0.208470 0.902630 -0.594680
C43   C     C_R   0.896081 0.362896 0.892999 1.064666
C44   C     C_R   0.103991 0.864224 0.106825 1.076011
O19   O     O_3   0.008710 0.375800 0.060400 -0.286931
O20   O     O_3   0.991290 0.875800 0.939600 -0.286766
V3    V     V_3+5 0.998380 0.648080 0.988790 1.248133
V4    V     V_3+5 0.001620 0.148080 0.011210 1.254757
N1    N     N_R   0.690864 0.954104 0.973338 0.232460
O21   O     O_R   0.704602 0.104851 0.926983 -0.368058
O22   O     O_R   0.651673 0.828270 0.929995 -0.396614
N2    N     N_R   0.310714 0.323567 0.030710 0.229994
O23   O     O_R   0.297998 0.186018 0.086879 -0.368731
O24   O     O_R   0.347396 0.462632 0.065823 -0.396823
C45   C     C_2   0.989279 0.815969 0.332767 0.987982
O25   O     O_2   0.011272 0.716413 0.400818 -0.627631
O26   O     O_R   0.031117 0.924307 0.285215 -0.822354
H11   H     H_    0.078008 0.907869 0.313745 0.306781
C46   C     C_2   0.010315 0.366328 0.665427 0.986695
O27   O     O_2   0.984691 0.279669 0.595103 -0.626405
O28   O     O_R   0.972736 0.478508 0.715258 -0.814309
H12   H     H_    0.925418 0.474968 0.686717 0.306205
C47   C     C_2   0.814035 0.803999 0.005737 1.068001
O29   O     O_2   0.821085 0.635139 0.000295 -0.639792
O30   O     O_R   0.827090 0.924117 0.931718 -0.755840
H13   H     H_    0.843544 0.855137 0.877913 0.321852
C48   C     C_2   0.184780 0.445074 0.991133 1.067095
O31   O     O_2   0.179894 0.615034 0.994244 -0.642765
O32   O     O_R   0.168127 0.329958 0.064902 -0.750172
H14   H     H_    0.152024 0.403367 0.117508 0.323446

loop_
_geom_bond_atom_site_label_1
_geom_bond_atom_site_label_2
_geom_bond_distance
_ccdc_geom_bond_type
O14   C42   1.311774 A    
O26   H11   1.013783 S    
C47   O29   1.220408 D    
C7    C29   1.391360 A    
C11   C13   1.384098 A    
O12   V3    1.949058 S    
O15   V3    1.979788 S    
O30   H13   1.013590 S    
O1    C3    1.314200 A    
O2    C4    1.308803 A    
C2    O7    1.297179 A    
C48   O31   1.219898 D    
C23   C25   1.404330 A    
C45   O25   1.223698 D    
C10   C46   1.490807 S    
O5    C3    1.310205 A    
C4    C7    1.453573 S    
C16   C20   1.426065 A    
C2    C39   1.462376 S    
C19   C21   1.419885 A    
C5    C29   1.388140 A    
C35   C37   1.437747 S    
O16   V4    1.991706 S    
C36   C38   1.437473 S    
C3    C8    1.453650 S    
C7    C27   1.394133 A    
C38   C40   1.221518 T    
C41   O18   1.308246 A    
O6    V2    2.030955 S    
O18   V4    2.032333 S    
C33   C44   1.462420 S    
C25   C47   1.471846 S    
O13   C41   1.308976 A    
C18   C26   1.429858 A    
O16   C44   1.322143 A    
C15   C17   1.427578 A    
O15   C43   1.320654 A    
C46   O28   1.397339 S    
C19   C27   1.414439 A    
C9    C31   1.417965 A    
C10   C32   1.418832 A    
C24   C26   1.405039 A    
C47   O30   1.395605 S    
C22   C24   1.400687 A    
C11   H9    1.084166 S    
C6    C30   1.387829 A    
C48   O32   1.396308 S    
C45   O26   1.397039 S    
O14   V4    2.030919 S    
C37   C39   1.221732 T    
O13   V3    2.059670 S    
C24   N2    1.437501 S    
O20   V3    1.757081 S    
O4    C2    1.297087 A    
C26   C48   1.467718 S    
O28   H12   1.013897 S    
N1    O22   1.301152 A    
C12   H10   1.084011 S    
C27   H5    1.077919 S    
O5    V1    2.059736 S    
O11   C43   1.321493 A    
C5    H3    1.082262 S    
C23   N1    1.436465 S    
O4    V2    1.991902 S    
O32   H14   1.013126 S    
O6    C4    1.316634 A    
C9    C45   1.489049 S    
O1    V2    2.028377 S    
C5    C21   1.410442 A    
O2    V1    2.043752 S    
O19   V3    2.175400 S    
N2    O24   1.301179 A    
C33   C35   1.221441 T    
C17   C31   1.438760 A    
C15   C19   1.426409 A    
C20   C28   1.414718 A    
C18   C32   1.440800 A    
C31   C42   1.473679 S    
O17   V3    2.048418 S    
O3    V1    1.979975 S    
C13   H7    1.076662 S    
C28   H6    1.078826 S    
C14   H8    1.077703 S    
C34   C43   1.461677 S    
C6    H4    1.082131 S    
O20   V4    2.191736 S    
O3    C1    1.294178 A    
H1    C29   1.083732 S    
C9    C11   1.392656 A    
C10   C12   1.393543 A    
C8    C30   1.391272 A    
C12   C14   1.384109 A    
C6    C22   1.410380 A    
C17   C25   1.428593 A    
C1    O8    1.297277 A    
C13   C15   1.412388 A    
O8    V2    1.969493 S    
C14   C16   1.411188 A    
C42   O17   1.305992 A    
C8    C28   1.395102 A    
C20   C22   1.418973 A    
C34   C36   1.221222 T    
C1    C40   1.461958 S    
C32   C41   1.474886 S    
O7    V1    1.963454 S    
O19   V4    1.768709 S    
N1    O21   1.300483 A    
C21   C23   1.401528 A    
N2    O23   1.300683 A    
O9    V2    1.769377 S    
O12   C44   1.322928 A    
O10   V1    1.757727 S    
C46   O27   1.223681 D    
H2    C30   1.083766 S    
C16   C18   1.427966 A    
O11   V4    1.954196 S    
