data_mof_unit_32343.cif
_audit_creation_date              2013-03-05T15:49:31-0500
_audit_creation_method            fapswitch 2.2
_symmetry_space_group_name_H-M    P1
_symmetry_Int_Tables_number       1
_space_group_crystal_system       triclinic
_cell_length_a                    14.047273
_cell_length_b                    14.106623
_cell_length_c                    27.359772
_cell_angle_alpha                 89.630699
_cell_angle_beta                  90.094784
_cell_angle_gamma                 120.268145
_cell_volume                      4682.40103601

loop_
_atom_site_label
_atom_site_type_symbol
_atom_site_description
_atom_site_fract_x
_atom_site_fract_y
_atom_site_fract_z
_atom_type_partial_charge
O1    O     O_R   0.137310 0.468260 0.552980 -0.482467
O2    O     O_R   0.531740 0.669050 0.552980 -0.481467
O3    O     O_R   0.330950 0.862690 0.552980 -0.486830
O4    O     O_R   0.174120 0.688790 0.549730 -0.486869
O5    O     O_R   0.311210 0.485330 0.549730 -0.487099
O6    O     O_R   0.514670 0.825880 0.549730 -0.489420
C1    C     C_R   0.234052 0.787207 0.568382 0.550462
C2    C     C_R   0.210815 0.444048 0.567583 0.551007
C3    C     C_R   0.555619 0.766840 0.567619 0.549758
O7    O     O_R   0.139940 0.470480 0.446230 -0.524115
O8    O     O_R   0.529520 0.669460 0.446230 -0.522766
O9    O     O_R   0.330540 0.860060 0.446230 -0.523070
O10   O     O_R   0.176560 0.690850 0.450770 -0.510389
O11   O     O_R   0.309150 0.485710 0.450770 -0.510255
O12   O     O_R   0.514290 0.823440 0.450770 -0.510786
C4    C     C_R   0.233270 0.787584 0.431713 0.537488
C5    C     C_R   0.212495 0.446330 0.431596 0.536072
C6    C     C_R   0.554027 0.766774 0.431698 0.535139
Cr1   Cr    Cr6+3 0.164410 0.584450 0.499910 1.055017
Cr2   Cr    Cr6+3 0.415550 0.579960 0.499910 1.053104
Cr3   Cr    Cr6+3 0.420040 0.835590 0.499910 1.051002
O13   O     O_3   0.333333 0.666667 0.499990 -0.280722
C7    C     C_3   0.601170 0.864123 0.730923 -0.173896
C8    C     C_3   0.131639 0.743093 0.737869 -0.171704
C9    C     C_3   0.253574 0.404918 0.731584 -0.171846
C10   C     C_3   0.800514 0.929548 0.717002 -0.306691
C11   C     C_3   0.079414 0.880712 0.710851 -0.305231
C12   C     C_3   0.123504 0.205655 0.719221 -0.304362
C13   C     C_3   0.818491 0.937650 0.773360 -0.319031
C14   C     C_3   0.067044 0.904135 0.764885 -0.325660
C15   C     C_3   0.110634 0.189261 0.775533 -0.320061
H1    H     H_    0.656861 0.969326 0.793693 0.192959
H2    H     H_    0.019117 0.712398 0.796938 0.198835
H3    H     H_    0.305350 0.360872 0.797754 0.191902
H4    H     H_    0.610698 0.941304 0.714954 0.184686
H5    H     H_    0.054082 0.674571 0.722465 0.185643
H6    H     H_    0.322585 0.394933 0.717735 0.186931
H7    H     H_    0.862375 0.913907 0.699167 0.126029
H8    H     H_    0.101514 0.954857 0.688191 0.130172
H9    H     H_    0.047480 0.141844 0.700854 0.122354
H10   H     H_    0.813605 0.009083 0.702377 0.167592
H11   H     H_    0.999138 0.813449 0.696977 0.164742
H12   H     H_    0.192638 0.195060 0.706324 0.185908
H13   H     H_    0.840088 0.020795 0.784839 0.198087
H14   H     H_    0.980958 0.847380 0.775786 0.184566
H15   H     H_    0.171956 0.168806 0.789036 0.205045
H16   H     H_    0.889388 0.928943 0.783319 0.134187
H17   H     H_    0.082328 0.988383 0.768283 0.136109
H18   H     H_    0.028859 0.118495 0.784576 0.134511
C16   C     C_1   0.750498 0.878728 0.897968 0.119911
C17   C     C_1   0.103372 0.911196 0.892184 0.104521
C18   C     C_1   0.125850 0.254148 0.898455 0.105336
C19   C     C_3   0.682108 0.836305 0.705453 -0.064314
C20   C     C_3   0.168665 0.848096 0.706507 -0.060822
C21   C     C_3   0.145574 0.321547 0.706040 -0.061804
C22   C     C_3   0.623462 0.880221 0.786548 0.060576
C23   C     C_3   0.110182 0.762376 0.791395 0.056083
C24   C     C_3   0.245198 0.387285 0.787504 0.057963
C25   C     C_3   0.713471 0.851945 0.801507 -0.026064
C26   C     C_3   0.144512 0.885355 0.799175 -0.026808
C27   C     C_3   0.127830 0.293720 0.802294 -0.026028
C28   C     C_3   0.685454 0.731714 0.784656 0.357540
C29   C     C_3   0.269174 0.969830 0.783088 0.356865
C30   C     C_3   0.032880 0.317156 0.784017 0.359339
C31   C     C_3   0.670389 0.727512 0.726574 0.121405
C32   C     C_3   0.278784 0.946221 0.726461 0.121923
C33   C     C_3   0.044890 0.329903 0.725552 0.121772
C34   C     C_1   0.732972 0.869156 0.854674 0.095189
C35   C     C_1   0.119896 0.899266 0.850156 0.081502
C36   C     C_1   0.128558 0.274320 0.855469 0.087080
C37   C     C_1   0.656202 0.824830 0.652713 -0.005596
C38   C     C_1   0.181578 0.825953 0.655135 0.003020
C39   C     C_1   0.162940 0.345484 0.653228 -0.004316
C40   C     C_1   0.617386 0.803873 0.612175 0.050324
C41   C     C_1   0.200069 0.808075 0.614335 0.054588
C42   C     C_1   0.184500 0.383111 0.612441 0.050618
H19   H     H_    0.740336 0.723510 0.709664 0.148071
H20   H     H_    0.290704 0.017160 0.703941 0.163522
H21   H     H_    0.972195 0.257475 0.709181 0.145988
H22   H     H_    0.515913 0.800018 0.722712 0.254346
H23   H     H_    0.192325 0.715522 0.735891 0.261469
H24   H     H_    0.275486 0.489366 0.721276 0.251557
O14   O     O_3   1.000000 1.000000 0.017910 -0.283286
Cr4   Cr    Cr6+3 0.156760 0.076070 0.017830 1.072203
Cr5   Cr    Cr6+3 0.923930 0.080690 0.017830 1.073009
Cr6   Cr    Cr6+3 0.919310 0.843240 0.017830 1.084101
O15   O     O_R   0.149710 0.171070 0.967700 -0.518733
O16   O     O_R   0.828930 0.978640 0.967700 -0.498563
O17   O     O_R   0.021360 0.850290 0.967700 -0.466249
C43   C     C_R   0.105162 0.218053 0.948232 0.565714
C44   C     C_R   0.783134 0.888197 0.948008 0.566094
C45   C     C_R   0.091013 0.931384 0.942210 0.556004
O18   O     O_R   0.178510 0.985930 0.071830 -0.512593
O19   O     O_R   0.014070 0.192580 0.071830 -0.513516
O20   O     O_R   0.807420 0.821490 0.071830 -0.516838
O21   O     O_R   0.147830 0.173300 0.066650 -0.501708
O22   O     O_R   0.826700 0.974530 0.066650 -0.499707
O23   O     O_R   0.025470 0.852170 0.066650 -0.495536
O24   O     O_R   0.180530 0.983530 0.965090 -0.453753
O25   O     O_R   0.016470 0.197000 0.965090 -0.472397
O26   O     O_R   0.803000 0.819470 0.965090 -0.482113
C46   C     C_R   0.614229 0.807787 0.385740 0.027248
C47   C     C_R   0.192467 0.807643 0.385942 0.026733
C48   C     C_R   0.192749 0.386961 0.385593 0.027090
C49   C     C_R   0.606466 0.890030 0.359932 -0.124324
C50   C     C_R   0.106959 0.718313 0.361144 -0.124268
C51   C     C_R   0.282448 0.391754 0.360639 -0.123897
C52   C     C_R   0.634718 0.908355 0.310920 -0.122416
C53   C     C_R   0.088054 0.728183 0.312199 -0.122258
C54   C     C_R   0.272810 0.363347 0.311731 -0.121982
C55   C     C_R   0.673479 0.846523 0.287355 0.036196
C56   C     C_R   0.152638 0.828119 0.287705 0.036185
C57   C     C_R   0.172781 0.327603 0.287337 0.035965
C58   C     C_R   0.692519 0.772798 0.314421 -0.120452
C59   C     C_R   0.229739 0.920616 0.313837 -0.120896
C60   C     C_R   0.080052 0.312090 0.313548 -0.120399
C61   C     C_R   0.662358 0.752959 0.363381 -0.125185
C62   C     C_R   0.250093 0.910304 0.362721 -0.125906
C63   C     C_R   0.090101 0.342220 0.362390 -0.125246
C64   C     C_R   0.656715 0.759462 0.206717 -0.119208
C65   C     C_R   0.239848 0.895270 0.206288 -0.119208
C66   C     C_R   0.105832 0.345825 0.205576 -0.118682
C67   C     C_R   0.677935 0.767813 0.156862 -0.125183
C68   C     C_R   0.231460 0.907535 0.156359 -0.124636
C69   C     C_R   0.093207 0.324040 0.155817 -0.124034
C70   C     C_R   0.751340 0.964550 0.160747 -0.122537
C71   C     C_R   0.032971 0.788290 0.161705 -0.123690
C72   C     C_R   0.211184 0.244742 0.161939 -0.123527
C73   C     C_R   0.732214 0.956515 0.210674 -0.121261
C74   C     C_R   0.041119 0.777868 0.211712 -0.121251
C75   C     C_R   0.222150 0.264669 0.211811 -0.120924
C76   C     C_R   0.687852 0.854392 0.234224 0.034868
C77   C     C_R   0.144276 0.833948 0.234549 0.034663
C78   C     C_R   0.166875 0.312388 0.234220 0.034434
C79   C     C_R   0.728930 0.870944 0.134043 0.026719
C80   C     C_R   0.127608 0.857159 0.134209 0.025794
C81   C     C_R   0.142842 0.270100 0.134123 0.026291
H25   H     H_    0.570017 0.934079 0.376276 0.135349
H26   H     H_    0.060523 0.638130 0.378208 0.134549
H27   H     H_    0.362707 0.425555 0.377608 0.135075
H28   H     H_    0.618688 0.679241 0.223951 0.107120
H29   H     H_    0.320727 0.936048 0.222971 0.107336
H30   H     H_    0.065571 0.386261 0.221852 0.107825
H31   H     H_    0.659789 0.694772 0.136674 0.130332
H32   H     H_    0.305241 0.960693 0.135540 0.131568
H33   H     H_    0.040416 0.344359 0.134788 0.131621
H34   H     H_    0.619346 0.965731 0.290876 0.102690
H35   H     H_    0.027978 0.655669 0.292903 0.102610
H36   H     H_    0.345534 0.375983 0.292387 0.102630
H37   H     H_    0.756995 0.030881 0.231097 0.103322
H38   H     H_    0.966249 0.730207 0.232720 0.103031
H39   H     H_    0.269552 0.238002 0.233101 0.103303
H40   H     H_    0.791545 0.045248 0.143869 0.133784
H41   H     H_    0.951732 0.749362 0.145337 0.132783
H42   H     H_    0.249436 0.202000 0.145964 0.132614
H43   H     H_    0.726217 0.727117 0.297214 0.102811
H44   H     H_    0.277656 0.999619 0.295924 0.102519
H45   H     H_    0.000948 0.280862 0.295765 0.102936
H46   H     H_    0.670747 0.690428 0.382815 0.130473
H47   H     H_    0.315161 0.980794 0.381365 0.130294
H48   H     H_    0.019335 0.336244 0.381070 0.130525
C82   C     C_R   0.106306 0.220648 0.086163 0.557963
C83   C     C_R   0.779097 0.884923 0.086112 0.556716
C84   C     C_R   0.114841 0.893611 0.086083 0.571206
N1    N     N_R   0.522903 0.821333 0.815718 0.135329
O27   O     O_R   0.511560 0.864987 0.855428 -0.210970
O28   O     O_R   0.443761 0.726084 0.802252 -0.150864
N2    N     N_R   0.158925 0.721339 0.827100 0.122434
O29   O     O_R   0.099981 0.661266 0.863735 -0.211242
O30   O     O_R   0.258737 0.740035 0.821926 -0.139231
N3    N     N_R   0.277634 0.489207 0.813542 0.134762
O31   O     O_R   0.326807 0.507189 0.855642 -0.207336
O32   O     O_R   0.251038 0.558921 0.796663 -0.175979
N4    N     N_R   0.777717 0.713054 0.796685 0.035990
O33   O     O_R   0.789163 0.640371 0.772306 -0.281964
O34   O     O_R   0.824264 0.740116 0.839449 -0.345884
N5    N     N_R   0.293062 0.083913 0.789939 0.043081
O35   O     O_R   0.343099 0.158842 0.756363 -0.329524
O36   O     O_R   0.291047 0.117306 0.833996 -0.317397
N6    N     N_R   0.922780 0.223835 0.796654 0.033335
O37   O     O_R   0.837531 0.206669 0.770871 -0.289973
O38   O     O_R   0.904005 0.183716 0.840868 -0.332544
N7    N     N_R   0.569892 0.630015 0.709234 0.100743
O39   O     O_R   0.473102 0.616313 0.718360 -0.335154
O40   O     O_R   0.577405 0.557660 0.682820 -0.272323
N8    N     N_R   0.373164 0.932247 0.715505 0.091582
O41   O     O_R   0.378670 0.849558 0.733119 -0.311722
O42   O     O_R   0.451323 0.001670 0.686722 -0.294012
N9    N     N_R   0.043545 0.426364 0.705806 0.105385
O43   O     O_R   0.127728 0.524571 0.710620 -0.334960
O44   O     O_R   0.959628 0.413151 0.680172 -0.267273
N10   N     N_R   0.587098 0.642992 0.809809 0.164940
O45   O     O_R   0.550502 0.541846 0.796655 -0.190157
O46   O     O_R   0.563514 0.657412 0.854113 -0.235475
N11   N     N_R   0.351127 0.960297 0.813662 0.174470
O47   O     O_R   0.454725 0.018495 0.801484 -0.179159
O48   O     O_R   0.330595 0.935173 0.859805 -0.222401
N12   N     N_R   0.039124 0.414048 0.807819 0.169241
O49   O     O_R   0.976665 0.451114 0.791725 -0.184021
O50   O     O_R   0.069202 0.434075 0.853383 -0.216988

loop_
_geom_bond_atom_site_label_1
_geom_bond_atom_site_label_2
_geom_bond_distance
_ccdc_geom_bond_type
C27   C36   1.479590 S    
O12   C6    1.295760 A    
N3    O31   1.301059 A    
C72   C75   1.387494 A    
O8    C6    1.295415 A    
N1    O27   1.301198 A    
C30   N12   1.480009 S    
C61   H46   1.083157 S    
O1    C2    1.301853 A    
C15   C27   1.555740 S    
C14   H14   1.101995 S    
C62   H47   1.083138 S    
Cr4   O15   1.948470 S    
C56   C77   1.464007 S    
C72   C81   1.403249 A    
C54   H36   1.082824 S    
C63   H48   1.083114 S    
O6    C3    1.319408 A    
C11   C20   1.542853 S    
C7    C22   1.548209 S    
C23   N2    1.465717 S    
N3    O32   1.297666 A    
C8    H5    1.114017 S    
C59   H44   1.083105 S    
C26   C29   1.603873 S    
C14   H17   1.100579 S    
C5    C48   1.463122 S    
C44   O26   1.225844 A    
O3    C1    1.303513 A    
C69   H33   1.083451 S    
N7    O40   1.301375 A    
Cr4   O21   1.969442 S    
C81   C82   1.456178 S    
C30   N6    1.479179 S    
C12   H9    1.112766 S    
O7    C5    1.291611 A    
C8    C20   1.552183 S    
C28   N4    1.482803 S    
C2    C42   1.431588 S    
C21   C33   1.571812 S    
C46   C49   1.404695 A    
C6    C46   1.460103 S    
C43   O25   1.216664 A    
C51   H27   1.083128 S    
N9    O44   1.301401 A    
N4    O33   1.302831 A    
C66   C78   1.404528 A    
C65   C68   1.388118 A    
C72   H42   1.083541 S    
C9    H6    1.114796 S    
C49   H25   1.083177 S    
O15   C43   1.235728 A    
O4    Cr1   1.966175 S    
C18   C43   1.428862 S    
O9    C4    1.290416 A    
C11   H8    1.113396 S    
C8    C23   1.548764 S    
N5    O36   1.302505 A    
C15   H15   1.099958 S    
C14   C26   1.555179 S    
C67   H31   1.083436 S    
N12   O49   1.302046 A    
C7    H22   1.101124 S    
C47   C50   1.404819 A    
C19   C31   1.565418 S    
O19   C82   1.213444 A    
C64   C67   1.388208 A    
C57   C60   1.404482 A    
C75   C78   1.402055 A    
C24   C27   1.557462 S    
N2    O30   1.297246 A    
C29   C32   1.606922 S    
N1    O28   1.294684 A    
C48   C63   1.401848 A    
Cr3   O13   2.058142 S    
C11   C14   1.545957 S    
O11   C5    1.291629 A    
C75   H39   1.082876 S    
C66   H30   1.082973 S    
C15   H18   1.104105 S    
O4    C1    1.313812 A    
C71   H41   1.083580 S    
C58   H43   1.083111 S    
C12   C21   1.542967 S    
N6    O38   1.301899 A    
C7    C19   1.545374 S    
C32   H20   1.110208 S    
C49   C52   1.384352 A    
O8    Cr2   2.064057 S    
O1    Cr1   2.069248 S    
C31   H19   1.113751 S    
C68   C80   1.399285 A    
O2    Cr2   2.073515 S    
C47   C62   1.401505 A    
C30   C33   1.608133 S    
O11   Cr2   1.955076 S    
Cr1   O13   2.049754 S    
C33   H21   1.113499 S    
C71   C80   1.403195 A    
C53   C56   1.400032 A    
C53   H35   1.082817 S    
O5    Cr2   1.949082 S    
O10   Cr1   1.950908 S    
C10   H7    1.112644 S    
C23   C26   1.564762 S    
C28   N10   1.482480 S    
O18   C84   1.211786 A    
C69   C81   1.399790 A    
O6    Cr3   1.954194 S    
O9    Cr3   2.069212 S    
C67   C79   1.399519 A    
N10   O46   1.301116 A    
C22   N1    1.461048 S    
C27   C30   1.605785 S    
C8    H23   1.102534 S    
N7    O39   1.297644 A    
C60   H45   1.083068 S    
O20   C83   1.214742 A    
C25   C34   1.478544 S    
C37   C40   1.206047 T    
O22   C83   1.211978 A    
Cr5   O19   2.070392 S    
C55   C76   1.463708 S    
C4    C47   1.460604 S    
O23   C84   1.209327 A    
O14   Cr4   1.902212 S    
O16   C44   1.229723 A    
O7    Cr1   2.081252 S    
C59   C62   1.389204 A    
C33   N9    1.469774 S    
O17   C45   1.271212 A    
C54   C57   1.400380 A    
Cr5   O22   1.952060 S    
C46   C61   1.401462 A    
C17   C45   1.428359 S    
N2    O29   1.301100 A    
O14   Cr5   1.914062 S    
C13   H16   1.096884 S    
C70   C79   1.403259 A    
C7    H4    1.114158 S    
C57   C78   1.466500 S    
C32   N8    1.466951 S    
C52   H34   1.082836 S    
C9    H24   1.104410 S    
C39   C42   1.204231 T    
C29   N11   1.481392 S    
O3    Cr3   2.077507 S    
C74   C77   1.401350 A    
C3    C40   1.435108 S    
N8    O42   1.301397 A    
C19   C37   1.477389 S    
C10   C19   1.547445 S    
N6    O37   1.302840 A    
C31   N7    1.469178 S    
Cr5   O16   1.953748 S    
C60   C63   1.390165 A    
C25   C28   1.606433 S    
H2    C23   1.116490 S    
C28   C31   1.600320 S    
C80   C84   1.453865 S    
C64   C76   1.404434 A    
Cr4   O24   2.088791 S    
C79   C83   1.454261 S    
C65   H29   1.082988 S    
C12   C15   1.553702 S    
C64   H28   1.082991 S    
C9    C21   1.543254 S    
Cr2   O13   2.062527 S    
Cr6   O17   1.951165 S    
C29   N5    1.482202 S    
O5    C2    1.318065 A    
C1    C41   1.429575 S    
C52   C55   1.400043 A    
C20   C32   1.566940 S    
C68   H32   1.083468 S    
C12   H12   1.112704 S    
C70   C73   1.385463 A    
C22   C25   1.558818 S    
N10   O45   1.302382 A    
C73   C76   1.401150 A    
C66   C69   1.388877 A    
C24   N3    1.460836 S    
C71   C74   1.385822 A    
C73   H37   1.082898 S    
C13   H13   1.100948 S    
Cr5   O25   2.071123 S    
Cr6   O26   2.076088 S    
C11   H11   1.113830 S    
C38   C41   1.203218 T    
C50   H26   1.083164 S    
C26   C35   1.475536 S    
C51   C54   1.386012 A    
O21   C82   1.212343 A    
C55   C58   1.404048 A    
Cr4   O18   2.063727 S    
C48   C51   1.405270 A    
N9    O43   1.298203 A    
Cr6   O23   1.957044 S    
N4    O34   1.301458 A    
C58   C61   1.389134 A    
C18   C36   1.204394 T    
Cr6   O20   2.064708 S    
N11   O47   1.302488 A    
C21   C39   1.474150 S    
C70   H40   1.083550 S    
C16   C44   1.428613 S    
O12   Cr3   1.956381 S    
O14   Cr6   1.910003 S    
C20   C38   1.472976 S    
C45   O24   1.258982 A    
C10   C13   1.557649 S    
N5    O35   1.302262 A    
C9    C24   1.543578 S    
O10   C4    1.290309 A    
C74   H38   1.082905 S    
H3    C24   1.116557 S    
C13   C25   1.557197 S    
N12   O50   1.301857 A    
C17   C35   1.202985 T    
C65   C77   1.404499 A    
N8    O41   1.297087 A    
O2    C3    1.310017 A    
C16   C34   1.203970 T    
H1    C22   1.116537 S    
C56   C59   1.404121 A    
C10   H10   1.113200 S    
N11   O48   1.301931 A    
C50   C53   1.384520 A    
