data_mof_unit_25614.cif
_audit_creation_date              2012-12-10T17:37:48-0500
_audit_creation_method            fapswitch 2.2
_symmetry_space_group_name_H-M    P1
_symmetry_Int_Tables_number       1
_space_group_crystal_system       triclinic
_cell_length_a                    12.324854
_cell_length_b                    13.150014
_cell_length_c                    17.338938
_cell_angle_alpha                 105.042618
_cell_angle_beta                  74.84541
_cell_angle_gamma                 116.581442
_cell_volume                      2392.41508475

loop_
_atom_site_label
_atom_site_type_symbol
_atom_type_description
_atom_site_fract_x
_atom_site_fract_y
_atom_site_fract_z
_atom_type_partial_charge
C1    C     C_R   0.144285 0.714616 0.510942 0.784103
C2    C     C_R   0.895513 0.536826 0.797098 -0.197486
C3    C     C_R   0.923852 0.494911 0.156413 -0.149949
C4    C     C_R   0.920897 0.499706 0.237722 -0.205185
C5    C     C_R   0.111515 0.473059 0.203754 -0.202308
C6    C     C_R   0.114413 0.468338 0.122240 -0.171610
C7    C     C_R   0.022051 0.481516 0.098411 0.193166
C8    C     C_2   0.986593 0.541394 0.988076 -0.232122
C9    C     C_2   0.029724 0.479969 0.012539 -0.229936
C10   C     C_R   0.015260 0.489920 0.262057 -0.026813
C11   C     C_R   0.727206 0.979662 0.382353 -0.191873
C12   C     C_R   0.989141 0.505727 0.652221 0.783182
C13   C     C_R   0.774944 0.164402 0.470110 -0.050134
C14   C     C_R   0.183980 0.918652 0.581672 0.179995
C15   C     C_R   0.266138 0.033144 0.598846 -0.135615
C16   C     C_R   0.389075 0.069078 0.564135 -0.239134
C17   C     C_R   0.434591 0.991988 0.508413 0.078802
C18   C     C_R   0.349504 0.879425 0.481999 0.037683
C19   C     C_R   0.562009 0.024140 0.476960 0.088026
C20   C     C_R   0.601565 0.948161 0.414279 0.163024
C21   C     C_R   0.515104 0.843276 0.382552 -0.239904
C22   C     C_R   0.390967 0.810203 0.414843 -0.184164
C23   C     C_R   0.856142 0.286161 0.487610 0.803055
C24   C     C_R   0.651697 0.129954 0.506124 -0.247679
C25   C     C_R   0.813618 0.088002 0.409635 -0.193688
C26   C     C_R   0.225190 0.839521 0.522801 -0.125697
C27   C     C_R   0.640494 0.672142 0.631903 -0.268228
C28   C     C_R   0.250813 0.352444 0.389486 0.077313
C29   C     C_R   0.350017 0.320891 0.365607 -0.259752
C30   C     C_R   0.449608 0.376970 0.407121 -0.179335
C31   C     C_R   0.451313 0.465972 0.473622 -0.008698
C32   C     C_R   0.347266 0.495088 0.495887 0.267164
C33   C     C_R   0.551412 0.526389 0.518995 -0.088104
C34   C     C_R   0.011706 0.495507 0.347832 0.784408
C35   C     C_R   0.544852 0.613997 0.585890 0.173664
C36   C     C_R   0.442818 0.642120 0.606383 0.073064
C37   C     C_R   0.346710 0.583118 0.562148 -0.249308
C38   C     C_R   0.658630 0.503830 0.501161 0.034566
C39   C     C_R   0.741660 0.644431 0.611867 0.032679
C40   C     C_R   0.989200 0.516288 0.738131 -0.025639
C41   C     C_R   0.085836 0.509551 0.761904 -0.219471
C42   C     C_R   0.087554 0.520753 0.843325 -0.149065
C43   C     C_R   0.991481 0.537008 0.902115 0.194592
C44   C     C_R   0.897035 0.547523 0.878782 -0.171053
Cu1   Cu    Cu3+1 0.900140 0.524980 0.518800 0.933108
Cu2   Cu    Cu3+1 0.099860 0.475020 0.481200 0.924515
H1    H     H_    0.160592 0.496119 0.717746 0.156216
H2    H     H_    0.189897 0.456528 0.077891 0.123005
H3    H     H_    0.909178 0.113997 0.380917 0.144492
H4    H     H_    0.543452 0.786526 0.332284 0.141982
H5    H     H_    0.757989 0.922148 0.334300 0.132628
H6    H     H_    0.628589 0.189281 0.556088 0.145314
H7    H     H_    0.445413 0.159000 0.581275 0.141232
H8    H     H_    0.235898 0.095364 0.641812 0.142391
H9    H     H_    0.328080 0.730695 0.384906 0.171649
H10   H     H_    0.814084 0.687947 0.648033 0.128416
H11   H     H_    0.844340 0.510511 0.281341 0.151478
H12   H     H_    0.637430 0.738469 0.683642 0.174411
H13   H     H_    0.671735 0.439696 0.451113 0.121744
H14   H     H_    0.173963 0.308367 0.356938 0.120313
H15   H     H_    0.523538 0.348639 0.386013 0.133469
H16   H     H_    0.349691 0.252602 0.314735 0.142967
H17   H     H_    0.272749 0.609583 0.582647 0.209662
H18   H     H_    0.184836 0.464250 0.221037 0.150354
H19   H     H_    0.074014 0.428506 0.968795 0.145466
H20   H     H_    0.823082 0.561385 0.923683 0.122389
H21   H     H_    0.848559 0.500398 0.139215 0.123416
H22   H     H_    0.820784 0.543820 0.780220 0.151048
H23   H     H_    0.942121 0.592693 0.031841 0.144425
H24   H     H_    0.164405 0.517220 0.859931 0.125513
N1    N     N_R   0.749710 0.562810 0.547300 -0.176496
N2    N     N_R   0.249640 0.437820 0.453210 -0.198414
O1    O     O_R   0.025490 0.682370 0.523640 -0.567206
O2    O     O_R   0.194150 0.640180 0.491890 -0.603472
O3    O     O_R   0.905900 0.523560 0.631310 -0.589210
O4    O     O_R   0.074570 0.481370 0.599560 -0.601443
O5    O     O_R   0.805850 0.359820 0.508110 -0.584548
O6    O     O_R   0.974510 0.317630 0.476360 -0.583032
O7    O     O_R   0.925430 0.518630 0.400440 -0.587372
O8    O     O_R   0.094100 0.476440 0.368690 -0.598386
C45   C     C_3   0.054963 0.884354 0.629300 -0.850148
H25   H     H_    0.043618 0.956618 0.675772 0.214322
H26   H     H_    0.988329 0.858065 0.588008 0.249491
H27   H     H_    0.032985 0.813193 0.661776 0.226460
N3    N     N_3   0.435921 0.731828 0.672848 -0.607786
H28   H     H_    0.426860 0.793929 0.650678 0.231058
H29   H     H_    0.356445 0.696330 0.714425 0.218042

loop_
_geom_bond_atom_site_label_1
_geom_bond_atom_site_label_2
_ccdc_geom_bond_type
C24   H6    S    
Cu1   N1    S    
C41   C42   A    
C44   H20   S    
C35   C36   A    
C18   C26   A    
C8    C43   S    
Cu2   O4    S    
C45   H25   S    
C32   N2    A    
Cu1   Cu2   S    
C8    H23   S    
C6    H2    S    
C1    O2    A    
C36   C37   A    
C3    C7    A    
C30   C31   A    
C11   C25   A    
C15   C16   A    
C42   H24   S    
C13   C23   S    
Cu1   O1    S    
C16   H7    S    
C34   O8    A    
C29   H16   S    
C31   C32   A    
C2    C44   A    
C8    C9    D    
C4    H11   S    
C31   C33   A    
Cu2   N2    S    
N3    H29   S    
C21   C22   A    
C13   C25   A    
C28   N2    A    
C21   H4    S    
C45   H26   S    
C9    H19   S    
C28   H14   S    
C11   C20   A    
C15   H8    S    
Cu1   O7    S    
C27   C39   A    
Cu2   O6    S    
C16   C17   A    
C27   C35   A    
N3    H28   S    
C14   C26   A    
C5    H18   S    
C12   C40   S    
C43   C44   A    
C29   C30   A    
C34   O7    A    
C39   H10   S    
C37   H17   S    
C17   C18   A    
C41   H1    S    
C10   C34   S    
C32   C37   A    
C23   O5    A    
C6    C7    A    
C40   C41   A    
C12   O4    A    
C1    C26   S    
C12   O3    A    
C42   C43   A    
C4    C10   A    
C3    C4    A    
Cu2   O2    S    
C45   H27   S    
C7    C9    S    
C38   N1    A    
C28   C29   A    
C18   C22   A    
C3    H21   S    
C27   H12   S    
C22   H9    S    
C36   N3    S    
C2    H22   S    
C33   C38   A    
Cu1   O3    S    
C1    O1    A    
C19   C20   A    
C19   C24   A    
C5    C10   A    
Cu2   O8    S    
C5    C6    A    
C33   C35   A    
C23   O6    A    
C25   H3    S    
C11   H5    S    
C38   H13   S    
C17   C19   A    
C2    C40   A    
C20   C21   A    
C13   C24   A    
C30   H15   S    
C39   N1    A    
C14   C15   A    
Cu1   O5    S    
C14   C45   S    
