data_mof_unit_65607.cif
_audit_creation_date              2012-12-10T17:54:37-0500
_audit_creation_method            fapswitch 2.2
_symmetry_space_group_name_H-M    P1
_symmetry_Int_Tables_number       1
_space_group_crystal_system       triclinic
_cell_length_a                    18.778978
_cell_length_b                    18.897759
_cell_length_c                    18.811259
_cell_angle_alpha                 109.621581
_cell_angle_beta                  109.369203
_cell_angle_gamma                 109.501954
_cell_volume                      5133.95544873

loop_
_atom_site_label
_atom_site_type_symbol
_atom_type_description
_atom_site_fract_x
_atom_site_fract_y
_atom_site_fract_z
_atom_type_partial_charge
C1    C     C_R   0.119283 0.000684 0.618972 0.778069
C2    C     C_R   0.263249 0.258916 0.586939 0.016830
C3    C     C_R   0.191465 0.186389 0.506310 -0.058832
C4    C     C_R   0.183230 0.180901 0.427765 -0.190951
C5    C     C_R   0.244362 0.246930 0.427763 -0.196084
C6    C     C_R   0.314769 0.319979 0.506306 -0.068496
C7    C     C_R   0.171929 0.924888 0.688458 0.097721
C8    C     C_R   0.185082 0.001386 0.687068 -0.083877
C9    C     C_R   0.258493 0.080430 0.757946 -0.186919
C10   C     C_R   0.323217 0.080466 0.822211 -0.196459
C11   C     C_R   0.313189 0.001618 0.817432 -0.087354
C12   C     C_R   0.121098 0.118783 0.502296 0.773953
C13   C     C_R   0.234456 0.925137 0.753259 0.140363
C14   C     C_3   0.218700 0.839997 0.691229 -0.474894
C15   C     C_3   0.150077 0.839953 0.619970 -0.450048
C16   C     C_R   0.736538 0.753790 0.427705 0.046943
C17   C     C_R   0.816604 0.816009 0.501815 -0.080393
C18   C     C_R   0.832141 0.813106 0.579140 -0.200474
C19   C     C_R   0.767640 0.747683 0.578980 -0.189181
C20   C     C_R   0.686189 0.686268 0.502039 -0.062217
C21   C     C_R   0.673750 0.692873 0.428113 0.015390
C22   C     C_3   0.609967 0.654083 0.334510 -0.460090
C23   C     C_R   0.881521 0.000258 0.381248 0.866213
C24   C     C_3   0.681481 0.724309 0.334462 0.455014
C25   C     C_R   0.756266 0.929134 0.233388 0.048430
C26   C     C_R   0.816158 0.001914 0.315276 -0.139205
C27   C     C_R   0.810059 0.077836 0.332305 -0.270393
C28   C     C_R   0.745578 0.078234 0.267410 0.633721
C29   C     C_R   0.685223 0.001904 0.185783 -0.208840
C30   C     C_R   0.692861 0.928778 0.172279 -0.039856
C31   C     C_3   0.655863 0.836610 0.107073 0.489147
C32   C     C_3   0.727772 0.836611 0.177030 -0.434109
C33   C     C_R   0.499604 0.618267 0.618996 0.783733
C34   C     C_R   0.881421 0.881604 0.500096 0.823690
C35   C     C_R   0.381146 0.383537 0.502289 0.779254
C36   C     C_R   0.499787 0.381165 0.381318 0.837881
C37   C     C_R   0.618904 0.618974 0.500424 0.801450
C38   C     C_R   0.500057 0.118508 0.118778 0.879449
C39   C     C_R   0.380974 0.999927 0.881290 0.769385
C40   C     C_R   0.500223 0.881361 0.881308 0.770047
C41   C     C_R   0.618638 0.000100 0.118448 0.883788
C42   C     C_R   0.514564 0.762851 0.687437 0.099596
C43   C     C_R   0.501915 0.685710 0.687102 -0.075258
C44   C     C_R   0.501156 0.678414 0.758874 -0.203089
C45   C     C_R   0.277152 0.263771 0.667523 -0.265741
C46   C     C_R   0.500638 0.742614 0.823114 -0.201357
C47   C     C_R   0.504042 0.815808 0.817377 -0.086505
C48   C     C_R   0.516820 0.827416 0.752205 0.138534
C49   C     C_3   0.468476 0.848929 0.689738 -0.476297
C50   C     C_3   0.465852 0.777700 0.618517 -0.441587
C51   C     C_R   0.488772 0.311549 0.238228 0.116157
C52   C     C_R   0.498884 0.313482 0.315386 -0.179438
C53   C     C_R   0.509851 0.247361 0.327839 -0.277541
C54   C     C_R   0.509390 0.182025 0.262916 0.630945
C55   C     C_R   0.500649 0.184047 0.186204 -0.202904
C56   C     C_R   0.345411 0.337841 0.746121 0.669080
C57   C     C_R   0.491396 0.250853 0.177479 0.019341
C58   C     C_3   0.479523 0.287642 0.118635 -0.428181
C59   C     C_3   0.477536 0.357657 0.188516 -0.413027
C60   C     C_R   0.400951 0.408273 0.746094 -0.203641
C61   C     C_R   0.390491 0.403795 0.667531 -0.276821
C62   C     C_R   0.323705 0.328082 0.586938 0.102785
Cu1   Cu    Cu3+1 0.000020 0.938200 0.438210 0.957784
Cu2   Cu    Cu3+1 0.999980 0.061800 0.561790 0.999835
Cu3   Cu    Cu3+1 0.438170 0.500030 0.438220 0.964420
Cu4   Cu    Cu3+1 0.561770 0.500000 0.561810 0.969113
Cu5   Cu    Cu3+1 0.561810 0.061820 0.000030 0.993163
Cu6   Cu    Cu3+1 0.438190 0.938280 0.000080 1.052439
H1    H     H_    0.128368 0.125666 0.365981 0.153847
H2    H     H_    0.190796 0.788166 0.705576 0.209553
H3    H     H_    0.167568 0.845644 0.570378 0.215609
H4    H     H_    0.082629 0.788090 0.593255 0.199732
H5    H     H_    0.893903 0.860302 0.638778 0.147707
H6    H     H_    0.780920 0.745990 0.638803 0.160079
H7    H     H_    0.595285 0.587196 0.294129 0.142510
H8    H     H_    0.552143 0.662074 0.325587 0.242708
H9    H     H_    0.707099 0.699251 0.292392 0.065437
H10   H     H_    0.855376 0.136730 0.394950 0.189856
H11   H     H_    0.236450 0.210301 0.670798 0.161573
H12   H     H_    0.702799 0.794771 0.202610 0.258524
H13   H     H_    0.777173 0.829748 0.159749 0.143382
H14   H     H_    0.496762 0.621477 0.763058 0.148779
H15   H     H_    0.495998 0.734418 0.876011 0.184063
H16   H     H_    0.403120 0.834290 0.682245 0.186824
H17   H     H_    0.509459 0.914999 0.702990 0.211408
H18   H     H_    0.398911 0.721667 0.569788 0.214300
H19   H     H_    0.534980 0.423495 0.222094 0.186126
H20   H     H_    0.413184 0.354307 0.166685 0.208617
H21   H     H_    0.452834 0.466459 0.807175 0.170604
H22   H     H_    0.434521 0.460608 0.670932 0.168503
H23   H     H_    0.267732 0.141433 0.761376 0.179852
O1    O     O_R   0.090180 0.947810 0.537990 -0.585302
O2    O     O_R   0.552150 0.590170 0.642370 -0.593398
O3    O     O_R   0.357600 0.409850 0.447820 -0.582943
O4    O     O_R   0.461980 0.409830 0.552180 -0.585158
O5    O     O_R   0.447790 0.409860 0.357660 -0.586081
O6    O     O_R   0.552170 0.409840 0.462020 -0.577162
O7    O     O_R   0.537960 0.590200 0.447840 -0.580727
O8    O     O_R   0.642340 0.590180 0.552210 -0.588368
O9    O     O_R   0.552220 0.142430 0.090190 -0.580210
O10   O     O_R   0.447830 0.038100 0.090230 -0.553626
O11   O     O_R   0.462030 0.052220 0.909860 -0.591626
O12   O     O_R   0.090150 0.052180 0.642350 -0.587414
O13   O     O_R   0.357640 0.947890 0.909900 -0.588918
O14   O     O_R   0.552170 0.962000 0.909870 -0.591064
O15   O     O_R   0.447780 0.857670 0.909910 -0.577805
O16   O     O_R   0.642360 0.052210 0.090200 -0.574921
O17   O     O_R   0.537970 0.947880 0.090240 -0.529207
O18   O     O_R   0.090190 0.037990 0.447830 -0.585400
O19   O     O_R   0.090170 0.142360 0.552190 -0.585011
O20   O     O_R   0.909850 0.947820 0.357650 -0.590564
O21   O     O_R   0.909820 0.052190 0.462010 -0.576112
O22   O     O_R   0.909830 0.857640 0.447810 -0.599461
O23   O     O_R   0.909810 0.962010 0.552170 -0.568451
O24   O     O_R   0.447770 0.590190 0.538000 -0.582859
F1    F     F_    0.660551 0.785490 0.325142 -0.625216
F2    F     F_    0.741225 0.151964 0.284781 -0.636888
F3    F     F_    0.573176 0.784486 0.089758 -0.602708
H24   H     H_    0.661656 0.828244 0.048242 0.037214
F4    F     F_    0.357187 0.341541 0.822686 -0.667196
H25   H     H_    0.505312 0.802728 0.590714 0.206989
H26   H     H_    0.517723 0.245673 0.386856 0.191413
F5    F     F_    0.519404 0.118698 0.275877 -0.624111
H27   H     H_    0.537743 0.313252 0.111497 0.212364
H28   H     H_    0.416100 0.243362 0.056675 0.196061
H29   H     H_    0.237371 0.240375 0.365976 0.156641
H30   H     H_    0.381416 0.141464 0.874349 0.166894
H31   H     H_    0.275862 0.845565 0.682903 0.187137

loop_
_geom_bond_atom_site_label_1
_geom_bond_atom_site_label_2
_ccdc_geom_bond_type
Cu2   O12   S    
C54   F5    S    
C16   C21   A    
C41   O17   A    
C40   C47   S    
C1    C8    S    
C56   F4    S    
C19   C20   A    
C22   H8    S    
C27   H10   S    
C9    H23   S    
C12   O19   A    
C7    C8    A    
Cu3   O24   S    
C53   C54   A    
C52   C53   A    
C34   O22   A    
C15   H4    S    
C26   C27   A    
Cu4   O6    S    
C28   C29   A    
C23   O21   A    
Cu3   O7    S    
C38   O10   A    
C44   H14   S    
C28   F2    S    
C5    C6    A    
Cu2   O21   S    
C14   H31   S    
C6    C35   S    
C18   C19   A    
C23   C26   S    
C49   C50   S    
C59   H20   S    
C12   O18   A    
C3    C12   S    
C54   C55   A    
Cu3   O5    S    
C38   C55   S    
C47   C48   A    
C45   C56   A    
C8    C9    A    
Cu1   O1    S    
C36   O6    A    
C51   C57   A    
C9    C10   A    
C1    O12   A    
C4    H1    S    
C36   C52   S    
C25   C32   S    
C7    C15   S    
C16   C24   S    
C21   C22   S    
C14   H2    S    
C50   H25   S    
Cu6   O15   S    
C22   H7    S    
C37   O7    A    
C44   C46   A    
C2    C45   A    
C33   O24   A    
Cu2   O23   S    
Cu1   Cu2   S    
Cu5   Cu6   S    
C33   C43   S    
C49   H17   S    
C10   H30   S    
C39   O13   A    
Cu6   O10   S    
C38   O9    A    
C16   C17   A    
C58   C59   S    
C60   H21   S    
C56   C60   A    
C60   C61   A    
Cu4   O8    S    
Cu1   O18   S    
C43   C44   A    
C31   F3    S    
C29   C30   A    
C32   H13   S    
C32   H12   S    
C36   O5    A    
Cu2   O19   S    
C31   C32   S    
C17   C18   A    
C45   H11   S    
C42   C48   A    
C11   C39   S    
C31   H24   S    
Cu5   O9    S    
C42   C50   S    
Cu4   O2    S    
Cu3   O3    S    
C24   F1    S    
C1    O1    A    
C55   C57   A    
C22   C24   S    
C51   C59   S    
C42   C43   A    
C3    C4    A    
C37   O8    A    
C15   H3    S    
C61   H22   S    
C49   H16   S    
C39   O11   A    
C40   O15   A    
C35   O3    A    
C25   C30   A    
C46   C47   A    
C48   C49   S    
C41   O16   A    
C29   C41   S    
C19   H6    S    
Cu5   O14   S    
Cu6   O13   S    
C4    C5    A    
C33   O2    A    
C35   O4    A    
C34   O23   A    
C23   O20   A    
C58   H27   S    
C53   H26   S    
C18   H5    S    
C6    C62   A    
C2    C3    A    
C25   C26   A    
C51   C52   A    
C20   C37   S    
C11   C13   A    
Cu5   O16   S    
C57   C58   S    
C30   C31   S    
Cu1   O20   S    
C61   C62   A    
C5    H29   S    
C59   H19   S    
C10   C11   A    
C50   H18   S    
C46   H15   S    
Cu1   O22   S    
C24   H9    S    
C7    C13   A    
C20   C21   A    
C58   H28   S    
Cu3   Cu4   S    
C17   C34   S    
C27   C28   A    
C14   C15   S    
C40   O14   A    
Cu6   O17   S    
C13   C14   S    
C2    C62   A    
Cu5   O11   S    
Cu4   O4    S    
