data_mof_unit_18090.cif
_audit_creation_date              2012-12-10T17:28:38-0500
_audit_creation_method            fapswitch 2.2
_symmetry_space_group_name_H-M    P1
_symmetry_Int_Tables_number       1
_space_group_crystal_system       triclinic
_cell_length_a                    10.639951
_cell_length_b                    12.084609
_cell_length_c                    12.861397
_cell_angle_alpha                 92.859924
_cell_angle_beta                  91.143953
_cell_angle_gamma                 85.614145
_cell_volume                      1646.60104301

loop_
_atom_site_label
_atom_site_type_symbol
_atom_type_description
_atom_site_fract_x
_atom_site_fract_y
_atom_site_fract_z
_atom_type_partial_charge
C1    C     C_R   0.499037 0.521606 0.700186 0.844459
C2    C     C_R   0.461639 0.556030 0.131149 -0.293108
C3    C     C_R   0.526610 0.450365 0.975292 0.188139
C4    C     C_R   0.473377 0.549634 0.024707 0.188142
C5    C     C_R   0.372430 0.960413 0.412193 -0.316471
C6    C     C_R   0.627582 0.039587 0.587798 -0.316462
C7    C     C_R   0.383547 0.843960 0.418872 0.326322
C8    C     C_R   0.616457 0.156041 0.581126 0.326300
C9    C     C_R   0.557212 0.856218 0.536516 -0.080260
C10   C     C_R   0.442795 0.143779 0.463474 -0.080239
C11   C     C_R   0.546667 0.973703 0.531424 0.050717
C12   C     C_R   0.500958 0.478394 0.299814 0.844459
C13   C     C_R   0.453343 0.026295 0.468566 0.050720
C14   C     C_R   0.738997 0.499607 0.499811 0.879819
C15   C     C_R   0.261004 0.500392 0.500184 0.879826
C16   C     C_R   0.865111 0.499174 0.307234 -0.145965
C17   C     C_R   0.134877 0.500874 0.692775 -0.145960
C18   C     C_R   0.928260 0.499730 0.213375 -0.141479
C19   C     C_R   0.071707 0.500432 0.786638 -0.141478
C20   C     C_R   0.058824 0.500580 0.213541 -0.147904
C21   C     C_R   0.941139 0.499638 0.786468 -0.147896
C22   C     C_R   0.126288 0.500759 0.307549 -0.166290
C23   C     C_R   0.504170 0.465457 0.188670 -0.049363
C24   C     C_R   0.873688 0.499383 0.692451 -0.166279
C25   C     C_R   0.063390 0.500762 0.403778 0.068241
C26   C     C_R   0.936600 0.499283 0.596219 0.068215
C27   C     C_R   0.932252 0.499821 0.403622 0.064248
C28   C     C_R   0.067743 0.500197 0.596378 0.064248
C29   C     C_R   0.128539 0.501028 0.500152 -0.187746
C30   C     C_R   0.871459 0.498972 0.499842 -0.187743
C31   C     C_3   0.711786 0.217944 0.644972 -0.395552
C32   C     C_3   0.843107 0.200283 0.597920 -0.844902
C33   C     C_3   0.288211 0.782060 0.355029 -0.395582
C34   C     C_R   0.495820 0.534542 0.811329 -0.049378
C35   C     C_3   0.156892 0.799738 0.402076 -0.844927
C36   C     C_R   0.433558 0.641217 0.967082 -0.232019
C37   C     C_R   0.566429 0.358781 0.032917 -0.231997
C38   C     C_R   0.444909 0.633700 0.859976 -0.207248
C39   C     C_R   0.555080 0.366299 0.140023 -0.207232
C40   C     C_R   0.538349 0.443968 0.868850 -0.293088
H1    H     H_    0.299829 0.999452 0.362844 0.149704
H2    H     H_    0.411287 0.703931 0.815231 0.165990
H3    H     H_    0.891884 0.499459 0.859312 0.137155
H4    H     H_    0.108061 0.500864 0.140698 0.137151
H5    H     H_    0.227679 0.500928 0.303930 0.121137
H6    H     H_    0.772293 0.499252 0.696067 0.121141
H7    H     H_    0.392920 0.717632 0.004579 0.139940
H8    H     H_    0.607068 0.282366 0.995420 0.139940
H9    H     H_    0.370873 0.184030 0.414542 0.139833
H10   H     H_    0.629130 0.815965 0.585438 0.139849
H11   H     H_    0.878980 0.111659 0.599748 0.245627
H12   H     H_    0.700190 0.000549 0.637142 0.149708
H13   H     H_    0.840927 0.225569 0.516047 0.277643
H14   H     H_    0.909442 0.250940 0.643680 0.257667
H15   H     H_    0.686224 0.306826 0.654942 0.254865
H16   H     H_    0.716287 0.187601 0.725280 0.168089
H17   H     H_    0.159059 0.774440 0.483941 0.277661
H18   H     H_    0.121047 0.888368 0.400255 0.245631
H19   H     H_    0.090540 0.749109 0.356300 0.257675
H20   H     H_    0.283715 0.812394 0.274721 0.168091
H21   H     H_    0.313770 0.693181 0.345061 0.254853
H22   H     H_    0.763695 0.498059 0.303388 0.132569
H23   H     H_    0.236298 0.501955 0.696623 0.132571
H24   H     H_    0.875697 0.499257 0.140394 0.139824
H25   H     H_    0.124257 0.500958 0.859627 0.139822
H26   H     H_    0.420792 0.632151 0.169209 0.147553
H27   H     H_    0.579197 0.367848 0.830791 0.147561
H28   H     H_    0.588704 0.296068 0.184768 0.165986
N1    N     N_R   0.523130 0.207800 0.519340 -0.117464
N2    N     N_R   0.476870 0.792200 0.480660 -0.117466
O1    O     O_R   0.506170 0.421700 0.658830 -0.646504
O2    O     O_R   0.493830 0.578300 0.341170 -0.646508
O3    O     O_R   0.491330 0.609310 0.646410 -0.619626
O4    O     O_R   0.508670 0.390690 0.353590 -0.619625
O5    O     O_R   0.690650 0.406190 0.506220 -0.626124
O6    O     O_R   0.309350 0.593810 0.493780 -0.626123
O7    O     O_R   0.675800 0.593810 0.493800 -0.612997
O8    O     O_R   0.324200 0.406190 0.506200 -0.612997
Zn1   Zn    Zn3+2 0.509910 0.374730 0.508290 0.931458
Zn2   Zn    Zn3+2 0.490090 0.625270 0.491710 0.931456

loop_
_geom_bond_atom_site_label_1
_geom_bond_atom_site_label_2
_ccdc_geom_bond_type
C4    C36   A    
C12   O4    A    
C39   H28   S    
C7    N2    A    
O1    Zn1   S    
C12   C23   S    
C8    N1    A    
C1    O1    A    
C35   H18   S    
C34   C40   A    
C28   C29   A    
C8    C31   S    
C24   C26   A    
C38   H2    S    
C15   O8    A    
C36   H7    S    
C35   H19   S    
C14   O7    A    
C17   C19   A    
C21   H3    S    
C22   C25   A    
C31   H16   S    
C5    C13   A    
C16   C27   A    
C15   O6    A    
C12   O2    A    
C27   C30   A    
C7    C33   S    
C16   H22   S    
C14   C30   S    
C32   H14   S    
C20   H4    S    
C1    C34   S    
C15   C29   S    
C25   C29   A    
N2    Zn2   S    
C9    N2    A    
C6    C11   A    
C5    C7    A    
O8    Zn1   S    
C6    C8    A    
C40   H27   S    
O2    Zn2   S    
C2    C4    A    
C32   H11   S    
C31   C32   S    
C37   H8    S    
C9    C11   A    
C31   H15   S    
C33   H21   S    
C20   C22   A    
C3    C40   A    
C26   C30   A    
C33   H20   S    
O4    Zn1   S    
N1    Zn1   S    
C3    C4    A    
C32   H13   S    
O7    Zn2   S    
C5    H1    S    
C19   C21   A    
C34   C38   A    
C17   C28   A    
C9    H10   S    
O6    Zn2   S    
C2    H26   S    
C10   C13   A    
C25   C27   A    
C26   C28   A    
C35   H17   S    
C1    O3    A    
C14   O5    A    
C36   C38   A    
C24   H6    S    
C37   C39   A    
C17   H23   S    
C11   C13   A    
C18   H24   S    
C23   C39   A    
C33   C35   S    
O3    Zn2   S    
C19   H25   S    
C18   C20   A    
C10   N1    A    
C22   H5    S    
C3    C37   A    
C16   C18   A    
C21   C24   A    
C2    C23   A    
C6    H12   S    
C10   H9    S    
O5    Zn1   S    
