data_mof_unit_43651.cif
_audit_creation_date              2012-12-10T18:35:18-0500
_audit_creation_method            fapswitch 2.2
_symmetry_space_group_name_H-M    P1
_symmetry_Int_Tables_number       1
_space_group_crystal_system       triclinic
_cell_length_a                    14.9409
_cell_length_b                    15.52805
_cell_length_c                    16.591388
_cell_angle_alpha                 92.507255
_cell_angle_beta                  100.133775
_cell_angle_gamma                 98.170544
_cell_volume                      3741.39230884

loop_
_atom_site_label
_atom_site_type_symbol
_atom_type_description
_atom_site_fract_x
_atom_site_fract_y
_atom_site_fract_z
_atom_type_partial_charge
C1    C     C_R   0.558054 0.662643 0.514189 1.038494
C2    C     C_R   0.441924 0.337396 0.485590 0.895391
C3    C     C_R   0.594713 0.756452 0.523334 -0.207361
C4    C     C_R   0.405411 0.243586 0.474609 -0.236105
C5    C     C_R   0.718569 0.879622 0.538026 0.341886
C6    C     C_R   0.282427 0.119055 0.453689 0.341542
C7    C     C_R   0.688193 0.791918 0.553130 0.344570
C8    C     C_R   0.312688 0.207669 0.441235 0.229039
C9    C     C_R   0.531642 0.812650 0.501108 -0.115379
C10   C     C_R   0.468552 0.187625 0.497511 -0.173396
C11   C     C_R   0.557199 0.902042 0.512743 0.051222
C12   C     C_R   0.444462 0.098566 0.482128 0.086502
C13   C     C_R   0.651311 0.935953 0.519668 -0.107565
C14   C     C_R   0.350295 0.063544 0.473191 -0.079696
C15   C     C_R   0.489385 0.957298 0.507199 -0.042754
C16   C     C_R   0.513131 0.044104 0.487752 -0.057294
C17   C     C_R   0.604912 0.073060 0.476315 0.391640
C18   C     C_R   0.398336 0.928874 0.520202 0.299617
C19   C     C_R   0.673734 0.023184 0.502762 -0.118597
C20   C     C_R   0.328623 0.976579 0.491219 -0.134904
C21   C     C_R   0.172165 0.643200 0.386190 0.303697
C22   C     C_R   0.829995 0.363374 0.621104 0.362818
C23   C     C_R   0.511462 0.498767 0.349589 0.972929
C24   C     C_R   0.487935 0.499855 0.650812 0.949350
C25   C     C_R   0.256674 0.613667 0.400890 -0.001904
C26   C     C_R   0.743220 0.387286 0.600162 -0.004165
C27   C     C_R   0.207861 0.515276 0.495148 0.092706
C28   C     C_R   0.794456 0.489239 0.509806 0.036450
C29   C     C_R   0.119037 0.537722 0.480631 -0.027987
C30   C     C_R   0.885408 0.473369 0.531691 -0.039661
C31   C     C_R   0.101592 0.603978 0.425627 -0.021732
C32   C     C_R   0.902784 0.407801 0.587435 -0.009550
C33   C     C_R   0.047703 0.495930 0.518251 0.125387
C34   C     C_R   0.958362 0.519436 0.498879 0.108249
C35   C     C_R   0.944843 0.588718 0.447844 -0.161785
C36   C     C_R   0.062574 0.430748 0.573860 -0.157764
C37   C     C_R   0.014635 0.629514 0.411884 -0.063973
C38   C     C_R   0.991995 0.388403 0.607933 -0.053999
C39   C     C_R   0.514304 0.488917 0.263336 -0.181275
C40   C     C_R   0.471900 0.476486 0.731982 -0.229143
C41   C     C_R   0.482452 0.405865 0.225413 -0.185782
C42   C     C_R   0.511651 0.406003 0.764187 -0.224684
C43   C     C_R   0.484080 0.389787 0.143630 -0.160180
C44   C     C_R   0.490978 0.373359 0.835765 -0.186695
C45   C     C_R   0.513240 0.457651 0.097432 -0.000616
C46   C     C_R   0.426096 0.407021 0.873916 0.025285
C47   C     C_R   0.542929 0.543967 0.133695 0.362081
C48   C     C_R   0.376586 0.470599 0.837330 0.395883
C49   C     C_R   0.550018 0.558327 0.220077 0.187466
C50   C     C_R   0.406810 0.512488 0.770622 0.194542
C51   C     C_2   0.511054 0.436571 0.010638 -0.114673
C52   C     C_2   0.433369 0.397787 0.961858 -0.112729
H1    H     H_    0.457853 0.352646 0.259943 0.191744
H2    H     H_    0.560228 0.376677 0.734612 0.197675
H3    H     H_    0.773069 0.533629 0.464983 0.175249
H4    H     H_    0.229640 0.469230 0.537966 0.122815
H5    H     H_    0.880938 0.614189 0.434495 0.193332
H6    H     H_    0.128334 0.410369 0.593357 0.143284
H7    H     H_    0.372533 0.376397 0.987304 0.223608
H8    H     H_    0.569457 0.464438 0.984265 0.209281
H9    H     H_    0.528827 0.324431 0.863885 0.196112
H10   H     H_    0.461446 0.324043 0.115833 0.191354
H11   H     H_    0.743858 0.051846 0.502966 0.247531
H12   H     H_    0.258944 0.947519 0.492198 0.241454
H13   H     H_    0.538225 0.213226 0.526835 0.216630
H14   H     H_    0.460889 0.787035 0.475121 0.219937
N1    N     N_R   0.271750 0.551950 0.454510 -0.122307
N2    N     N_R   0.728250 0.448050 0.545490 -0.137835
O1    O     O_R   0.615140 0.606020 0.522930 -0.551971
O2    O     O_R   0.384860 0.393980 0.477070 -0.587848
O3    O     O_R   0.468580 0.639400 0.493740 -0.593293
O4    O     O_R   0.531420 0.360600 0.506260 -0.614450
O5    O     O_R   0.581950 0.481350 0.400520 -0.593678
O6    O     O_R   0.418050 0.518650 0.599480 -0.566408
O7    O     O_R   0.435380 0.514730 0.371330 -0.596656
O8    O     O_R   0.564620 0.485270 0.628670 -0.629866
Zn1   Zn    Zn3+2 0.597860 0.477710 0.519490 1.031082
Zn2   Zn    Zn3+2 0.402140 0.522290 0.480510 1.071954
S1    S     S_3+6 0.635121 0.158878 0.413799 0.055120
O9    O     O_2   0.680473 0.239128 0.467460 -0.329748
O10   O     O_2   0.702371 0.131991 0.363618 -0.200115
O11   O     O_3   0.542195 0.180965 0.349409 -0.529303
H15   H     H_    0.561609 0.239015 0.330230 0.379902
S2    S     S_3+6 0.373391 0.852257 0.592778 0.100141
O12   O     O_2   0.459713 0.842790 0.651443 -0.191562
O13   O     O_2   0.306892 0.883985 0.641245 -0.207605
O14   O     O_3   0.325571 0.754695 0.545098 -0.513040
H16   H     H_    0.260578 0.760746 0.524532 0.367056
H17   H     H_    0.998584 0.680855 0.372411 0.234246
H18   H     H_    0.008862 0.339810 0.650377 0.223596
H19   H     H_    0.686074 0.356430 0.625794 0.179296
H20   H     H_    0.312574 0.641857 0.372250 0.196353
S3    S     S_3+6 0.159781 0.730425 0.321667 0.047420
O15   O     O_2   0.085497 0.700544 0.248257 -0.217196
O16   O     O_2   0.133598 0.805106 0.368566 -0.271748
O17   O     O_3   0.258970 0.764266 0.289778 -0.545683
H21   H     H_    0.248261 0.817205 0.260570 0.415918
S4    S     S_3+6 0.843044 0.277400 0.687028 0.052209
O18   O     O_2   0.879956 0.206273 0.644623 -0.240288
O19   O     O_2   0.909478 0.311401 0.764512 -0.248695
O20   O     O_3   0.741317 0.236322 0.710851 -0.569770
H22   H     H_    0.753827 0.185476 0.742695 0.409331
S5    S     S_3+6 0.376335 0.615841 0.743567 0.151786
O21   O     O_2   0.289851 0.602426 0.679731 -0.206363
O22   O     O_2   0.360883 0.667882 0.817048 -0.159707
O23   O     O_3   0.460996 0.673498 0.704900 -0.461555
H23   H     H_    0.515058 0.682090 0.750159 0.360984
S6    S     S_3+6 0.603151 0.659405 0.276357 0.093808
O24   O     O_2   0.659409 0.641377 0.356409 -0.308487
O25   O     O_2   0.666378 0.714287 0.231285 -0.127051
O26   O     O_3   0.521043 0.716236 0.297023 -0.522992
H24   H     H_    0.470430 0.703195 0.248896 0.379871
S7    S     S_3+6 0.563036 0.632455 0.070244 0.108643
O27   O     O_2   0.529381 0.711679 0.102141 -0.194291
O28   O     O_2   0.664610 0.652970 0.071106 -0.223255
O29   O     O_3   0.508372 0.608822 0.972516 -0.544082
H25   H     H_    0.531670 0.657975 0.941967 0.402334
S8    S     S_3+6 0.278098 0.494731 0.875740 0.105409
O30   O     O_2   0.307996 0.561314 0.947462 -0.189827
O31   O     O_2   0.211670 0.528925 0.810589 -0.203168
O32   O     O_3   0.223447 0.403410 0.906920 -0.554164
H26   H     H_    0.174006 0.422785 0.932641 0.409766
S9    S     S_3+6 0.242176 0.266217 0.372391 0.137985
O33   O     O_2   0.300717 0.325570 0.326579 -0.278026
O34   O     O_2   0.175703 0.203711 0.310640 -0.144506
O35   O     O_3   0.182833 0.326448 0.424034 -0.484706
H27   H     H_    0.201729 0.315882 0.482575 0.334432
S10   S     S_3+6 0.759402 0.734787 0.622394 0.115550
O36   O     O_2   0.807496 0.677329 0.574840 -0.280720
O37   O     O_2   0.829749 0.797809 0.680466 -0.170442
O38   O     O_3   0.694865 0.673042 0.678135 -0.555959
H28   H     H_    0.734558 0.631580 0.702923 0.388352
S11   S     S_3+6 0.836815 0.915773 0.534330 0.128466
O39   O     O_2   0.843405 0.959551 0.456063 -0.246045
O40   O     O_2   0.877352 0.980266 0.606157 -0.210179
O41   O     O_3   0.898734 0.833315 0.536325 -0.447335
H29   H     H_    0.962353 0.861325 0.535364 0.410951
S12   S     S_3+6 0.163442 0.079801 0.452139 0.100025
O42   O     O_2   0.129204 0.012838 0.381171 -0.196178
O43   O     O_2   0.153684 0.037781 0.530723 -0.267289
O44   O     O_3   0.097074 0.158903 0.443994 -0.471683
H30   H     H_    0.033728 0.128523 0.442236 0.419682

loop_
_geom_bond_atom_site_label_1
_geom_bond_atom_site_label_2
_ccdc_geom_bond_type
C15   C18   A    
O14   H16   S    
C6    S12   S    
S3    O15   D    
C22   S4    S    
C29   C33   A    
O2    Zn2   S    
O1    Zn1   S    
O26   H24   S    
C25   N1    A    
S2    O14   S    
C4    C8    A    
S10   O36   D    
S9    O33   D    
C39   C41   A    
O29   H25   S    
C5    S11   S    
C21   C31   A    
C1    O3    A    
C22   C32   A    
C35   C37   A    
S2    O13   D    
C36   H6    S    
C23   C39   S    
S9    O34   D    
C27   C29   A    
O23   H23   S    
C45   C51   S    
C15   C16   A    
C46   C52   S    
C17   S1    S    
C33   C36   A    
S6    O24   D    
C34   C35   A    
C9    H14   S    
C24   C40   S    
S8    O30   D    
C11   C15   A    
C12   C16   A    
C19   H11   S    
C16   C17   A    
S11   O41   S    
C18   S2    S    
C32   C38   A    
C7    S10   S    
C5    C13   A    
S7    O29   S    
C40   C42   A    
C50   S5    S    
S3    O16   D    
C41   C43   A    
N1    Zn2   S    
C42   C44   A    
C23   O5    A    
C2    O4    A    
C28   H3    S    
C44   C46   A    
C49   S6    S    
C45   C47   A    
C46   C48   A    
C13   C19   A    
C51   C52   D    
O20   H22   S    
C14   C20   A    
S2    O12   D    
C47   C49   A    
C5    C7    A    
C30   C34   A    
C27   H4    S    
C24   O8    A    
S9    O35   S    
C6    C8    A    
C26   H19   S    
C1    O1    A    
C31   C37   A    
C1    C3    S    
S8    O32   S    
C20   H12   S    
C2    C4    S    
O4    Zn1   S    
C3    C9    A    
C52   H7    S    
C6    C14   A    
C43   C45   A    
O17   H21   S    
C33   C34   A    
S5    O22   D    
O8    Zn1   S    
C9    C11   A    
C41   H1    S    
O32   H26   S    
C10   C12   A    
C39   C49   A    
C12   C14   A    
S4    O18   D    
S3    O17   S    
S4    O19   D    
O6    Zn2   S    
S11   O39   D    
C4    C10   A    
O38   H28   S    
S10   O38   S    
S1    O10   D    
S7    O27   D    
C10   H13   S    
N2    Zn1   S    
C47   S7    S    
C21   C25   A    
C25   H20   S    
C28   N2    A    
C23   O7    A    
O41   H29   S    
S12   O44   S    
S10   O37   D    
S1    O11   S    
C48   S8    S    
C8    S9    S    
S12   O43   D    
C44   H9    S    
S4    O20   S    
C38   H18   S    
C3    C7    A    
S6    O26   S    
C37   H17   S    
C35   H5    S    
C26   N2    A    
C28   C30   A    
C29   C31   A    
O44   H30   S    
C42   H2    S    
C36   C38   A    
C30   C32   A    
C11   C13   A    
C24   O6    A    
C21   S3    S    
O35   H27   S    
C40   C50   A    
C48   C50   A    
C17   C19   A    
S6    O25   D    
S5    O23   S    
C18   C20   A    
O7    Zn2   S    
S8    O31   D    
C27   N1    A    
S12   O42   D    
S1    O9    D    
O11   H15   S    
C22   C26   A    
S5    O21   D    
S11   O40   D    
O5    Zn1   S    
C51   H8    S    
C2    O2    A    
O3    Zn2   S    
C43   H10   S    
S7    O28   D    
