data_mof_unit_5665.cif
_audit_creation_date              2012-12-11T14:15:22-0500
_audit_creation_method            fapswitch 2.2
_symmetry_space_group_name_H-M    P1
_symmetry_Int_Tables_number       1
_space_group_crystal_system       triclinic
_cell_length_a                    8.211569
_cell_length_b                    15.120729
_cell_length_c                    16.530224
_cell_angle_alpha                 96.077684
_cell_angle_beta                  93.301879
_cell_angle_gamma                 99.294683
_cell_volume                      2008.29776711

loop_
_atom_site_label
_atom_site_type_symbol
_atom_type_description
_atom_site_fract_x
_atom_site_fract_y
_atom_site_fract_z
_atom_type_partial_charge
Ba1   Ba    Ba6+2 0.854080 0.543710 0.461380 1.669627
Ba2   Ba    Ba6+2 0.335760 0.456360 0.538630 1.666569
C1    C     C_3   0.701042 0.876185 0.241278 -0.194772
C2    C     C_R   0.158844 0.481925 0.236364 0.069843
C3    C     C_R   0.106683 0.467316 0.151073 -0.012495
C4    C     C_3   0.185411 0.856234 0.258814 0.333531
C5    C     C_R   0.214960 0.506507 0.094049 0.353618
C6    C     C_R   0.376115 0.549330 0.123557 -0.065139
C7    C     C_R   0.425564 0.561151 0.207207 -0.028579
C8    C     C_R   0.083493 0.521617 0.843145 -0.050011
C9    C     C_R   0.029286 0.511590 0.759440 0.038065
C10   C     C_R   0.978625 0.483643 0.900312 0.323765
C11   C     C_R   0.873312 0.462093 0.733115 -0.278449
C12   C     C_3   0.658393 0.785230 0.274155 0.397592
C13   C     C_R   0.765142 0.428341 0.789037 -0.057092
C14   C     C_R   0.817989 0.438742 0.872275 -0.150711
C15   C     C_R   0.764374 0.230632 0.531925 -0.292768
C16   C     C_3   0.148511 0.861192 0.167109 0.364902
C17   C     C_R   0.864167 0.169473 0.554146 0.009369
C18   C     C_R   0.808433 0.075604 0.533207 -0.019661
C19   C     C_R   0.637440 0.043688 0.505294 0.015956
C20   C     C_R   0.543709 0.109122 0.481813 -0.138710
C21   C     C_R   0.611848 0.200392 0.489353 0.030413
C22   C     C_R   0.405661 0.912132 0.448474 -0.149067
C23   C     C_3   0.453984 0.325169 0.290222 0.278202
C24   C     C_R   0.340564 0.819997 0.435045 -0.026805
C25   C     C_R   0.575548 0.787487 0.515434 0.060609
C26   C     C_R   0.630294 0.880256 0.535495 -0.138301
C27   C     C_R   0.558070 0.944450 0.495626 0.022948
C28   C     C_3   0.245499 0.729160 0.639100 0.319742
C29   C     C_R   0.431413 0.757728 0.464396 -0.261973
C30   C     C_3   0.275013 0.831185 0.660535 -0.396168
C31   C     C_3   0.942263 0.270966 0.360859 0.325991
C32   C     C_3   0.900078 0.169506 0.335298 -0.235851
C33   C     C_3   0.735641 0.653267 0.707055 0.292858
C34   C     C_3   0.431782 0.300511 0.198179 -0.358401
C35   C     C_3   0.764350 0.677886 0.799008 -0.359296
C36   C     C_3   0.054423 0.127114 0.321453 -0.390198
C37   C     C_3   0.654365 0.954130 0.295508 -0.529332
C38   C     C_3   0.260156 0.941794 0.139265 -0.476150
C39   C     C_3   0.021637 0.062951 0.826361 -0.391263
C40   C     C_3   0.541396 0.074867 0.784896 -0.391376
C41   C     C_3   0.944523 0.406593 0.120530 -0.299870
C42   C     C_3   0.938571 0.015866 0.525719 -0.384582
C43   C     C_3   0.969233 0.191653 0.745351 0.384375
C44   C     C_3   0.990421 0.160522 0.830549 0.363890
C45   C     C_3   0.527276 0.208316 0.703152 0.471928
C46   C     C_3   0.461935 0.109095 0.711259 -0.162958
C47   C     C_R   0.314863 0.530585 0.262612 -0.284646
H1    H     H_    0.727465 0.788545 0.334527 0.062135
H2    H     H_    0.629504 0.596941 0.694151 0.065822
H3    H     H_    0.875459 0.731040 0.813742 0.143435
H4    H     H_    0.783514 0.618015 0.829138 0.057542
H5    H     H_    0.655002 0.703203 0.823287 0.133430
H6    H     H_    0.523695 0.770053 0.281263 -0.036983
H7    H     H_    0.639715 0.872581 0.179123 0.137647
H8    H     H_    0.336411 0.342791 0.311613 0.020077
H9    H     H_    0.554311 0.384633 0.303829 0.055211
H10   H     H_    0.330230 0.242084 0.182129 0.138019
H11   H     H_    0.400428 0.358544 0.168288 0.055943
H12   H     H_    0.379198 0.852058 0.708140 0.123845
H13   H     H_    0.548233 0.282821 0.175139 0.123829
H14   H     H_    0.835997 0.891517 0.237596 0.117190
H15   H     H_    0.931245 0.259252 0.752282 -0.005892
H16   H     H_    0.869761 0.141681 0.710091 -0.125334
H17   H     H_    0.871547 0.162722 0.858891 -0.012137
H18   H     H_    0.662232 0.218831 0.698926 -0.179473
H19   H     H_    0.469430 0.222015 0.644782 0.065197
H20   H     H_    0.484307 0.066702 0.655265 0.052452
H21   H     H_    0.309518 0.838183 0.266900 -0.006385
H22   H     H_    0.326647 0.099717 0.714848 0.149133
H23   H     H_    0.305421 0.865120 0.605857 0.066349
H24   H     H_    0.203826 0.560775 0.863669 0.104047
H25   H     H_    0.463028 0.574383 0.081062 0.105761
H26   H     H_    0.733702 0.412674 0.915488 0.099119
H27   H     H_    0.354606 0.539893 0.326967 0.061958
H28   H     H_    0.831852 0.454994 0.669082 0.070345
H29   H     H_    0.333933 0.956318 0.421458 0.047334
H30   H     H_    0.729605 0.901252 0.582634 0.074929
H31   H     H_    0.182406 0.923264 0.293048 -0.106382
H32   H     H_    0.418948 0.091569 0.454698 0.076702
H33   H     H_    0.383829 0.686229 0.452731 0.068546
H34   H     H_    0.161732 0.853108 0.683606 0.125805
H35   H     H_    0.811061 0.302337 0.541646 0.063150
H36   H     H_    0.019178 0.870474 0.154650 0.047353
H37   H     H_    0.361774 0.707570 0.621173 -0.001584
H38   H     H_    0.149814 0.711206 0.587264 0.070914
H39   H     H_    0.125005 0.158515 0.273536 0.156826
H40   H     H_    0.135193 0.135589 0.378835 0.137899
H41   H     H_    0.017376 0.053844 0.301390 0.109983
H42   H     H_    0.522189 0.942413 0.306264 0.129926
H43   H     H_    0.730777 0.965339 0.354303 0.149571
H44   H     H_    0.677090 0.015486 0.264143 0.148497
H45   H     H_    0.829711 0.296126 0.379703 -0.009210
H46   H     H_    0.239007 0.005634 0.173685 0.089602
H47   H     H_    0.392494 0.935983 0.149495 0.126024
H48   H     H_    0.231589 0.945491 0.073329 0.161649
H49   H     H_    0.315906 0.150154 0.937883 0.325259
H50   H     H_    0.144162 0.056867 0.804108 0.139243
H51   H     H_    0.017298 0.040165 0.888025 0.128028
H52   H     H_    0.925904 0.017007 0.784896 0.069345
H53   H     H_    0.563475 0.126908 0.838626 0.187714
H54   H     H_    0.459313 0.014477 0.801049 0.119983
H55   H     H_    0.660130 0.054339 0.769542 0.099886
H56   H     H_    0.038018 0.285297 0.412807 0.065636
H57   H     H_    0.887341 0.365957 0.166200 0.118930
H58   H     H_    0.852793 0.447267 0.099720 0.151906
H59   H     H_    0.964982 0.357314 0.069257 0.166943
H60   H     H_    0.043574 0.047835 0.494043 0.125575
H61   H     H_    0.984118 0.001585 0.586752 0.108163
H62   H     H_    0.893081 0.953384 0.484908 0.147119
H63   H     H_    0.423587 0.779116 0.070213 0.340565
H64   H     H_    0.818384 0.157719 0.277938 0.133586
H65   H     H_    0.831680 0.136108 0.382353 0.063235
H66   H     H_    0.847861 0.631922 0.683277 0.003669
N1    N     N_2   0.174075 0.499822 0.007142 -0.169736
N2    N     N_2   0.023325 0.493889 0.986350 -0.196829
O1    O     O_2   0.870790 0.455700 0.303190 -0.460348
O2    O     O_2   0.210811 0.184720 0.557399 -0.513267
O3    O     O_3   0.115379 0.196306 0.704909 -0.569677
O4    O     O_3   0.120480 0.453880 0.403310 -0.495202
O5    O     O_3   0.582150 0.607760 0.542240 -0.496693
O6    O     O_2   0.333990 0.280210 0.458400 -0.462283
O7    O     O_3   0.495030 0.251205 0.326818 -0.644215
O8    O     O_2   0.423913 0.432128 0.788690 -0.418580
O9    O     O_3   0.485733 0.265867 0.768766 -0.512714
O10   O     O_3   0.662860 0.618850 0.354340 -0.496141
O11   O     O_2   0.762835 0.555946 0.212328 -0.443767
O12   O     O_3   0.702672 0.729380 0.672131 -0.634085
O13   O     O_3   0.997073 0.311397 0.293131 -0.649375
O14   O     O_3   0.705927 0.719194 0.218330 -0.538168
O15   O     O_2   0.855710 0.719820 0.541650 -0.463817
O16   O     O_3   0.086210 0.664250 0.395340 -0.446005
O17   O     O_2   0.998470 0.817883 0.440399 -0.509524
O18   O     O_2   0.089696 0.241386 0.982047 -0.340833
O19   O     O_2   0.173118 0.327243 0.869868 -0.248088
O20   O     O_3   0.326510 0.195735 0.898806 -0.480691
O21   O     O_2   0.070045 0.679877 0.138250 -0.230523
O22   O     O_2   0.116314 0.761848 0.019737 -0.305308
O23   O     O_3   0.068143 0.790789 0.287192 -0.548553
O24   O     O_3   0.373023 0.746517 0.113897 -0.557334
O25   O     O_2   0.318910 0.544330 0.696860 -0.465310
O26   O     O_3   0.069240 0.546190 0.596700 -0.500922
O27   O     O_3   0.526850 0.381230 0.645670 -0.499053
O28   O     O_3   0.194266 0.688978 0.707886 -0.630055
O29   O     O_3   0.607560 0.392310 0.457770 -0.483007
O30   O     O_3   0.103510 0.335820 0.604670 -0.460540
P1    P     P_3+3 0.037890 0.428670 0.315390 0.984800
P2    P     P_3+3 0.680030 0.705880 0.565670 0.980871
P3    P     P_3+3 0.127120 0.779089 0.388923 0.976459
P4    P     P_3+3 0.151830 0.571400 0.684620 0.991492
P5    P     P_3+3 0.071903 0.218757 0.604463 0.963571
P6    P     P_3+3 0.637553 0.612558 0.247659 1.038018
P7    P     P_3+3 0.514604 0.279050 0.432883 0.936536
P8    P     P_3+3 0.550972 0.378023 0.750627 1.047467
S1    S     S_3+6 0.146301 0.234786 0.897143 -0.051221
S2    S     S_3+6 0.173118 0.758894 0.107384 -0.071119

loop_
_geom_bond_atom_site_label_1
_geom_bond_atom_site_label_2
_ccdc_geom_bond_type
C31   O13   S    
H63   O24   S    
Ba2   O26   S    
O7    P7    S    
C14   H26   S    
Ba2   O27   S    
C45   H19   S    
C17   C18   A    
C46   H20   S    
C34   H10   S    
C31   H45   S    
O10   P6    S    
C5    C6    A    
C30   H23   S    
Ba2   O6    S    
C32   H64   S    
C36   H40   S    
C15   C21   A    
C29   H33   S    
C28   O28   S    
C26   C27   A    
C33   C35   S    
C22   C24   A    
C30   H12   S    
C44   H17   S    
O19   S1    D    
C8    H24   S    
C34   H13   S    
C13   C14   A    
O17   P3    D    
Ba2   P4    S    
N1    N2    D    
Ba1   Ba2   S    
C37   H42   S    
C26   H30   S    
C16   C38   S    
C22   C27   A    
C37   H44   S    
Ba1   O5    S    
C43   H16   S    
C10   C14   A    
C6    C7    A    
C39   C44   S    
C39   H50   S    
Ba1   P2    S    
C28   H37   S    
C33   O12   S    
C13   P8    S    
Ba1   O1    S    
C35   H4    S    
C42   H60   S    
Ba1   O15   S    
O26   P4    S    
C12   H6    S    
C3    C41   S    
C7    P6    S    
C24   C29   A    
C25   P2    S    
C19   C20   A    
C40   H54   S    
O15   P2    D    
Ba1   O29   S    
C23   H8    S    
C38   H47   S    
Ba1   O16   S    
C40   H53   S    
C45   H18   S    
C18   C42   S    
C17   P5    S    
C12   O14   S    
Ba2   O5    S    
C4    C16   S    
C11   H28   S    
O3    P5    S    
C16   H36   S    
H49   O20   S    
C25   C29   A    
C20   H32   S    
O14   P6    S    
C7    C47   A    
C5    N1    S    
C38   H48   S    
C3    C5    A    
C35   H3    S    
C41   H58   S    
Ba2   O30   S    
C43   C44   S    
O13   P1    S    
O18   S1    D    
O20   S1    S    
C36   H39   S    
C41   H57   S    
O25   P4    D    
O5    P2    S    
O12   P2    S    
Ba1   O26   S    
C1    H7    S    
C4    H31   S    
C45   C46   S    
O29   P7    S    
C24   P3    S    
C6    H25   S    
C31   C32   S    
O4    P1    S    
C31   H56   S    
C40   C46   S    
C33   H66   S    
O28   P4    S    
C1    C12   S    
C8    C10   A    
O11   P6    D    
C35   H5    S    
O24   S2    S    
C43   O3    S    
C9    P4    S    
C11   C13   A    
C33   H2    S    
Ba2   O25   S    
C32   H65   S    
C23   H9    S    
C46   H22   S    
O23   P3    S    
C37   H43   S    
C45   O9    S    
Ba2   O4    S    
C22   H29   S    
O2    P5    D    
C4    H21   S    
C30   H34   S    
C32   C36   S    
O16   P3    S    
Ba1   O10   S    
C2    C3    A    
C34   H11   S    
C40   H55   S    
C1    H14   S    
Ba2   O29   S    
C44   S1    S    
C36   H41   S    
C43   H15   S    
C2    C47   A    
C15   H35   S    
O27   P8    S    
O1    P1    D    
O30   P5    S    
C16   S2    S    
C39   H51   S    
O9    P8    S    
C28   C30   S    
C9    C11   A    
O21   S2    D    
C12   H1    S    
C19   C27   S    
C47   H27   S    
C15   C17   A    
C39   H52   S    
C41   H59   S    
C4    O23   S    
C23   O7    S    
Ba1   O4    S    
C8    C9    A    
C23   C34   S    
C1    C37   S    
C10   N2    S    
C42   H62   S    
C18   C19   A    
O22   S2    D    
C21   P7    S    
C25   C26   A    
C20   C21   A    
Ba1   P1    S    
C38   H46   S    
C28   H38   S    
O8    P8    D    
C42   H61   S    
O6    P7    D    
C2    P1    S    
