data_mof_unit_26903.cif
_audit_creation_date              2012-12-10T22:11:15-0500
_audit_creation_method            fapswitch 2.2
_symmetry_space_group_name_H-M    P1
_symmetry_Int_Tables_number       1
_space_group_crystal_system       triclinic
_cell_length_a                    12.09805
_cell_length_b                    12.305344
_cell_length_c                    23.005759
_cell_angle_alpha                 90.948604
_cell_angle_beta                  90.989734
_cell_angle_gamma                 90.671554
_cell_volume                      3423.65545949

loop_
_atom_site_label
_atom_site_type_symbol
_atom_type_description
_atom_site_fract_x
_atom_site_fract_y
_atom_site_fract_z
_atom_type_partial_charge
C1    C     C_R   0.657691 0.998248 0.579095 0.854448
C2    C     C_R   0.342606 0.001689 0.420701 0.842551
C3    C     C_R   0.896343 0.807445 0.128754 -0.209385
C4    C     C_R   0.105669 0.227534 0.852053 -0.191068
C5    C     C_R   0.093890 0.860520 0.188548 0.600803
C6    C     C_R   0.911646 0.108118 0.828617 0.611103
C7    C     C_R   0.091358 0.778060 0.147241 -0.259334
C8    C     C_R   0.912789 0.189079 0.870792 -0.260257
C9    C     C_R   0.898062 0.160907 0.192778 -0.177826
C10   C     C_R   0.098391 0.873764 0.826730 -0.189874
C11   C     C_R   0.900906 0.242339 0.152211 -0.277537
C12   C     C_R   0.096903 0.791525 0.866660 -0.271523
C13   C     C_R   0.111486 0.910407 0.321228 -0.069321
C14   C     C_R   0.851003 0.090410 0.698129 -0.101621
C15   C     C_R   0.195177 0.907995 0.362962 -0.179136
C16   C     C_R   0.768933 0.091452 0.655653 -0.215342
C17   C     C_R   0.875666 0.098800 0.321576 -0.293629
C18   C     C_R   0.172206 0.904028 0.702181 -0.289610
C19   C     C_R   0.796285 0.099400 0.364378 0.418458
C20   C     C_R   0.256369 0.908356 0.662162 0.413749
C21   C     C_3   0.993391 0.008050 0.247392 -0.025376
C22   C     C_3   0.006625 0.992429 0.752393 -0.001662
C23   C     C_R   0.653426 0.001778 0.419870 0.947363
C24   C     C_R   0.345860 0.998466 0.579556 0.913442
C25   C     C_R   0.089362 0.006851 0.291201 0.227812
C26   C     C_R   0.908755 0.994038 0.709711 0.186503
C27   C     C_R   0.254804 0.003087 0.377161 -0.018234
C28   C     C_R   0.744734 0.997262 0.622968 -0.029603
C29   C     C_R   0.893599 0.006569 0.286832 -0.007397
C30   C     C_R   0.105537 0.995038 0.712265 -0.028093
C31   C     C_R   0.734142 0.003453 0.373370 -0.231020
C32   C     C_R   0.264197 0.998056 0.625168 -0.265457
C33   C     C_R   0.995536 0.107078 0.208782 0.065129
C34   C     C_R   0.004733 0.894132 0.791728 0.075420
C35   C     C_R   0.000963 0.272149 0.126859 -0.132969
C36   C     C_R   0.999070 0.733347 0.876156 -0.141268
C37   C     C_R   0.995162 0.913864 0.203471 -0.007088
C38   C     C_R   0.006979 0.087941 0.795551 -0.006757
C39   C     C_R   0.992657 0.750013 0.117921 -0.110168
C40   C     C_R   0.009149 0.249722 0.882246 -0.115703
C41   C     C_R   0.993018 0.662486 0.075182 0.885759
C42   C     C_R   0.007212 0.337383 0.924893 0.912434
C43   C     C_R   0.999636 0.353168 0.081562 0.895842
C44   C     C_R   0.000319 0.648526 0.919347 0.901114
C45   C     C_R   0.145352 0.103304 0.308844 -0.208890
C46   C     C_R   0.887502 0.901566 0.674179 -0.201840
C47   C     C_R   0.228242 0.100956 0.350677 -0.193424
C48   C     C_R   0.804852 0.902515 0.631965 -0.207036
C49   C     C_R   0.831693 0.911696 0.296438 -0.334791
C50   C     C_R   0.119648 0.087154 0.677709 -0.280466
C51   C     C_R   0.748118 0.909753 0.337911 0.444356
C52   C     C_R   0.192399 0.086324 0.631750 0.455612
C53   C     C_R   0.094712 0.135043 0.181624 -0.274613
C54   C     C_R   0.906149 0.836363 0.802115 -0.213424
C55   C     C_R   0.100226 0.222059 0.144142 0.484337
C56   C     C_R   0.900847 0.760505 0.846148 0.479268
C57   C     C_R   0.898406 0.890552 0.170026 -0.232353
C58   C     C_R   0.105031 0.146768 0.809445 -0.254572
H1    H     H_    0.271068 0.176165 0.362413 0.157747
H2    H     H_    0.788977 0.829598 0.605992 0.164975
H3    H     H_    0.850307 0.839039 0.272261 0.162299
H4    H     H_    0.068538 0.157812 0.684187 0.156619
H5    H     H_    0.169141 0.089666 0.190083 0.205678
H6    H     H_    0.830622 0.853369 0.778554 0.184153
H7    H     H_    0.823347 0.935772 0.176778 0.168595
H8    H     H_    0.182421 0.129510 0.788598 0.173220
H9    H     H_    0.818439 0.137538 0.209563 0.154070
H10   H     H_    0.173599 0.921426 0.822620 0.156436
H11   H     H_    0.064661 0.836555 0.311567 0.111984
H12   H     H_    0.870462 0.166267 0.720572 0.128405
H13   H     H_    0.928010 0.169620 0.316773 0.157608
H14   H     H_    0.160420 0.828437 0.724521 0.180028
H15   H     H_    0.820133 0.789164 0.104969 0.170701
H16   H     H_    0.181524 0.272774 0.861152 0.174566
H17   H     H_    0.167857 0.736868 0.137880 0.187688
H18   H     H_    0.837947 0.203694 0.894762 0.185775
H19   H     H_    0.823962 0.280638 0.139976 0.181860
H20   H     H_    0.171947 0.775801 0.891317 0.185261
H21   H     H_    0.212236 0.832232 0.384476 0.153220
H22   H     H_    0.724771 0.166198 0.648314 0.162141
H23   H     H_    0.124385 0.181619 0.291434 0.127399
H24   H     H_    0.935238 0.828350 0.679434 0.148615
O1    O     O_R   0.621380 0.090460 0.561410 -0.627358
O2    O     O_R   0.378620 0.909540 0.438590 -0.619480
O3    O     O_R   0.617150 0.909540 0.438590 -0.581724
O4    O     O_R   0.382850 0.090460 0.561410 -0.580084
O5    O     O_R   0.619720 0.093230 0.440890 -0.587935
O6    O     O_R   0.380280 0.906770 0.559110 -0.586555
O7    O     O_R   0.618800 0.906770 0.559110 -0.644343
O8    O     O_R   0.381200 0.093230 0.440890 -0.641444
O9    O     O_R   0.087590 0.627480 0.058790 -0.639480
O10   O     O_R   0.912410 0.372520 0.941210 -0.624164
O11   O     O_R   0.905660 0.383870 0.059980 -0.636328
O12   O     O_R   0.094340 0.616130 0.940020 -0.636285
O13   O     O_R   0.092570 0.390420 0.063230 -0.581858
O14   O     O_R   0.907430 0.609580 0.936770 -0.582802
O15   O     O_R   0.900680 0.620930 0.055550 -0.641913
O16   O     O_R   0.099320 0.379070 0.944450 -0.620675
Zn1   Zn    Zn3+2 0.501730 0.123520 0.501540 0.979047
Zn2   Zn    Zn3+2 0.498270 0.876480 0.498460 0.977572
Zn3   Zn    Zn3+2 0.125690 0.504390 0.002180 0.957641
Zn4   Zn    Zn3+2 0.874310 0.495610 0.997820 0.955173
F1    F     F_    0.194384 0.890058 0.211103 -0.694659
F2    F     F_    0.816621 0.049933 0.820072 -0.719055
O17   O     O_3   0.671671 0.824032 0.342335 -0.620078
C59   C     C_3   0.709880 0.720736 0.324431 0.103652
H25   H     H_    0.671412 0.659756 0.353097 0.154270
H26   H     H_    0.800591 0.710822 0.331025 0.121758
C60   C     C_3   0.670681 0.694551 0.261867 -0.338195
H27   H     H_    0.579078 0.686050 0.260798 0.233445
H28   H     H_    0.692949 0.761661 0.232452 0.224573
C61   C     C_3   0.721010 0.589501 0.238987 -0.979736
H29   H     H_    0.812565 0.597285 0.238324 0.268942
H30   H     H_    0.690246 0.572598 0.193951 0.270987
H31   H     H_    0.697130 0.520296 0.266705 0.263190
O18   O     O_3   0.194469 0.172254 0.593516 -0.617681
C62   C     C_3   0.096595 0.171470 0.558605 0.094226
H32   H     H_    0.092566 0.251007 0.536556 0.167664
H33   H     H_    0.020145 0.164971 0.584689 0.131629
C63   C     C_3   0.098457 0.080959 0.511881 -0.411206
H34   H     H_    0.175831 0.088392 0.487189 0.239822
H35   H     H_    0.096288 0.000057 0.532594 0.210507
C64   C     C_3   0.000329 0.088103 0.469804 -0.866859
H36   H     H_    0.921415 0.081701 0.493580 0.275160
H37   H     H_    0.003501 0.020602 0.437252 0.262452
H38   H     H_    0.003473 0.166267 0.446511 0.272530
O19   O     O_3   0.200337 0.249700 0.119437 -0.619515
C65   C     C_3   0.274520 0.294117 0.162235 0.085459
H39   H     H_    0.359593 0.285421 0.145493 0.169029
H40   H     H_    0.273166 0.249863 0.204087 0.121651
C66   C     C_3   0.253036 0.415450 0.172879 -0.345861
H41   H     H_    0.261477 0.459695 0.131444 0.244664
H42   H     H_    0.167634 0.426599 0.188793 0.205189
C67   C     C_3   0.334488 0.464347 0.217750 -0.968908
H43   H     H_    0.326189 0.422856 0.260003 0.263016
H44   H     H_    0.316937 0.552032 0.224339 0.277395
H45   H     H_    0.420661 0.456173 0.202479 0.264895
O20   O     O_3   0.801255 0.708713 0.857803 -0.632763
C68   C     C_3   0.725338 0.783350 0.881989 0.078233
H46   H     H_    0.641911 0.744814 0.879026 0.154497
H47   H     H_    0.719459 0.859898 0.857123 0.181998
C69   C     C_3   0.751752 0.808618 0.946431 -0.334737
H48   H     H_    0.746565 0.732561 0.971632 0.243978
H49   H     H_    0.836791 0.842958 0.951454 0.218090
C70   C     C_3   0.670821 0.890300 0.971576 -0.946408
H50   H     H_    0.676246 0.968261 0.948055 0.285075
H51   H     H_    0.691530 0.906120 0.018194 0.263633
H52   H     H_    0.584911 0.857707 0.968033 0.260948
O21   O     O_3   0.789020 0.187012 0.403195 -0.628020
C71   C     C_3   0.781872 0.288332 0.374991 0.111182
H53   H     H_    0.707221 0.330006 0.391236 0.157528
H54   H     H_    0.770819 0.282166 0.326769 0.115862
C72   C     C_3   0.883495 0.358473 0.391377 -0.352306
H55   H     H_    0.886522 0.372100 0.439271 0.227899
H56   H     H_    0.960194 0.316141 0.378782 0.210594
C73   C     C_3   0.880320 0.467999 0.361461 -0.993402
H57   H     H_    0.882144 0.456077 0.313537 0.270662
H58   H     H_    0.953468 0.517854 0.375361 0.268552
H59   H     H_    0.804394 0.512174 0.373471 0.257606
O22   O     O_3   0.328351 0.822231 0.658019 -0.614696
C74   C     C_3   0.417952 0.842593 0.697062 0.095320
H60   H     H_    0.389547 0.837039 0.742761 0.134286
H61   H     H_    0.455475 0.924682 0.690320 0.122985
C75   C     C_3   0.507139 0.757869 0.686855 -0.308692
H62   H     H_    0.471915 0.675202 0.693319 0.225555
H63   H     H_    0.536020 0.762987 0.641377 0.240860
C76   C     C_3   0.605489 0.776008 0.728465 -0.955236
H64   H     H_    0.640985 0.858897 0.723444 0.278948
H65   H     H_    0.670498 0.715628 0.718941 0.273964
H66   H     H_    0.579070 0.766168 0.774054 0.259769

loop_
_geom_bond_atom_site_label_1
_geom_bond_atom_site_label_2
_ccdc_geom_bond_type
C16   C28   A    
C5    F1    S    
C5    C37   A    
C53   H5    S    
C17   C29   A    
C2    O2    A    
C66   C67   S    
C19   C31   A    
C65   H39   S    
C70   H52   S    
C67   H45   S    
C61   H30   S    
C74   H60   S    
O21   C71   S    
C64   H36   S    
C39   C41   S    
C29   C49   A    
C13   H11   S    
C9    H9    S    
C44   O14   A    
C73   H57   S    
O14   Zn4   S    
C60   H28   S    
C70   H50   S    
C68   C69   S    
C64   H37   S    
C21   C33   S    
C59   H25   S    
C22   C38   S    
C8    H18   S    
O18   C62   S    
C18   C20   A    
C45   C47   A    
C2    O8    A    
C32   C52   A    
C11   H19   S    
C70   H51   S    
C46   H24   S    
C15   C27   A    
C11   C35   A    
C58   H8    S    
C15   H21   S    
C4    C40   A    
O12   Zn3   S    
C49   C51   A    
C18   H14   S    
C12   H20   S    
C1    C28   S    
C50   C52   A    
C6    C38   A    
C2    C27   S    
C18   C30   A    
C14   C16   A    
C6    F2    S    
C12   C36   A    
C35   C43   S    
C42   O10   A    
O15   Zn4   S    
C63   C64   S    
O10   Zn4   S    
C53   C55   A    
C30   C50   A    
C3    C39   A    
O1    Zn1   S    
C9    C33   A    
C14   H12   S    
C69   C70   S    
C13   C25   A    
O9    Zn3   S    
C36   C44   S    
C61   H29   S    
C74   H61   S    
C63   H35   S    
C48   H2    S    
C76   H66   S    
C46   C48   A    
C52   O18   S    
C33   C53   A    
C22   C34   S    
C54   C56   A    
C49   H3    S    
O7    Zn2   S    
C35   C55   A    
O2    Zn2   S    
C76   H65   S    
C60   C61   S    
C57   H7    S    
C76   H64   S    
C5    C7    A    
C62   H33   S    
C17   C19   A    
C64   H38   S    
C6    C8    A    
C21   C29   S    
C71   C72   S    
C16   H22   S    
C23   C31   S    
C24   C32   S    
C67   H44   S    
C36   C56   A    
C71   H54   S    
C56   O20   S    
C43   O13   A    
C51   O17   S    
C10   C34   A    
C38   C58   A    
C14   C26   A    
C72   C73   S    
O4    Zn1   S    
C9    C11   A    
C19   O21   S    
O6    Zn2   S    
C10   C12   A    
C3    C57   A    
C41   O9    A    
C55   O19   S    
C17   H13   S    
C13   C15   A    
C20   O22   S    
C50   H4    S    
C69   H49   S    
C62   C63   S    
C72   H56   S    
O19   C65   S    
C65   C66   S    
C25   C45   A    
O8    Zn1   S    
C74   C75   S    
C63   H34   S    
C20   C32   A    
C27   C47   A    
C21   C25   S    
C75   H62   S    
C1    O7    A    
C22   C30   S    
C69   H48   S    
C4    H16   S    
C24   O6    A    
C73   H59   S    
C45   H23   S    
C31   C51   A    
C40   C42   S    
C66   H42   S    
C42   O16   A    
C65   H40   S    
O11   Zn4   S    
C7    H17   S    
C68   H46   S    
C34   C54   A    
C67   H43   S    
C10   H10   S    
C1    O1    A    
O16   Zn3   S    
O17   C59   S    
O22   C74   S    
C75   H63   S    
C23   O3    A    
O3    Zn2   S    
C62   H32   S    
C68   H47   S    
C59   H26   S    
C73   H58   S    
C43   O11   A    
C28   C48   A    
C41   O15   A    
C75   C76   S    
C3    H15   S    
C44   O12   A    
O20   C68   S    
C26   C46   A    
C47   H1    S    
O5    Zn1   S    
O13   Zn3   S    
C21   C37   S    
C54   H6    S    
C22   C26   S    
C4    C58   A    
C7    C39   A    
C71   H53   S    
C23   O5    A    
C8    C40   A    
C72   H55   S    
C60   H27   S    
C24   O4    A    
C61   H31   S    
C37   C57   A    
C66   H41   S    
C59   C60   S    
