data_mof_unit_22423.cif
_audit_creation_date              2012-10-26T19:21:09-0400
_audit_creation_method            fapswitch 2.2
_symmetry_space_group_name_H-M    P1
_symmetry_Int_Tables_number       1
_space_group_crystal_system       triclinic
_cell_length_a                    9.827762
_cell_length_b                    11.045485
_cell_length_c                    13.385208
_cell_angle_alpha                 94.139619
_cell_angle_beta                  81.749999
_cell_angle_gamma                 111.500112
_cell_volume                      1337.59911123

loop_
_atom_site_label
_atom_site_type_symbol
_atom_type_description
_atom_site_fract_x
_atom_site_fract_y
_atom_site_fract_z
_atom_type_partial_charge
C1    C     C_R   0.556645 0.745561 0.507464 0.560886
C2    C     C_R   0.371602 0.469395 0.799889 -0.013658
C3    C     C_2   0.588473 0.884934 0.511917 -0.132195
C4    C     C_R   0.421150 0.482559 0.690492 0.541885
C5    C     C_2   0.483823 0.930400 0.499486 -0.160638
C6    C     C_2   0.410892 0.114951 0.489555 -0.132376
C7    C     C_2   0.515036 0.069448 0.503187 -0.164611
C8    C     C_2   0.923955 0.489196 0.494035 0.058956
C9    C     C_2   0.076627 0.504493 0.513408 -0.010924
C10   C     C_R   0.443166 0.254396 0.492970 0.555875
C11   C     C_R   0.576838 0.508983 0.309364 0.546284
C12   C     C_R   0.419278 0.456325 0.972934 0.053952
C13   C     C_R   0.740444 0.407298 0.061470 -0.137280
C14   C     C_R   0.614932 0.493293 0.200642 -0.013095
C15   C     C_R   0.246018 0.497638 0.838251 -0.161467
C16   C     C_R   0.199324 0.494089 0.941092 -0.128711
C17   C     C_R   0.281761 0.470700 0.009312 0.141768
C18   C     C_3   0.996672 0.766208 0.586010 -0.286864
C19   C     C_3   0.159074 0.312006 0.138814 -0.300147
C20   C     C_R   0.452489 0.438232 0.867368 -0.004835
C21   C     C_R   0.524100 0.456784 0.036668 0.032863
C22   C     C_R   0.640086 0.412078 0.998321 0.041658
C23   C     C_R   0.654381 0.372460 0.897509 -0.144920
C24   C     C_R   0.563105 0.386443 0.832665 -0.128485
C25   C     C_R   0.521529 0.506205 0.136078 -0.114910
C26   C     C_R   0.726345 0.445632 0.162770 -0.140554
Cu1   Cu    Cu3+1 0.362000 0.479240 0.482530 0.927228
Cu2   Cu    Cu3+1 0.638000 0.520760 0.517470 0.933588
H1    H     H_    0.799096 0.434144 0.211916 0.117601
H2    H     H_    0.096642 0.508034 0.967909 0.109677
H3    H     H_    0.578013 0.352133 0.755755 0.152834
H4    H     H_    0.624602 0.135039 0.516913 0.153071
H5    H     H_    0.124464 0.565102 0.576131 0.178508
H6    H     H_    0.876508 0.421715 0.434334 0.099000
H7    H     H_    0.826237 0.639692 0.678997 0.282406
H8    H     H_    0.049083 0.825954 0.650099 0.120075
H9    H     H_    0.929235 0.813810 0.556580 0.166609
H10   H     H_    0.085194 0.762372 0.525633 0.135441
H11   H     H_    0.142403 0.493169 0.135415 0.243294
H12   H     H_    0.374137 0.864811 0.486088 0.151270
H13   H     H_    0.116152 0.303360 0.220332 0.131763
H14   H     H_    0.247109 0.270026 0.124846 0.168079
H15   H     H_    0.067622 0.255761 0.094524 0.136640
H16   H     H_    0.301490 0.049085 0.475858 0.095386
H17   H     H_    0.698020 0.950760 0.525308 0.094152
H18   H     H_    0.108613 0.392124 0.396140 0.196179
H19   H     H_    0.739228 0.333881 0.867877 0.109636
H20   H     H_    0.827521 0.370955 0.033054 0.102198
H21   H     H_    0.447644 0.555963 0.165332 0.169278
H22   H     H_    0.181870 0.520833 0.788307 0.133537
N1    N     N_2   0.845330 0.551960 0.543750 -0.135809
N2    N     N_2   0.154690 0.448120 0.456210 -0.368722
N3    N     N_2   0.905199 0.636756 0.620317 -0.437312
N4    N     N_2   0.216554 0.447575 0.111639 -0.538473
O1    O     O_R   0.426290 0.668220 0.490680 -0.495072
O2    O     O_R   0.659360 0.703290 0.520190 -0.493232
O3    O     O_R   0.326580 0.473880 0.629020 -0.499843
O4    O     O_R   0.559660 0.508940 0.658530 -0.508936
O5    O     O_R   0.340640 0.296710 0.479810 -0.487112
O6    O     O_R   0.573710 0.331780 0.509320 -0.511665
O7    O     O_R   0.440340 0.491060 0.341470 -0.486201
O8    O     O_R   0.673420 0.526120 0.370980 -0.503533

loop_
_geom_bond_atom_site_label_1
_geom_bond_atom_site_label_2
_ccdc_geom_bond_type
C12   C17   A    
C6    C10   S    
C13   H20   S    
C2    C4    S    
C23   C24   A    
C11   O7    A    
C6    C7    D    
Cu2   O4    S    
H7    N3    S    
C10   O6    A    
C19   H14   S    
C11   O8    A    
C12   C20   A    
C10   O5    A    
C18   H10   S    
C24   H3    S    
Cu1   O5    S    
C21   C22   A    
C14   C26   A    
H18   N2    S    
C9    H5    S    
C2    C15   A    
C8    N1    D    
C9    N2    D    
C18   H8    S    
Cu2   O2    S    
C12   C21   A    
C19   N4    S    
C11   C14   S    
C18   H9    S    
C19   H15   S    
C13   C22   A    
C1    O2    A    
C25   H21   S    
Cu2   O6    S    
C14   C25   A    
C1    O1    A    
Cu2   N1    S    
Cu1   O1    S    
C13   C26   A    
C5    H12   S    
H11   N4    S    
C23   H19   S    
N1    N3    S    
C16   H2    S    
C15   C16   A    
C20   C24   A    
Cu1   N2    S    
C26   H1    S    
Cu1   O3    S    
C15   H22   S    
C4    O4    A    
Cu1   Cu2   S    
C5    C7    S    
C21   C25   A    
C22   C23   A    
C16   C17   A    
C6    H16   S    
C7    H4    S    
Cu1   O7    S    
C18   N3    S    
C3    C5    D    
C8    H6    S    
C2    C20   A    
C17   N4    S    
C3    H17   S    
C19   H13   S    
C4    O3    A    
C8    C9    S    
C1    C3    S    
Cu2   O8    S    
