data_mof_unit_45275.cif
_audit_creation_date              2012-12-11T16:26:06-0500
_audit_creation_method            fapswitch 2.2
_symmetry_space_group_name_H-M    P1
_symmetry_Int_Tables_number       1
_space_group_crystal_system       triclinic
_cell_length_a                    13.992144
_cell_length_b                    13.992172
_cell_length_c                    31.652856
_cell_angle_alpha                 90.10875
_cell_angle_beta                  89.891231
_cell_angle_gamma                 120.008246
_cell_volume                      5366.31051793

loop_
_atom_site_label
_atom_site_type_symbol
_atom_type_description
_atom_site_fract_x
_atom_site_fract_y
_atom_site_fract_z
_atom_type_partial_charge
C1    C     C_R   0.566107 0.445683 0.810204 0.551600
C2    C     C_R   0.877971 0.432892 0.689510 0.555152
C3    C     C_R   0.554311 0.120275 0.809972 0.552233
C4    C     C_R   0.567134 0.444942 0.689486 0.555190
C5    C     C_R   0.879201 0.433845 0.810146 0.552303
C6    C     C_R   0.555053 0.122095 0.689480 0.554956
C7    C     C_R   0.444939 0.567120 0.310512 0.555080
C8    C     C_R   0.433836 0.879192 0.189852 0.552321
C9    C     C_R   0.122083 0.555056 0.310518 0.554846
C10   C     C_R   0.445685 0.566116 0.189794 0.551610
C11   C     C_R   0.432907 0.877984 0.310487 0.555043
C12   C     C_R   0.120281 0.554309 0.190026 0.552247
C13   C     C_1   0.004195 0.558092 0.019237 0.030027
C14   C     C_1   0.564873 0.993048 0.481108 0.035644
C15   C     C_1   0.452156 0.452008 0.019039 0.032576
C16   C     C_1   0.008124 0.572520 0.481409 0.035738
C17   C     C_1   0.551905 0.991538 0.018375 0.029823
C18   C     C_1   0.427988 0.435604 0.481265 0.035459
C19   C     C_1   0.571831 0.006781 0.518693 0.035809
C20   C     C_1   0.991352 0.551797 0.981636 0.029775
C21   C     C_1   0.434951 0.428674 0.518839 0.035531
C22   C     C_1   0.558192 0.004383 0.980774 0.029969
C23   C     C_1   0.994391 0.565527 0.518994 0.035712
C24   C     C_1   0.452097 0.452061 0.980975 0.032550
C25   C     C_R   0.938976 0.475191 0.850912 -0.061854
C26   C     C_R   0.537486 0.065084 0.648111 -0.054916
C27   C     C_R   0.522824 0.466948 0.850255 -0.064461
C28   C     C_R   0.935395 0.472387 0.648240 -0.054872
C29   C     C_R   0.534879 0.058630 0.850312 -0.062377
C30   C     C_R   0.527788 0.462535 0.648164 -0.054769
C31   C     C_R   0.472381 0.935293 0.351780 -0.055039
C32   C     C_R   0.058635 0.534853 0.149686 -0.062355
C33   C     C_R   0.462440 0.527797 0.351856 -0.054939
C34   C     C_R   0.475159 0.938961 0.149084 -0.061832
C35   C     C_R   0.065187 0.537582 0.351910 -0.055081
C36   C     C_R   0.466980 0.522853 0.149744 -0.064445
C37   C     C_R   0.974074 0.584449 0.864602 0.062589
C38   C     C_R   0.599054 0.013427 0.637034 0.067026
C39   C     C_R   0.414470 0.391335 0.864516 0.062601
C40   C     C_R   0.987265 0.585675 0.637368 0.067127
C41   C     C_R   0.608800 0.023189 0.863715 0.063962
C42   C     C_R   0.414532 0.401130 0.637230 0.067107
C43   C     C_R   0.585581 0.986632 0.362741 0.067003
C44   C     C_R   0.023047 0.608669 0.136302 0.063972
C45   C     C_R   0.400591 0.414630 0.362880 0.066984
C46   C     C_R   0.584466 0.974216 0.135415 0.062594
C47   C     C_R   0.014061 0.599593 0.363074 0.066902
C48   C     C_R   0.391463 0.414451 0.135503 0.062609
C49   C     C_R   0.990928 0.610550 0.908043 0.090817
C50   C     C_R   0.610773 0.993234 0.594091 0.101255
C51   C     C_R   0.388420 0.386562 0.907887 0.091036
C52   C     C_R   0.007766 0.617734 0.594485 0.101213
C53   C     C_R   0.617563 0.005431 0.907075 0.095034
C54   C     C_R   0.382589 0.389538 0.594328 0.101367
C55   C     C_R   0.617413 0.006665 0.405654 0.101253
C56   C     C_R   0.005212 0.617405 0.092946 0.095070
C57   C     C_R   0.388759 0.382912 0.405812 0.101412
C58   C     C_R   0.610623 0.991150 0.091980 0.090850
C59   C     C_R   0.994335 0.611551 0.406047 0.101298
C60   C     C_R   0.386718 0.388352 0.092138 0.091071
C61   C     C_R   0.975540 0.528450 0.937191 -0.030306
C62   C     C_R   0.560963 0.024687 0.562727 -0.021911
C63   C     C_R   0.466559 0.464471 0.935776 -0.033134
C64   C     C_R   0.976469 0.536565 0.562979 -0.021904
C65   C     C_R   0.550488 0.020217 0.936370 -0.030337
C66   C     C_R   0.463821 0.439434 0.562849 -0.021776
C67   C     C_R   0.536106 0.975417 0.437101 -0.022085
C68   C     C_R   0.020084 0.550412 0.063637 -0.030267
C69   C     C_R   0.438846 0.464281 0.437233 -0.021956
C70   C     C_R   0.528519 0.975665 0.062816 -0.030247
C71   C     C_R   0.025740 0.561555 0.437353 -0.022091
C72   C     C_R   0.464567 0.466510 0.064237 -0.033109
C73   C     C_R   0.954438 0.424010 0.922958 0.223087
C74   C     C_R   0.488694 0.063536 0.574149 0.229119
C75   C     C_R   0.563748 0.554995 0.919760 0.226521
C76   C     C_R   0.937554 0.425386 0.574210 0.229450
C77   C     C_R   0.466648 0.040581 0.922272 0.223185
C78   C     C_R   0.575000 0.511555 0.574153 0.229529
C79   C     C_R   0.425085 0.937107 0.425791 0.229050
C80   C     C_R   0.040623 0.466676 0.077718 0.223201
C81   C     C_R   0.511417 0.575303 0.425849 0.229130
C82   C     C_R   0.424003 0.954374 0.077028 0.223105
C83   C     C_R   0.063987 0.488841 0.425853 0.228720
C84   C     C_R   0.555015 0.563780 0.080237 0.226522
C85   C     C_R   0.944078 0.400680 0.879815 0.130707
C86   C     C_R   0.472224 0.077069 0.616713 0.129309
C87   C     C_R   0.592726 0.555762 0.877380 0.132441
C88   C     C_R   0.923591 0.395221 0.616725 0.129174
C89   C     C_R   0.454208 0.051587 0.879171 0.131985
C90   C     C_R   0.605078 0.527740 0.616687 0.129227
C91   C     C_R   0.395196 0.923688 0.383250 0.129097
C92   C     C_R   0.051698 0.454249 0.120814 0.131973
C93   C     C_R   0.527867 0.605106 0.383288 0.129153
C94   C     C_R   0.400608 0.943941 0.120165 0.130690
C95   C     C_R   0.076976 0.472105 0.383263 0.129235
C96   C     C_R   0.555746 0.592803 0.122608 0.132444
Cr1   Cr    Cr6+3 0.504240 0.249200 0.750000 1.127801
Cr2   Cr    Cr6+3 0.744960 0.495760 0.750000 1.127593
Cr3   Cr    Cr6+3 0.750800 0.255040 0.750000 1.127540
Cr4   Cr    Cr6+3 0.249200 0.504240 0.250000 1.127739
Cr5   Cr    Cr6+3 0.495760 0.744960 0.250000 1.127528
Cr6   Cr    Cr6+3 0.255040 0.750800 0.250000 1.127479
O1    O     O_R   0.480350 0.140770 0.796330 -0.472462
O2    O     O_R   0.660420 0.519650 0.703670 -0.470957
O3    O     O_R   0.859230 0.339580 0.796330 -0.472480
O4    O     O_R   0.480350 0.140770 0.703670 -0.471144
O5    O     O_R   0.660420 0.519650 0.796330 -0.472842
O6    O     O_R   0.859230 0.339580 0.703670 -0.471122
O7    O     O_R   0.140770 0.480350 0.296330 -0.471174
O8    O     O_R   0.519650 0.660420 0.203670 -0.472849
O9    O     O_R   0.339580 0.859230 0.296330 -0.471154
O10   O     O_R   0.140770 0.480350 0.203670 -0.472464
O11   O     O_R   0.519650 0.660420 0.296330 -0.470991
O12   O     O_R   0.339580 0.859230 0.203670 -0.472477
O13   O     O_R   0.514930 0.348530 0.793250 -0.471215
O14   O     O_R   0.833600 0.485070 0.706750 -0.471749
O15   O     O_R   0.651470 0.166400 0.793250 -0.472624
O16   O     O_R   0.514930 0.348530 0.706750 -0.471925
O17   O     O_R   0.833600 0.485070 0.793250 -0.472594
O18   O     O_R   0.651470 0.166400 0.706750 -0.471875
O19   O     O_R   0.348530 0.514930 0.293250 -0.471999
O20   O     O_R   0.485070 0.833600 0.206750 -0.472574
O21   O     O_R   0.166400 0.651470 0.293250 -0.471950
O22   O     O_R   0.348530 0.514930 0.206750 -0.471190
O23   O     O_R   0.485070 0.833600 0.293250 -0.471825
O24   O     O_R   0.166400 0.651470 0.206750 -0.472598
O25   O     O_3   0.666667 0.333333 0.750000 -0.286069
O26   O     O_3   0.333333 0.666667 0.250000 -0.286046
I1    I     I_    0.017854 0.713468 0.819311 -0.130789
I2    I     I_    0.662957 0.954484 0.685550 -0.147058
I3    I     I_    0.285538 0.298293 0.820009 -0.128273
I4    I     I_    0.045823 0.708373 0.686109 -0.147149
I5    I     I_    0.693137 0.979153 0.817961 -0.129564
I6    I     I_    0.291720 0.337312 0.685940 -0.148341
I7    I     I_    0.708532 0.045274 0.314092 -0.146987
I8    I     I_    0.978907 0.692867 0.182082 -0.129793
I9    I     I_    0.336600 0.291563 0.314263 -0.148176
I10   I     I_    0.713443 0.018099 0.180735 -0.131013
I11   I     I_    0.955035 0.663663 0.314650 -0.146896
I12   I     I_    0.298540 0.285552 0.180037 -0.128486
I13   I     I_    0.957393 0.731738 0.070725 -0.077741
I14   I     I_    0.787153 0.083705 0.423968 -0.093202
I15   I     I_    0.263051 0.232305 0.067895 -0.076357
I16   I     I_    0.917445 0.704317 0.424661 -0.092356
I17   I     I_    0.772510 0.038049 0.069410 -0.079758
I18   I     I_    0.296008 0.213224 0.424189 -0.092670
I19   I     I_    0.702978 0.915652 0.575608 -0.093440
I20   I     I_    0.037560 0.772348 0.930644 -0.079581
I21   I     I_    0.212769 0.297357 0.576083 -0.093757
I22   I     I_    0.732059 0.957852 0.929323 -0.077529
I23   I     I_    0.085500 0.787605 0.576301 -0.094286
I24   I     I_    0.232475 0.262749 0.932157 -0.076201
I25   I     I_    0.048506 0.305449 0.138868 -0.067949
I26   I     I_    0.231211 0.890197 0.370492 -0.091703
I27   I     I_    0.700685 0.740919 0.142351 -0.069535
I28   I     I_    0.110010 0.341281 0.370284 -0.091334
I29   I     I_    0.252357 0.942941 0.137923 -0.072720
I30   I     I_    0.658227 0.769194 0.370452 -0.091947
I31   I     I_    0.342254 0.111469 0.629561 -0.091933
I32   I     I_    0.943423 0.252628 0.862014 -0.072673
I33   I     I_    0.769672 0.657240 0.629390 -0.092561
I34   I     I_    0.305283 0.048082 0.861079 -0.067940
I35   I     I_    0.888736 0.230729 0.629351 -0.092304
I36   I     I_    0.740656 0.700830 0.857594 -0.069536
O27   O     O_3   0.049470 0.394315 0.050335 -0.630411
H1    H     H_    0.076893 0.430413 0.022631 0.344907
O28   O     O_3   0.342828 0.913198 0.455289 -0.631333
H2    H     H_    0.364543 0.899583 0.483330 0.343280
O29   O     O_3   0.642567 0.634723 0.054914 -0.631420
H3    H     H_    0.649553 0.592551 0.031138 0.345903
O30   O     O_3   0.088139 0.430664 0.455222 -0.631719
H4    H     H_    0.102569 0.466535 0.483227 0.342819
O31   O     O_3   0.342314 0.943949 0.049682 -0.632281
H5    H     H_    0.350944 0.915574 0.022146 0.343745
O32   O     O_3   0.569703 0.657651 0.455295 -0.631546
H6    H     H_    0.534359 0.635962 0.483377 0.342998
O33   O     O_3   0.430732 0.087825 0.544726 -0.631541
H7    H     H_    0.466491 0.101850 0.516709 0.342926
O34   O     O_3   0.944133 0.342338 0.950286 -0.632255
H8    H     H_    0.915735 0.350892 0.977830 0.343780
O35   O     O_3   0.657271 0.569621 0.544653 -0.631373
H9    H     H_    0.635290 0.534394 0.516561 0.343103
O36   O     O_3   0.394196 0.049319 0.949640 -0.630386
H10   H     H_    0.430244 0.076751 0.977352 0.344944
O37   O     O_3   0.913508 0.343208 0.544659 -0.631158
H11   H     H_    0.900306 0.365216 0.516607 0.343384
O38   O     O_3   0.634650 0.642595 0.945071 -0.631408
H12   H     H_    0.592478 0.649504 0.968865 0.345918

loop_
_geom_bond_atom_site_label_1
_geom_bond_atom_site_label_2
_ccdc_geom_bond_type
C50   I19   S    
C44   I8    S    
C39   C51   A    
O30   H4    S    
C68   C80   A    
O27   H1    S    
C82   C94   A    
C21   C66   S    
C18   C21   T    
C33   C45   A    
O29   H3    S    
C89   I34   S    
C30   C90   A    
C35   C47   A    
C29   C89   A    
C58   I17   S    
Cr2   O17   S    
C5    O3    A    
O35   H9    S    
C78   C90   A    
Cr3   O6    S    
C77   C89   A    
C31   C43   A    
C5    O17   A    
C81   O32   S    
C11   O23   A    
C95   I28   S    
Cr6   O26   S    
C60   I15   S    
C96   I27   S    
C12   O24   A    
C60   C72   A    
C19   C62   S    
C3    O1    A    
Cr1   O16   S    
Cr5   O26   S    
C37   C49   A    
Cr4   O19   S    
C84   C96   A    
C20   C61   S    
C3    C29   S    
C44   C56   A    
C3    O15   A    
C25   C37   A    
Cr3   O18   S    
C2    O14   A    
C27   C39   A    
C83   O30   S    
C28   C88   A    
Cr5   O23   S    
C14   C67   S    
C36   C48   A    
C92   I25   S    
C34   C46   A    
C85   I32   S    
Cr1   O13   S    
C53   C65   A    
C86   I31   S    
C76   C88   A    
C79   C91   A    
C8    O12   A    
C46   I10   S    
C16   C23   T    
C18   C69   S    
C87   I36   S    
C40   I4    S    
C11   C31   S    
Cr4   O7    S    
C55   I14   S    
C57   I18   S    
C12   C32   S    
C7    C33   S    
C79   O28   S    
C4    O16   A    
Cr6   O9    S    
C93   I30   S    
C16   C71   S    
C7    O19   A    
Cr3   O3    S    
C6    O18   A    
C48   C60   A    
C54   I21   S    
C71   C83   A    
C9    O7    A    
C66   C78   A    
C75   O38   S    
Cr1   O1    S    
C49   C61   A    
C38   C50   A    
C48   I12   S    
C90   I33   S    
C11   O9    A    
C23   C64   S    
C67   C79   A    
C91   I26   S    
C84   O29   S    
C52   C64   A    
O28   H2    S    
C58   C70   A    
Cr3   O25   S    
C61   C73   A    
Cr5   O8    S    
O31   H5    S    
Cr2   O5    S    
C49   I20   S    
Cr4   O22   S    
C80   C92   A    
C27   C87   A    
O36   H10   S    
C22   C65   S    
Cr6   O12   S    
Cr3   O15   S    
C65   C77   A    
C81   C93   A    
C36   C96   A    
Cr2   O14   S    
O32   H6    S    
C82   O31   S    
C26   C86   A    
C62   C74   A    
C45   C57   A    
C25   C85   A    
C64   C76   A    
C51   C63   A    
C8    C34   S    
C83   C95   A    
C74   C86   A    
C43   I7    S    
C6    O4    A    
C41   C53   A    
C72   C84   A    
C1    O5    A    
C5    C25   S    
C56   I13   S    
C43   C55   A    
C15   C24   T    
C51   I24   S    
Cr4   O10   S    
C24   C63   S    
C31   C91   A    
C53   I22   S    
C50   C62   A    
Cr1   O4    S    
Cr6   O21   S    
C38   I2    S    
C80   O27   S    
C12   O10   A    
C63   C75   A    
C9    C35   S    
C45   I9    S    
C73   C85   A    
C75   C87   A    
Cr1   O25   S    
Cr2   O25   S    
C13   C20   T    
C29   C41   A    
Cr4   O26   S    
C14   C19   T    
C26   C38   A    
C34   C94   A    
Cr6   O24   S    
C33   C93   A    
C59   I16   S    
C55   C67   A    
C41   I5    S    
C54   C66   A    
C35   C95   A    
C94   I29   S    
C88   I35   S    
C10   O22   A    
Cr5   O20   S    
C42   I6    S    
C78   O35   S    
C56   C68   A    
C7    O11   A    
O38   H12   S    
C40   C52   A    
C42   C54   A    
C8    O20   A    
O37   H11   S    
C6    C26   S    
C74   O33   S    
C39   I3    S    
C52   I23   S    
Cr2   O2    S    
C4    O2    A    
C2    O6    A    
C9    O21   A    
C15   C72   S    
C10   O8    A    
Cr5   O11   S    
C70   C82   A    
C4    C30   S    
C69   C81   A    
C32   C92   A    
C47   C59   A    
O34   H8    S    
C73   O34   S    
C17   C70   S    
C17   C22   T    
C32   C44   A    
O33   H7    S    
C47   I11   S    
C1    C27   S    
C28   C40   A    
C30   C42   A    
C2    C28   S    
C1    O13   A    
C10   C36   S    
C57   C69   A    
C37   I1    S    
C46   C58   A    
C76   O37   S    
C77   O36   S    
C59   C71   A    
C13   C68   S    
