data_mof_unit_58006.cif
_audit_creation_date              2012-12-10T21:18:26-0500
_audit_creation_method            fapswitch 2.2
_symmetry_space_group_name_H-M    P1
_symmetry_Int_Tables_number       1
_space_group_crystal_system       triclinic
_cell_length_a                    17.555955
_cell_length_b                    17.025228
_cell_length_c                    10.500768
_cell_angle_alpha                 89.206615
_cell_angle_beta                  92.081224
_cell_angle_gamma                 90.143694
_cell_volume                      3136.24057408

loop_
_atom_site_label
_atom_site_type_symbol
_atom_type_description
_atom_site_fract_x
_atom_site_fract_y
_atom_site_fract_z
_atom_type_partial_charge
C1    C     C_R   0.353591 0.499848 0.499430 0.911879
C2    C     C_R   0.646349 0.500050 0.498220 0.911038
C3    C     C_1   0.965172 0.499640 0.452729 -0.020503
C4    C     C_1   0.032739 0.500464 0.454802 -0.017960
C5    C     C_R   0.432712 0.831653 0.472803 0.334121
C6    C     C_R   0.557315 0.167903 0.566771 0.328845
C7    C     C_R   0.567228 0.831678 0.526048 0.326609
C8    C     C_R   0.443218 0.168875 0.431836 0.321307
C9    C     C_R   0.437939 0.749209 0.452479 0.145343
C10   C     C_R   0.547769 0.250385 0.582231 0.122483
C11   C     C_R   0.562179 0.748880 0.546781 0.143424
C12   C     C_R   0.453068 0.251596 0.416231 0.167265
C13   C     C_R   0.499920 0.875550 0.499556 -0.230847
C14   C     C_R   0.500140 0.124512 0.499480 -0.225401
C15   C     C_1   0.499910 0.963667 0.499528 0.259912
C16   C     C_1   0.500001 0.036416 0.499520 0.257288
C17   C     C_R   0.500356 0.500567 0.257658 0.946321
C18   C     C_R   0.498954 0.499488 0.742481 0.953586
C19   C     C_3   0.501587 0.575842 0.038508 -0.243344
C20   C     C_3   0.496600 0.424721 0.962395 -0.235225
C21   C     C_3   0.562653 0.535626 0.958731 -0.289678
C22   C     C_3   0.435625 0.464991 0.041999 -0.351108
C23   C     C_3   0.438076 0.538282 0.955178 0.469904
C24   C     C_3   0.560204 0.462250 0.045345 0.540493
C25   C     C_3   0.498149 0.498679 0.877283 -0.153062
C26   C     C_3   0.500205 0.501698 0.123183 -0.179260
C27   C     C_R   0.843544 0.567567 0.427586 0.172212
C28   C     C_R   0.153438 0.433282 0.430036 0.174067
C29   C     C_R   0.151491 0.567352 0.512950 0.157085
C30   C     C_R   0.848130 0.429852 0.499806 0.167444
C31   C     C_R   0.765097 0.567353 0.441587 -0.144935
C32   C     C_R   0.232474 0.433222 0.444343 -0.190273
C33   C     C_R   0.230540 0.565684 0.527195 -0.109848
C34   C     C_R   0.769707 0.431260 0.514093 -0.128097
C35   C     C_R   0.728407 0.499945 0.486505 -0.108284
C36   C     C_R   0.270973 0.499354 0.491621 -0.129513
C37   C     C_R   0.884755 0.498576 0.457474 0.112410
C38   C     C_R   0.113331 0.500881 0.463800 0.108892
H1    H     H_    0.502840 0.637267 0.072704 0.201058
H2    H     H_    0.493784 0.362529 0.933322 0.182849
H3    H     H_    0.614669 0.563448 0.921115 0.182525
H4    H     H_    0.383674 0.437131 0.079797 0.174150
H5    H     H_    0.732560 0.619463 0.415672 0.178997
H6    H     H_    0.263988 0.381864 0.417161 0.183771
H7    H     H_    0.260506 0.615769 0.567283 0.206882
H8    H     H_    0.740918 0.378896 0.547411 0.184173
N1    N     N_R   0.500000 0.707230 0.500000 -0.123819
N2    N     N_R   0.500000 0.292770 0.500000 -0.122382
O1    O     O_R   0.389110 0.566570 0.499990 -0.615084
O2    O     O_R   0.610890 0.433430 0.500010 -0.596055
O3    O     O_R   0.610890 0.566570 0.500010 -0.640774
O4    O     O_R   0.389110 0.433430 0.499990 -0.623268
O5    O     O_R   0.499980 0.566530 0.313950 -0.637207
O6    O     O_R   0.500020 0.433470 0.686050 -0.636513
O7    O     O_R   0.500020 0.566530 0.686050 -0.594411
O8    O     O_R   0.499980 0.433470 0.313950 -0.600225
Zn1   Zn    Zn3+2 0.500000 0.588860 0.500000 0.982172
Zn2   Zn    Zn3+2 0.500000 0.411140 0.500000 0.991961
S1    S     S_3+6 0.355352 0.588388 0.893547 0.045551
O9    O     O_2   0.378730 0.655183 0.808396 -0.232754
O10   O     O_2   0.305657 0.532454 0.818412 -0.318030
O11   O     O_3   0.306614 0.624187 0.014741 -0.506487
H9    H     H_    0.298711 0.578585 0.072411 0.336477
S2    S     S_3+6 0.643093 0.412022 0.105746 0.022946
O12   O     O_2   0.692009 0.467721 0.182734 -0.317654
O13   O     O_2   0.620232 0.343723 0.188197 -0.282262
O14   O     O_3   0.691954 0.379247 0.982481 -0.561855
H10   H     H_    0.736763 0.351856 0.021975 0.396035
C39   C     C_3   0.882428 0.641373 0.382043 -0.834038
H11   H     H_    0.841123 0.689689 0.361874 0.260956
H12   H     H_    0.924373 0.661613 0.456253 0.239864
H13   H     H_    0.912476 0.629356 0.293157 0.251104
C40   C     C_3   0.112827 0.361344 0.379415 -0.836591
H14   H     H_    0.153392 0.314015 0.356625 0.261494
H15   H     H_    0.073799 0.338019 0.451784 0.247036
H16   H     H_    0.079266 0.376904 0.291031 0.244021
C41   C     C_3   0.108793 0.639704 0.550738 -0.814093
H17   H     H_    0.147946 0.686260 0.587262 0.268877
H18   H     H_    0.076069 0.663950 0.466737 0.237379
H19   H     H_    0.068779 0.624365 0.626759 0.248566
C42   C     C_3   0.891907 0.355455 0.530943 -0.830153
H20   H     H_    0.853920 0.307204 0.562395 0.263596
H21   H     H_    0.921257 0.335706 0.445163 0.248643
H22   H     H_    0.934970 0.366448 0.608766 0.241218
S3    S     S_3+6 0.342191 0.877504 0.474315 0.075307
O15   O     O_2   0.340995 0.930261 0.587696 -0.225614
O16   O     O_2   0.329951 0.924658 0.353452 -0.212989
O17   O     O_3   0.270848 0.812078 0.486939 -0.567268
H23   H     H_    0.223689 0.843960 0.484526 0.396905
S4    S     S_3+6 0.643214 0.121675 0.621123 0.064116
O18   O     O_2   0.628321 0.073200 0.738306 -0.244430
O19   O     O_2   0.670026 0.069982 0.517684 -0.197029
O20   O     O_3   0.713045 0.187140 0.653528 -0.572755
H24   H     H_    0.757158 0.155202 0.684658 0.397670
S5    S     S_3+6 0.657696 0.878060 0.522549 0.059297
O21   O     O_2   0.657938 0.932958 0.409343 -0.234738
O22   O     O_2   0.671017 0.922961 0.643406 -0.212057
O23   O     O_3   0.728863 0.813247 0.507831 -0.583842
H25   H     H_    0.775976 0.845386 0.508384 0.397298
S6    S     S_3+6 0.357282 0.123445 0.377008 0.057388
O24   O     O_2   0.372085 0.077515 0.259303 -0.241978
O25   O     O_2   0.330307 0.069473 0.479824 -0.202088
O26   O     O_3   0.287696 0.189485 0.345303 -0.583572
H26   H     H_    0.243508 0.158162 0.313605 0.396861
C43   C     C_3   0.378266 0.710467 0.368180 -0.630148
H27   H     H_    0.355467 0.752637 0.294773 0.247690
H28   H     H_    0.402441 0.661948 0.314490 0.232272
H29   H     H_    0.330523 0.688849 0.424616 0.258411
C44   C     C_3   0.583023 0.289217 0.697824 -0.595966
H30   H     H_    0.613680 0.248159 0.763896 0.265991
H31   H     H_    0.622156 0.337281 0.671961 0.248452
H32   H     H_    0.536482 0.310010 0.755828 0.207436
C45   C     C_3   0.622782 0.709083 0.629304 -0.642919
H33   H     H_    0.646691 0.750304 0.701488 0.239568
H34   H     H_    0.599213 0.659887 0.684549 0.234105
H35   H     H_    0.669706 0.688261 0.571303 0.254814
C46   C     C_3   0.419600 0.291787 0.298386 -0.654149
H36   H     H_    0.387142 0.252021 0.234228 0.256688
H37   H     H_    0.382248 0.341121 0.322389 0.230780
H38   H     H_    0.466723 0.311215 0.238354 0.247257

loop_
_geom_bond_atom_site_label_1
_geom_bond_atom_site_label_2
_ccdc_geom_bond_type
C2    C35   S    
O20   H24   S    
C33   H7    S    
C40   H14   S    
C11   N1    A    
S5    O21   D    
C12   N2    A    
C42   H20   S    
S5    O23   S    
C41   H17   S    
C23   S1    S    
C43   H28   S    
C31   H5    S    
C17   C26   S    
C32   C36   A    
C19   C21   S    
C24   C26   S    
C44   H31   S    
C20   H2    S    
S3    O17   S    
N1    Zn1   S    
C20   C25   S    
C9    C43   S    
C15   C16   T    
C29   C33   A    
C33   C36   A    
O1    Zn1   S    
C10   C44   S    
C34   C35   A    
C39   H12   S    
C19   C26   S    
C2    O2    A    
C20   C24   S    
C29   C38   A    
C34   H8    S    
C5    C13   A    
C27   C39   S    
C45   H35   S    
C5    S3    S    
S3    O16   D    
S1    O9    D    
C24   S2    S    
C40   H15   S    
C18   C25   S    
C28   C40   S    
C42   H21   S    
C41   H18   S    
C43   H29   S    
S1    O10   D    
C30   C34   A    
C27   C31   A    
O14   H10   S    
O2    Zn2   S    
S2    O14   S    
C28   C32   A    
C44   H32   S    
O5    Zn1   S    
C19   C23   S    
S3    O15   D    
S6    O26   S    
C30   C37   A    
S2    O13   D    
C39   H13   S    
C7    C11   A    
C5    C9    A    
O11   H9    S    
C6    C14   A    
S4    O19   D    
C28   C38   A    
C8    C12   A    
S6    O25   D    
C32   H6    S    
O7    Zn1   S    
C17   O8    A    
O4    Zn2   S    
C18   O7    A    
C21   H3    S    
C20   C22   S    
C9    N1    A    
C13   C15   S    
C10   N2    A    
C40   H16   S    
C14   C16   S    
C46   H38   S    
C3    C4    T    
C17   O5    A    
C42   H22   S    
S4    O20   S    
C45   H33   S    
O6    Zn2   S    
C41   H19   S    
C21   C25   S    
S1    O11   S    
C8    C14   A    
C4    C38   S    
C6    C10   A    
S5    O22   D    
N2    Zn2   S    
C7    S5    S    
C43   H27   S    
S2    O12   D    
C30   C42   S    
C46   H37   S    
C8    S6    S    
C6    S4    S    
C44   H30   S    
S4    O18   D    
C22   H4    S    
C27   C37   A    
S6    O24   D    
O8    Zn2   S    
C31   C35   A    
C23   C25   S    
C39   H11   S    
C11   C45   S    
C1    O4    A    
C2    O3    A    
C18   O6    A    
C12   C46   S    
O3    Zn1   S    
C7    C13   A    
C29   C41   S    
O17   H23   S    
C3    C37   S    
C19   H1    S    
O23   H25   S    
C22   C26   S    
C21   C24   S    
O26   H26   S    
C22   C23   S    
C46   H36   S    
C1    O1    A    
C1    C36   S    
C45   H34   S    
