data_mof_unit_22706.cif
_audit_creation_date              2012-12-11T15:21:15-0500
_audit_creation_method            fapswitch 2.2
_symmetry_space_group_name_H-M    P1
_symmetry_Int_Tables_number       1
_space_group_crystal_system       triclinic
_cell_length_a                    18.348869
_cell_length_b                    18.444215
_cell_length_c                    50.809013
_cell_angle_alpha                 90.14507
_cell_angle_beta                  89.803419
_cell_angle_gamma                 120.028067
_cell_volume                      14887.2753269

loop_
_atom_site_label
_atom_site_type_symbol
_atom_type_description
_atom_site_fract_x
_atom_site_fract_y
_atom_site_fract_z
_atom_type_partial_charge
C1    C     C_R   0.408359 0.584718 0.287875 0.544835
C2    C     C_R   0.408343 0.584758 0.212089 0.540040
C3    C     C_R   0.111433 0.532816 0.369437 0.241821
C4    C     C_R   0.121189 0.541071 0.129723 0.232630
C5    C     C_R   0.605943 0.528084 0.683443 -0.161278
C6    C     C_R   0.607651 0.528573 0.816518 -0.163150
C7    C     C_R   0.512843 0.385265 0.669274 -0.147491
C8    C     C_R   0.513106 0.386245 0.830857 -0.142446
C9    C     C_R   0.498947 0.414353 0.645631 -0.076743
C10   C     C_R   0.500516 0.416146 0.854614 -0.067206
C11   C     C_R   0.537613 0.500593 0.640609 0.221185
C12   C     C_R   0.540691 0.502507 0.859563 0.234352
C13   C     C_R   0.565986 0.599845 0.491082 0.011190
C14   C     C_R   0.568931 0.604350 0.008718 0.011582
C15   C     C_R   0.485388 0.561867 0.479221 0.033081
C16   C     C_R   0.488454 0.572894 0.020377 0.034186
C17   C     C_R   0.411537 0.527159 0.495019 0.012081
C18   C     C_R   0.415802 0.544125 0.004417 0.013973
C19   C     C_R   0.635977 0.617942 0.475050 -0.157472
C20   C     C_R   0.636274 0.615743 0.024827 -0.157372
C21   C     C_R   0.327226 0.491483 0.454854 -0.115543
C22   C     C_R   0.331509 0.520010 0.044248 -0.107598
C23   C     C_R   0.348261 0.482321 0.539648 -0.147639
C24   C     C_R   0.352800 0.496133 0.960064 -0.156439
C25   C     C_R   0.090367 0.493083 0.452069 -0.037891
C26   C     C_R   0.103766 0.513458 0.046514 -0.042192
C27   C     C_R   0.357608 0.475500 0.566544 -0.128492
C28   C     C_R   0.362103 0.487318 0.933242 -0.120320
C29   C     C_R   0.332821 0.492238 0.482174 -0.151718
C30   C     C_R   0.337786 0.519078 0.016949 -0.150374
C31   C     C_R   0.591491 0.176223 0.712153 0.541415
C32   C     C_R   0.591236 0.175977 0.787809 0.543804
C33   C     C_R   0.824080 0.415344 0.712245 0.528394
C34   C     C_R   0.823358 0.415367 0.787869 0.533183
C35   C     C_R   0.583924 0.408743 0.712451 0.535769
C36   C     C_R   0.583895 0.408730 0.787550 0.536411
C37   C     C_R   0.022597 0.441021 0.435454 0.029337
C38   C     C_R   0.082030 0.443730 0.062693 0.026789
C39   C     C_R   0.948542 0.376329 0.446632 -0.116774
C40   C     C_R   0.059724 0.366402 0.050932 -0.120695
C41   C     C_R   0.165399 0.557452 0.441103 0.021786
C42   C     C_R   0.131006 0.592516 0.057930 0.031071
C43   C     C_R   0.142282 0.566084 0.315076 0.006783
C44   C     C_R   0.148820 0.567492 0.184447 0.008762
C45   C     C_R   0.870663 0.427472 0.687302 0.005645
C46   C     C_R   0.871741 0.429655 0.812398 0.012075
C47   C     C_R   0.009806 0.392781 0.517430 0.014877
C48   C     C_R   0.035109 0.411387 0.980786 0.012209
C49   C     C_R   0.132939 0.532372 0.524765 0.003352
C50   C     C_R   0.122023 0.563629 0.974650 0.011597
C51   C     C_R   0.062585 0.457972 0.534824 -0.011586
C52   C     C_R   0.070188 0.482587 0.964028 -0.013455
C53   C     C_R   0.177212 0.592317 0.288138 0.545201
C54   C     C_R   0.177992 0.592419 0.211824 0.544381
C55   C     C_R   0.955773 0.312406 0.527854 0.025569
C56   C     C_R   0.973273 0.332676 0.970276 0.027478
C57   C     C_R   0.923922 0.306223 0.553487 0.030010
C58   C     C_R   0.969335 0.321193 0.942727 0.035721
C59   C     C_R   0.971514 0.373205 0.571481 0.019451
C60   C     C_R   0.997996 0.392460 0.926246 0.019286
C61   C     C_R   0.042581 0.448466 0.562060 -0.069513
C62   C     C_R   0.050887 0.473360 0.936813 -0.067955
C63   C     C_R   0.091405 0.514799 0.579679 0.024895
C64   C     C_R   0.082143 0.545262 0.920430 0.022385
C65   C     C_R   0.059223 0.509757 0.605579 0.402458
C66   C     C_R   0.062459 0.532681 0.893265 0.395248
C67   C     C_R   0.953533 0.366805 0.598797 0.407185
C68   C     C_R   0.967668 0.386415 0.900330 0.403713
C69   C     C_R   0.980119 0.415367 0.663266 0.060997
C70   C     C_R   0.973961 0.408704 0.837251 0.059994
C71   C     C_R   0.937951 0.411539 0.686843 -0.139922
C72   C     C_R   0.927901 0.398930 0.814157 -0.142087
C73   C     C_R   0.843781 0.447016 0.663560 -0.014357
C74   C     C_R   0.860883 0.470788 0.834425 -0.014983
C75   C     C_R   0.415641 0.824798 0.287623 0.543504
C76   C     C_R   0.415851 0.824801 0.212426 0.543283
C77   C     C_R   0.887027 0.451484 0.640091 -0.051820
C78   C     C_R   0.907853 0.481442 0.857202 -0.058441
C79   C     C_R   0.953860 0.435362 0.639686 0.240380
C80   C     C_R   0.963151 0.450243 0.859001 0.247780
C81   C     C_R   0.012245 0.409876 0.490267 0.014598
C82   C     C_R   0.060191 0.422845 0.007630 0.005838
C83   C     C_R   0.083256 0.480278 0.479780 0.026850
C84   C     C_R   0.096742 0.503641 0.018779 0.019462
C85   C     C_R   0.147974 0.536718 0.496786 0.003111
C86   C     C_R   0.124201 0.574173 0.002380 0.015166
C87   C     C_R   0.943431 0.361194 0.473603 -0.149592
C88   C     C_R   0.051082 0.356845 0.023712 -0.154703
C89   C     C_R   0.233763 0.605062 0.457785 -0.124266
C90   C     C_R   0.150507 0.660959 0.041484 -0.113192
C91   C     C_R   0.182736 0.599076 0.542878 0.018374
C92   C     C_R   0.166987 0.631359 0.957092 0.023220
C93   C     C_R   0.167343 0.585643 0.570515 0.031049
C94   C     C_R   0.134296 0.626170 0.931624 0.037145
C95   C     C_R   0.225637 0.592522 0.484946 -0.169028
C96   C     C_R   0.145706 0.651494 0.014207 -0.146334
C97   C     C_R   0.030193 0.455520 0.408096 0.418693
C98   C     C_R   0.084583 0.453250 0.090197 0.430798
C99   C     C_R   0.371569 0.920825 0.404842 0.420174
C100  C     C_R   0.374532 0.934364 0.096516 0.421289
C101  C     C_R   0.505515 0.044892 0.397805 0.419166
C102  C     C_R   0.516573 0.046089 0.102915 0.418994
C103  C     C_R   0.500278 0.924165 0.353935 -0.058631
C104  C     C_R   0.499653 0.921076 0.145824 -0.060819
C105  C     C_R   0.495194 0.888994 0.329150 -0.140722
C106  C     C_R   0.493419 0.884565 0.170359 -0.140947
C107  C     C_R   0.369766 0.896702 0.319765 -0.141741
C108  C     C_R   0.374970 0.902954 0.181356 -0.137135
C109  C     C_R   0.375354 0.932413 0.344429 -0.058495
C110  C     C_R   0.382010 0.940457 0.156951 -0.053241
C111  C     C_R   0.439364 0.944418 0.361914 0.241771
C112  C     C_R   0.443108 0.947953 0.138783 0.237284
C113  C     C_R   0.440193 0.017091 0.441163 -0.038745
C114  C     C_R   0.451984 0.024325 0.059725 -0.038260
C115  C     C_R   0.370952 0.943777 0.431210 0.011542
C116  C     C_R   0.377050 0.958043 0.070098 0.013691
C117  C     C_R   0.301165 0.896575 0.447483 -0.095542
C118  C     C_R   0.305455 0.918570 0.054127 -0.094724
C119  C     C_R   0.171399 0.570011 0.413644 0.444481
C120  C     C_R   0.136331 0.600849 0.085531 0.430837
C121  C     C_R   0.507381 0.068759 0.424255 0.031618
C122  C     C_R   0.521635 0.069898 0.076382 0.031995
C123  C     C_R   0.428601 0.872993 0.312093 0.012261
C124  C     C_R   0.429743 0.873415 0.188102 0.012496
C125  C     C_R   0.562264 0.137841 0.685971 0.005989
C126  C     C_R   0.561600 0.136203 0.813824 0.007578
C127  C     C_R   0.392058 0.991109 0.512789 0.012060
C128  C     C_R   0.402814 0.998981 0.988242 0.014214
C129  C     C_R   0.517454 0.129085 0.505625 0.016910
C130  C     C_R   0.540682 0.125743 0.994504 0.017265
C131  C     C_R   0.460595 0.065633 0.522926 0.033438
C132  C     C_R   0.477408 0.066475 0.977618 0.032654
C133  C     C_R   0.346009 0.924168 0.530269 -0.165232
C134  C     C_R   0.348969 0.933749 0.971196 -0.160561
C135  C     C_R   0.360695 0.932992 0.557211 -0.125689
C136  C     C_R   0.361766 0.939856 0.944137 -0.125598
C137  C     C_R   0.424116 0.008631 0.567685 0.031724
C138  C     C_R   0.431018 0.010185 0.933139 0.031854
C139  C     C_R   0.474245 0.075422 0.550535 -0.031608
C140  C     C_R   0.489763 0.073367 0.949906 -0.032003
C141  C     C_R   0.117399 0.605451 0.358616 -0.055261
C142  C     C_R   0.087120 0.582835 0.144004 -0.056062
C143  C     C_R   0.539210 0.151241 0.560858 0.024916
C144  C     C_R   0.561450 0.142676 0.939062 0.027188
C145  C     C_R   0.553647 0.158978 0.588160 0.412420
C146  C     C_R   0.572500 0.148730 0.911593 0.416737
C147  C     C_R   0.440554 0.018057 0.594863 0.416431
C148  C     C_R   0.444150 0.017733 0.905760 0.416635
C149  C     C_R   0.464204 0.105289 0.649795 -0.067875
C150  C     C_R   0.472357 0.112310 0.852063 -0.069100
C151  C     C_R   0.484328 0.123511 0.676334 -0.150907
C152  C     C_R   0.490161 0.132536 0.825493 -0.151579
C153  C     C_R   0.617361 0.128461 0.668839 -0.138714
C154  C     C_R   0.611403 0.113563 0.828839 -0.134888
C155  C     C_R   0.597197 0.110561 0.642252 -0.062111
C156  C     C_R   0.593518 0.093515 0.855426 -0.055540
C157  C     C_R   0.521561 0.101149 0.632510 0.240424
C158  C     C_R   0.525446 0.095297 0.867314 0.241564
C159  C     C_R   0.376945 0.982624 0.485235 0.018911
C160  C     C_R   0.388338 0.994587 0.015825 0.020728
C161  C     C_R   0.443222 0.037459 0.468238 0.019837
C162  C     C_R   0.457919 0.043504 0.032499 0.020230
C163  C     C_R   0.132286 0.621827 0.331660 -0.132192
C164  C     C_R   0.101955 0.597113 0.171118 -0.137199
C165  C     C_R   0.513159 0.111568 0.478240 0.017493
C166  C     C_R   0.533788 0.110309 0.022059 0.018157
C167  C     C_R   0.300264 0.919823 0.473689 -0.004026
C168  C     C_R   0.308341 0.941649 0.027736 -0.004306
C169  C     C_R   0.575429 0.142366 0.434218 -0.111379
C170  C     C_R   0.595275 0.137171 0.066075 -0.109991
C171  C     C_R   0.578844 0.206185 0.516531 -0.152169
C172  C     C_R   0.610321 0.196185 0.983047 -0.148190
C173  C     C_R   0.588657 0.217294 0.543661 -0.129531
C174  C     C_R   0.620248 0.204523 0.955866 -0.115757
C175  C     C_R   0.578314 0.163543 0.460650 -0.143890
C176  C     C_R   0.601274 0.157210 0.039494 -0.141392
C177  C     C_R   0.544265 0.581716 0.407984 0.417410
C178  C     C_R   0.542524 0.583570 0.091592 0.418563
C179  C     C_R   0.394669 0.523930 0.411491 0.428056
C180  C     C_R   0.396074 0.541606 0.087789 0.421858
C181  C     C_R   0.410048 0.487697 0.353065 -0.058640
C182  C     C_R   0.403899 0.492707 0.145389 -0.067219
C183  C     C_R   0.397080 0.495061 0.326354 -0.139708
C184  C     C_R   0.391522 0.497680 0.172303 -0.152612
C185  C     C_R   0.132295 0.491399 0.325893 -0.139171
C186  C     C_R   0.179405 0.522594 0.170222 -0.146053
C187  C     C_R   0.491854 0.644976 0.328909 -0.143533
C188  C     C_R   0.495590 0.645642 0.171713 -0.145449
C189  C     C_R   0.504055 0.637583 0.355646 -0.058091
C190  C     C_R   0.507439 0.640621 0.144797 -0.063522
C191  C     C_R   0.461564 0.559252 0.368073 0.241240
C192  C     C_R   0.460066 0.564697 0.131345 0.239751
C193  C     C_R   0.478793 0.556974 0.451294 -0.031755
C194  C     C_R   0.480530 0.568166 0.048227 -0.031606
C195  C     C_R   0.551409 0.584413 0.435583 0.030824
C196  C     C_R   0.551021 0.587675 0.064059 0.030619
C197  C     C_R   0.629266 0.612180 0.447801 -0.116307
C198  C     C_R   0.627946 0.608949 0.052021 -0.116170
C199  C     C_R   0.399624 0.523757 0.439141 0.028123
C200  C     C_R   0.402063 0.542963 0.060158 0.032954
C201  C     C_R   0.436028 0.574137 0.314170 0.010091
C202  C     C_R   0.435390 0.574824 0.185578 0.007263
C203  C     C_R   0.567304 0.441715 0.688234 0.002338
C204  C     C_R   0.567629 0.442095 0.811771 0.005640
C205  C     C_R   0.573460 0.611237 0.518793 0.018388
C206  C     C_R   0.578142 0.615826 0.981074 0.019196
C207  C     C_R   0.116880 0.474937 0.352815 -0.047009
C208  C     C_R   0.166964 0.510841 0.143237 -0.049344
C209  C     C_R   0.419023 0.524910 0.522884 0.014679
C210  C     C_R   0.423552 0.538181 0.976712 0.015598
C211  C     C_R   0.500393 0.565138 0.534499 0.019356
C212  C     C_R   0.505075 0.573339 0.965255 0.020703
C213  C     C_R   0.651007 0.665223 0.531777 -0.003351
C214  C     C_R   0.657256 0.665648 0.968304 -0.002748
C215  C     C_R   0.659709 0.650525 0.558295 -0.096001
C216  C     C_R   0.665371 0.649998 0.941798 -0.095550
C217  C     C_R   0.589688 0.595670 0.573408 0.016408
C218  C     C_R   0.594559 0.597869 0.926617 0.015871
C219  C     C_R   0.509145 0.557947 0.561993 -0.036964
C220  C     C_R   0.513882 0.564251 0.937880 -0.037417
C221  C     C_R   0.437708 0.511116 0.577890 0.028520
C222  C     C_R   0.442224 0.519373 0.921983 0.033839
C223  C     C_R   0.448115 0.498949 0.604671 0.415641
C224  C     C_R   0.452368 0.505152 0.895332 0.418330
C225  C     C_R   0.598369 0.579048 0.599878 0.414087
C226  C     C_R   0.602709 0.579744 0.900242 0.417239
C227  C     C_R   0.590196 0.557381 0.659941 -0.068895
C228  C     C_R   0.593474 0.558658 0.840154 -0.065509
Cr1   Cr    Cr6+3 0.456550 0.732290 0.250000 1.024230
Cr2   Cr    Cr6+3 0.275740 0.543450 0.250000 1.021745
Cr3   Cr    Cr6+3 0.267710 0.724260 0.250000 1.021671
Cr4   Cr    Cr6+3 0.543450 0.275740 0.750000 1.015510
Cr5   Cr    Cr6+3 0.724260 0.267710 0.750000 1.016377
Cr6   Cr    Cr6+3 0.732290 0.456550 0.750000 1.003065
H1    H     H_    0.140164 0.447380 0.313784 0.133634
H2    H     H_    0.217364 0.500292 0.179627 0.146008
H3    H     H_    0.113081 0.650530 0.371250 0.140938
H4    H     H_    0.050799 0.605990 0.134027 0.147343
H5    H     H_    0.294552 0.650736 0.449863 0.170608
H6    H     H_    0.167868 0.721746 0.049656 0.153553
H7    H     H_    0.868863 0.466053 0.621514 0.122959
H8    H     H_    0.898874 0.511411 0.874307 0.121594
H9    H     H_    0.282035 0.623254 0.496276 0.141121
H10   H     H_    0.153898 0.703950 0.002561 0.100068
H11   H     H_    0.317968 0.885483 0.307009 0.126772
H12   H     H_    0.325545 0.895455 0.194715 0.128542
H13   H     H_    0.328205 0.948188 0.350327 0.132553
H14   H     H_    0.338344 0.961478 0.151843 0.139516
H15   H     H_    0.245154 0.843625 0.439420 0.164565
H16   H     H_    0.245766 0.872482 0.062572 0.163778
H17   H     H_    0.112468 0.418655 0.360942 0.141239
H18   H     H_    0.195081 0.479808 0.132714 0.186270
H19   H     H_    0.440633 0.130465 0.689009 0.130080
H20   H     H_    0.450587 0.149721 0.814518 0.130339
H21   H     H_    0.405618 0.098056 0.642425 0.130912
H22   H     H_    0.419664 0.113905 0.861116 0.127494
H23   H     H_    0.322984 0.879629 0.569785 0.151610
H24   H     H_    0.317539 0.888794 0.931835 0.150908
H25   H     H_    0.300383 0.862975 0.523164 0.116621
H26   H     H_    0.297682 0.876073 0.978713 0.099588
H27   H     H_    0.541088 0.870875 0.323856 0.129397
H28   H     H_    0.535983 0.861710 0.174940 0.128397
H29   H     H_    0.549687 0.932629 0.367343 0.134274
H30   H     H_    0.546662 0.925815 0.131904 0.136275
H31   H     H_    0.627885 0.183326 0.421669 0.166471
H32   H     H_    0.649613 0.173712 0.078465 0.166090
H33   H     H_    0.619870 0.259375 0.504504 0.110656
H34   H     H_    0.657751 0.246707 0.994625 0.106055
H35   H     H_    0.678128 0.139842 0.675583 0.141974
H36   H     H_    0.666890 0.115858 0.820485 0.139854
H37   H     H_    0.894247 0.336989 0.434560 0.162082
H38   H     H_    0.048676 0.312981 0.062729 0.164287
H39   H     H_    0.637451 0.277152 0.551099 0.158331
H40   H     H_    0.675144 0.259345 0.948055 0.164770
H41   H     H_    0.641726 0.107111 0.629004 0.133188
H42   H     H_    0.634639 0.080058 0.867077 0.133891
H43   H     H_    0.634493 0.219208 0.467014 0.106739
H44   H     H_    0.661134 0.207786 0.033014 0.103558
H45   H     H_    0.522190 0.706890 0.320231 0.132997
H46   H     H_    0.529952 0.706136 0.181255 0.133144
H47   H     H_    0.543730 0.693448 0.366984 0.135757
H48   H     H_    0.550900 0.696709 0.134155 0.133538
H49   H     H_    0.685486 0.629399 0.436326 0.163262
H50   H     H_    0.682159 0.620320 0.063595 0.163225
H51   H     H_    0.647928 0.572657 0.697859 0.122680
H52   H     H_    0.649761 0.572644 0.801991 0.117509
H53   H     H_    0.620279 0.624174 0.656559 0.150696
H54   H     H_    0.624767 0.625536 0.843566 0.143315
H55   H     H_    0.720969 0.685609 0.567483 0.160505
H56   H     H_    0.727160 0.681805 0.932723 0.158704
H57   H     H_    0.957425 0.395563 0.705009 0.109779
H58   H     H_    0.935939 0.367296 0.797338 0.111467
H59   H     H_    0.696540 0.635049 0.483442 0.117022
H60   H     H_    0.695647 0.627912 0.016510 0.117157
H61   H     H_    0.353733 0.439341 0.315540 0.134643
H62   H     H_    0.344645 0.442036 0.182404 0.135785
H63   H     H_    0.377507 0.426693 0.362329 0.137443
H64   H     H_    0.367562 0.433526 0.135251 0.138636
H65   H     H_    0.265353 0.464594 0.446039 0.163797
H66   H     H_    0.270455 0.500932 0.052887 0.164173
H67   H     H_    0.284448 0.450944 0.532562 0.110105
H68   H     H_    0.289047 0.466622 0.967323 0.110147
H69   H     H_    0.483148 0.318287 0.672348 0.134924
H70   H     H_    0.482352 0.319180 0.827774 0.128564
H71   H     H_    0.301411 0.440002 0.578361 0.154674
H72   H     H_    0.305833 0.452952 0.921447 0.158451
H73   H     H_    0.459697 0.369442 0.630848 0.145033
H74   H     H_    0.460906 0.371841 0.869496 0.137806
H75   H     H_    0.273909 0.465763 0.492639 0.114256
H76   H     H_    0.280376 0.499477 0.006183 0.108414
H77   H     H_    0.883750 0.313342 0.481476 0.110271
H78   H     H_    0.039673 0.298300 0.015320 0.113000
H79   H     H_    0.140529 0.680340 0.324123 0.140096
H80   H     H_    0.078398 0.632562 0.181507 0.134950
N1    N     N_R   0.103889 0.519632 0.397557 -0.387296
N2    N     N_R   0.112267 0.531388 0.101394 -0.379337
N3    N     N_R   0.991660 0.436590 0.614557 -0.385980
N4    N     N_R   0.001726 0.455518 0.884152 -0.383240
N5    N     N_R   0.438675 0.971006 0.388570 -0.386034
N6    N     N_R   0.444361 0.977560 0.112448 -0.387512
N7    N     N_R   0.505088 0.092370 0.604679 -0.385531
N8    N     N_R   0.514088 0.086584 0.895388 -0.388277
N9    N     N_R   0.466771 0.553607 0.396283 -0.384858
N10   N     N_R   0.466047 0.562131 0.103104 -0.384116
N11   N     N_R   0.527918 0.529081 0.615020 -0.376980
N12   N     N_R   0.531885 0.531933 0.885112 -0.379437
O1    O     O_R   0.475290 0.813700 0.278840 -0.512213
O2    O     O_R   0.475290 0.813700 0.221160 -0.512430
O3    O     O_2   0.236816 0.625313 0.403993 -0.470777
O4    O     O_2   0.163496 0.670092 0.095437 -0.488614
O5    O     O_2   0.089040 0.570910 0.619967 -0.534494
O6    O     O_2   0.100214 0.589303 0.877479 -0.540792
O7    O     O_2   0.312880 0.855567 0.396393 -0.507709
O8    O     O_2   0.310743 0.874282 0.105243 -0.486341
O9    O     O_2   0.398146 0.959991 0.609809 -0.523119
O10   O     O_2   0.393709 0.963020 0.891110 -0.521292
O11   O     O_2   0.563280 0.089636 0.382972 -0.512852
O12   O     O_2   0.576491 0.085892 0.117541 -0.514859
O13   O     O_2   0.609407 0.224883 0.597297 -0.536205
O14   O     O_2   0.633762 0.209548 0.902016 -0.506754
O15   O     O_2   0.606960 0.604482 0.394308 -0.519097
O16   O     O_2   0.603085 0.598998 0.105393 -0.518532
O17   O     O_2   0.668728 0.607137 0.609228 -0.549395
O18   O     O_2   0.672811 0.604510 0.890948 -0.543781
O19   O     O_2   0.326397 0.498997 0.400935 -0.509333
O20   O     O_2   0.328898 0.523148 0.098258 -0.538151
O21   O     O_2   0.386213 0.460408 0.618733 -0.532460
O22   O     O_2   0.390476 0.467852 0.881266 -0.528969
O23   O     O_R   0.448450 0.657720 0.276690 -0.494779
O24   O     O_R   0.448450 0.657720 0.223310 -0.494416
O25   O     O_R   0.524710 0.338410 0.721160 -0.506778
O26   O     O_R   0.524710 0.338410 0.778840 -0.507711
O27   O     O_R   0.551550 0.209270 0.723310 -0.497802
O28   O     O_R   0.551550 0.209270 0.776690 -0.497487
O29   O     O_R   0.661590 0.186300 0.721160 -0.508919
O30   O     O_R   0.661590 0.186300 0.778840 -0.509040
O31   O     O_R   0.790730 0.342280 0.723310 -0.492332
O32   O     O_R   0.790730 0.342280 0.776690 -0.493355
O33   O     O_R   0.813700 0.475290 0.721160 -0.508925
O34   O     O_R   0.813700 0.475290 0.778840 -0.511645
O35   O     O_R   0.657720 0.448450 0.723310 -0.500855
O36   O     O_R   0.657720 0.448450 0.776690 -0.502153
O37   O     O_3   0.666667 0.333333 0.750000 -0.230102
O38   O     O_R   0.338410 0.524710 0.278840 -0.510468
O39   O     O_R   0.338410 0.524710 0.221160 -0.517819
O40   O     O_R   0.209270 0.551550 0.276690 -0.492129
O41   O     O_R   0.209270 0.551550 0.223310 -0.497206
O42   O     O_R   0.186300 0.661590 0.278840 -0.510719
O43   O     O_R   0.186300 0.661590 0.221160 -0.503731
O44   O     O_R   0.342280 0.790730 0.276690 -0.496958
O45   O     O_R   0.342280 0.790730 0.223310 -0.494179
O46   O     O_3   0.333333 0.666667 0.250000 -0.232052
O47   O     O_2   0.971236 0.411364 0.393630 -0.512547
O48   O     O_2   0.061200 0.391746 0.104236 -0.520905
O49   O     O_2   0.905443 0.299359 0.608865 -0.548140
O50   O     O_2   0.907595 0.321083 0.892569 -0.527662
C229  C     C_3   0.234581 0.690115 0.533518 -0.280087
C230  C     C_3   0.330606 0.725406 0.532865 -0.455002
H81   H     H_    0.346935 0.676105 0.537061 0.164099
H82   H     H_    0.356539 0.753621 0.513330 0.143567
H83   H     H_    0.363067 0.776687 0.547397 0.144747
H84   H     H_    0.212527 0.698500 0.514066 0.146578
H85   H     H_    0.220896 0.730251 0.546619 0.131853
C231  C     C_3   0.257855 0.698966 0.962799 -0.275526
C232  C     C_3   0.314321 0.660732 0.965615 -0.417570
H86   H     H_    0.295112 0.619067 0.983025 0.158944
H87   H     H_    0.310381 0.624468 0.947661 0.167269
H88   H     H_    0.380678 0.711131 0.968326 0.150450
H89   H     H_    0.284545 0.744942 0.946551 0.147335
H90   H     H_    0.264517 0.735879 0.980610 0.136076
C233  C     C_3   0.767143 0.458711 0.663609 -0.266329
C234  C     C_3   0.736331 0.467935 0.636545 -0.425047
H91   H     H_    0.784565 0.526094 0.626706 0.173244
H92   H     H_    0.720484 0.412459 0.624058 0.182197
H93   H     H_    0.678673 0.472311 0.638908 0.182906
H94   H     H_    0.713931 0.403487 0.673280 0.156687
H95   H     H_    0.781722 0.515171 0.675394 0.180952
C235  C     C_3   0.795833 0.498424 0.835470 -0.256806
C236  C     C_3   0.836268 0.592301 0.830483 -0.402782
H96   H     H_    0.884990 0.628020 0.845576 0.156520
H97   H     H_    0.865806 0.608414 0.810667 0.177400
H98   H     H_    0.787567 0.611094 0.831603 0.153155
H99   H     H_    0.744008 0.463294 0.821331 0.175946
H100  H     H_    0.765247 0.484016 0.855185 0.160677
C237  C     C_3   0.233964 0.645390 0.590115 -0.241640
C238  C     C_3   0.268637 0.600488 0.606782 -0.394632
H101  H     H_    0.218743 0.549171 0.618628 0.180366
H102  H     H_    0.298390 0.574053 0.593825 0.154132
H103  H     H_    0.317202 0.645874 0.620469 0.155591
H104  H     H_    0.289273 0.696692 0.580548 0.140700
H105  H     H_    0.210306 0.678593 0.602548 0.206468
C239  C     C_3   0.147559 0.706699 0.918599 -0.245162
C240  C     C_3   0.128423 0.760243 0.937379 -0.467850
H106  H     H_    0.063037 0.723186 0.945012 0.157444
H107  H     H_    0.172467 0.783329 0.954221 0.135629
H108  H     H_    0.134719 0.815546 0.926685 0.150173
H109  H     H_    0.212618 0.743710 0.910781 0.166763
H110  H     H_    0.103844 0.693831 0.902036 0.204348
C241  C     C_3   0.214985 0.883694 0.487285 -0.288318
C242  C     C_3   0.153078 0.899219 0.471563 -0.432625
H111  H     H_    0.181418 0.966946 0.467021 0.165373
H112  H     H_    0.134797 0.862811 0.452952 0.152849
H113  H     H_    0.094998 0.879135 0.483356 0.139529
H114  H     H_    0.187864 0.815244 0.490202 0.136092
H115  H     H_    0.220201 0.913580 0.506660 0.159473
C243  C     C_3   0.225062 0.917148 0.014280 -0.290785
C244  C     C_3   0.172776 0.946426 0.029768 -0.432934
H116  H     H_    0.150064 0.911960 0.048628 0.154508
H117  H     H_    0.210704 0.014685 0.033823 0.166732
H118  H     H_    0.116826 0.934376 0.018040 0.137942
H119  H     H_    0.234820 0.946775 0.994669 0.159745
H120  H     H_    0.188076 0.848093 0.011866 0.126137
C245  C     C_3   0.721481 0.744573 0.519312 -0.288247
C246  C     C_3   0.740522 0.823055 0.535012 -0.436134
H121  H     H_    0.682081 0.826137 0.537917 0.163324
H122  H     H_    0.768203 0.823785 0.554462 0.152198
H123  H     H_    0.786679 0.879678 0.524033 0.138128
H124  H     H_    0.779413 0.739858 0.517874 0.139359
H125  H     H_    0.704395 0.755115 0.499371 0.158693
C247  C     C_3   0.730929 0.741719 0.981069 -0.287879
C248  C     C_3   0.756560 0.822211 0.965653 -0.436707
H126  H     H_    0.783634 0.821092 0.946196 0.149408
H127  H     H_    0.701248 0.830646 0.962781 0.165095
H128  H     H_    0.805212 0.876789 0.976824 0.137649
H129  H     H_    0.714856 0.753513 0.001058 0.159502
H130  H     H_    0.785682 0.731711 0.982492 0.137954
C249  C     C_3   0.052083 0.397616 0.663813 -0.250761
C250  C     C_3   0.020282 0.304803 0.668514 -0.426831
H131  H     H_    0.988089 0.284861 0.687885 0.144130
H132  H     H_    0.975788 0.266472 0.652733 0.201782
H133  H     H_    0.074300 0.293493 0.668375 0.145324
H134  H     H_    0.088315 0.416188 0.645109 0.170432
H135  H     H_    0.096657 0.435176 0.679703 0.142420
C251  C     C_3   0.033135 0.373949 0.838251 -0.267454
C252  C     C_3   0.124978 0.443493 0.836652 -0.410448
H136  H     H_    0.135582 0.482273 0.818808 0.164542
H137  H     H_    0.142892 0.483953 0.854366 0.204907
H138  H     H_    0.166147 0.415424 0.835517 0.149377
H139  H     H_    0.022712 0.337026 0.856491 0.176299
H140  H     H_    0.020708 0.330275 0.821534 0.130436
C253  C     C_3   0.836486 0.232342 0.560064 -0.247881
C254  C     C_3   0.772246 0.210181 0.537877 -0.458244
H141  H     H_    0.771005 0.266974 0.531327 0.155017
H142  H     H_    0.785787 0.181465 0.520789 0.141234
H143  H     H_    0.708733 0.163537 0.545217 0.157605
H144  H     H_    0.841264 0.176554 0.565439 0.153872
H145  H     H_    0.807376 0.247443 0.576714 0.216061
C255  C     C_3   0.940067 0.234097 0.931295 -0.247414
C256  C     C_3   0.981812 0.190028 0.944754 -0.464826
H146  H     H_    0.051372 0.230970 0.944563 0.157470
H147  H     H_    0.959828 0.173174 0.965355 0.144885
H148  H     H_    0.965402 0.131301 0.934012 0.142031
H149  H     H_    0.870515 0.194574 0.932381 0.164552
H150  H     H_    0.958457 0.238201 0.910303 0.187143
C257  C     C_3   0.948230 0.234620 0.514443 -0.270429
C258  C     C_3   0.034756 0.243853 0.509529 -0.429516
H151  H     H_    0.070956 0.293942 0.494903 0.159603
H152  H     H_    0.070886 0.259048 0.528197 0.155693
H153  H     H_    0.026967 0.184144 0.501676 0.138894
H154  H     H_    0.913103 0.178481 0.527060 0.144943
H155  H     H_    0.913646 0.219929 0.495623 0.137553
C259  C     C_3   0.898560 0.268577 0.986733 -0.261875
C260  C     C_3   0.852457 0.307920 0.000474 -0.425482
H156  H     H_    0.832614 0.339275 0.985842 0.154008
H157  H     H_    0.795590 0.258146 0.010485 0.128002
H158  H     H_    0.892605 0.354052 0.015578 0.170835
H159  H     H_    0.850806 0.218239 0.974111 0.147157
H160  H     H_    0.915714 0.235145 0.001167 0.130725

loop_
_geom_bond_atom_site_label_1
_geom_bond_atom_site_label_2
_ccdc_geom_bond_type
C194  C196  A    
C244  H116  S    
C63   C65   A    
Cr6   O35   S    
C75   O1    A    
C33   C45   S    
C185  C207  A    
C145  N7    Am   
C2    C202  S    
C39   C87   A    
C4    N2    S    
C8    H70   S    
Cr3   O46   S    
C170  C176  A    
C256  H146  S    
C214  C247  S    
C171  C173  A    
C71   H57   S    
C242  H111  S    
C18   C210  A    
C84   C86   A    
C4    C142  A    
C254  H142  S    
C57   C59   A    
C155  C157  A    
C178  O16   D    
C58   C60   A    
C259  H159  S    
C108  H12   S    
C20   H60   S    
C105  C123  A    
C60   C62   A    
C79   N3    S    
Cr5   O30   S    
C61   C63   A    
C12   N12   S    
C96   H10   S    
Cr2   O39   S    
C7    C203  A    
C33   O33   A    
Cr4   O37   S    
C39   H37   S    
C122  C170  A    
C50   C52   A    
C159  C161  A    
C171  H33   S    
C183  H61   S    
Cr4   O25   S    
C46   C72   A    
C151  H19   S    
C206  C214  A    
C40   H38   S    
C240  H107  S    
Cr5   O37   S    
C182  C192  A    
C49   C91   A    
C258  H152  S    
C4    C208  A    
C77   C79   A    
C87   H77   S    
C88   H78   S    
C27   C221  A    
C183  C201  A    
C175  H43   S    
C8    C204  A    
C234  H92   S    
C91   C229  S    
C25   C41   A    
C26   C38   A    
C248  H128  S    
C212  C220  A    
C193  C199  A    
C21   C29   A    
C64   C66   A    
C53   O40   A    
C146  O14   D    
C237  H104  S    
C157  N7    S    
C23   H67   S    
C227  H53   S    
C228  H54   S    
C99   O7    D    
C92   C94   A    
C257  H155  S    
C99   N5    Am   
C20   C198  A    
C138  C140  A    
C168  C243  S    
C126  C154  A    
C210  C212  A    
C185  H1    S    
C187  H45   S    
C14   C206  A    
C238  H102  S    
C143  C173  A    
Cr3   O44   S    
C213  C245  S    
C188  H46   S    
C256  H148  S    
C135  C137  A    
C187  C201  A    
C177  C195  A    
C28   H72   S    
C242  H113  S    
C101  O11   D    
C186  C208  A    
C111  N5    S    
C181  H63   S    
C68   N4    Am   
C3    C207  A    
C250  H131  S    
C40   C88   A    
C156  C158  A    
C64   C94   A    
C229  H84   S    
C172  H34   S    
C237  C238  S    
Cr5   O32   S    
C99   C115  A    
C174  H40   S    
C255  H150  S    
C216  H56   S    
C92   C231  S    
C188  C202  A    
C159  C167  A    
C47   C81   A    
C241  H115  S    
C127  C131  A    
C156  H42   S    
C12   C228  A    
C113  C161  A    
C206  C212  A    
C48   C52   A    
C260  H158  S    
C8    C10   A    
C106  C124  A    
C251  H139  S    
C133  C135  A    
C205  C211  A    
C247  H129  S    
C104  H30   S    
C230  H81   S    
C154  H36   S    
C218  C226  A    
C161  C165  A    
C160  C162  A    
C113  C115  A    
C7    H69   S    
C41   C89   A    
C45   C71   A    
C36   O26   A    
C241  C242  S    
C3    C141  A    
C48   C56   A    
C38   C98   A    
Cr1   O2    S    
C75   O44   A    
C243  H120  S    
C253  C254  S    
C247  C248  S    
C224  N12   Am   
C244  H117  S    
C77   H7    S    
C93   C237  S    
C120  N2    Am   
C53   O42   A    
C239  C240  S    
C216  C218  A    
C176  H44   S    
C109  C111  A    
C34   O34   A    
C214  C216  A    
C98   N2    Am   
C43   C185  A    
C236  H96   S    
C106  H28   S    
C188  C190  A    
C208  H18   S    
C32   C126  S    
C189  C191  A    
C125  C151  A    
C59   C67   A    
C139  C143  A    
C194  C200  A    
C138  C148  A    
C62   C64   A    
C251  C252  S    
C34   C46   S    
C14   C16   A    
C180  O20   D    
C160  C168  A    
C239  H110  S    
C134  H26   S    
C21   C199  A    
C192  N10   S    
C13   C205  A    
C81   C83   A    
C172  C174  A    
C54   O41   A    
C186  H2    S    
C31   O27   A    
C59   C61   A    
C70   C72   A    
C1    O38   A    
C167  C241  S    
C76   C124  S    
C250  H133  S    
C225  N11   Am   
C104  C112  A    
C105  H27   S    
C49   C51   A    
C178  C196  A    
C5    C227  A    
C189  H47   S    
C42   C90   A    
C235  H100  S    
C3    N1    S    
C180  C200  A    
C128  C134  A    
C30   H76   S    
C218  C220  A    
C260  H156  S    
C2    O24   A    
C69   C249  S    
C11   N11   S    
Cr2   O41   S    
C103  C105  A    
C34   O32   A    
C222  C224  A    
C197  H49   S    
C198  H50   S    
C28   C222  A    
C58   C255  S    
C74   C78   A    
C173  H39   S    
C69   C79   A    
C31   C125  S    
C144  C174  A    
C54   O43   A    
C57   C253  S    
C26   C42   A    
C25   C83   A    
C76   O2    A    
C100  O8    D    
C26   C84   A    
Cr6   O36   S    
C21   H65   S    
C22   H66   S    
C24   C28   A    
C5    C203  A    
C114  C116  A    
C90   C96   A    
C149  H21   S    
C120  O4    D    
C169  H31   S    
C242  H112  S    
C72   H58   S    
C52   C62   A    
C231  H89   S    
C147  O9    D    
C85   C95   A    
C254  H143  S    
C42   C120  A    
C80   N4    S    
C82   C88   A    
C56   C58   A    
C5    H51   S    
Cr5   O29   S    
C110  C112  A    
Cr2   O40   S    
C131  C139  A    
C36   O36   A    
C44   C54   S    
C113  C121  A    
C255  C256  S    
C109  H13   S    
C11   C227  A    
C27   H71   S    
C248  H127  S    
C232  H87   S    
C207  H17   S    
Cr4   O26   S    
C217  C225  A    
C195  C197  A    
Cr1   O24   S    
C67   N3    Am   
C240  H106  S    
C177  O15   D    
C146  N8    Am   
C17   C29   A    
C182  H64   S    
C102  N6    Am   
C100  C116  A    
C107  C123  A    
C163  H79   S    
C1    C201  S    
C104  C106  A    
C246  H121  S    
Cr4   O27   S    
C137  C139  A    
C73   C233  S    
C22   C200  A    
C108  C124  A    
C147  N7    Am   
C17   C209  A    
C142  C164  A    
C114  C162  A    
C243  C244  S    
C253  H145  S    
Cr6   O33   S    
C103  C111  A    
C73   C77   A    
C249  H134  S    
C127  C133  A    
C257  H154  S    
C162  C166  A    
C43   C53   S    
C130  C172  A    
C115  C117  A    
C6    C228  A    
C153  C155  A    
C19   H59   S    
C154  C156  A    
C65   O5    D    
C56   C259  S    
C24   H68   S    
C213  C215  A    
C205  C213  A    
C252  H136  S    
C107  C109  A    
C107  H11   S    
C29   H75   S    
C37   C97   A    
C258  H151  S    
Cr3   O43   S    
C65   N3    Am   
C164  H80   S    
C256  H147  S    
C19   C197  A    
C135  H23   S    
C13   C19   A    
C70   C80   A    
C249  C250  S    
C249  H135  S    
C144  C146  A    
C181  C183  A    
C24   C210  A    
C254  H141  S    
C47   C51   A    
C101  C121  A    
Cr5   O31   S    
C89   C95   A    
C130  C132  A    
C2    O39   A    
C6    C204  A    
C14   C20   A    
C91   C93   A    
C130  C166  A    
Cr3   O45   S    
C180  N10   Am   
C169  C175  A    
C41   C119  A    
C81   C87   A    
C86   C96   A    
C35   O25   A    
C1    O23   A    
C83   C85   A    
C240  H108  S    
C118  H16   S    
C119  N1    Am   
C112  N6    S    
C230  H82   S    
C211  C219  A    
C232  H86   S    
C110  H14   S    
C15   C17   A    
C252  H137  S    
C150  C158  A    
C166  C176  A    
C235  H99   S    
C137  C147  A    
C140  C144  A    
C234  H91   S    
C223  O21   D    
Cr1   O1    S    
C132  C140  A    
C155  H41   S    
C63   C93   A    
C129  C165  A    
C125  C153  A    
C230  H83   S    
C149  C151  A    
C237  H105  S    
C70   C251  S    
C224  O22   D    
C38   C40   A    
C181  C191  A    
C158  N8    S    
C179  C199  A    
C117  C167  A    
C118  C168  A    
C48   C82   A    
C78   C80   A    
C74   C235  S    
C226  N12   Am   
C15   C193  A    
C233  H95   S    
C60   C68   A    
C259  C260  S    
C225  O17   D    
C238  H101  S    
C179  N9    Am   
C44   C164  A    
C102  C122  A    
C149  C157  A    
C258  H153  S    
C245  H124  S    
C44   C186  A    
C101  N5    Am   
C43   C163  A    
C236  H98   S    
C121  C169  A    
C35   O35   A    
C170  H32   S    
C89   H5    S    
C51   C61   A    
C223  N11   Am   
C66   O6    D    
C231  C232  S    
C184  H62   S    
C220  C222  A    
C233  C234  S    
C236  H97   S    
C179  O19   D    
Cr2   O38   S    
C78   H8    S    
C75   C123  S    
C6    H52   S    
C229  H85   S    
C215  C217  A    
C259  H160  S    
Cr2   O46   S    
C255  H149  S    
C45   C73   A    
C69   C71   A    
Cr1   O46   S    
C226  O18   D    
C25   C37   A    
C178  N10   Am   
C108  C110  A    
C193  C195  A    
C238  H103  S    
C252  H138  S    
C142  H4    S    
C18   C30   A    
C23   C27   A    
C102  O12   D    
C232  H88   S    
C68   O50   D    
C126  C152  A    
C234  H93   S    
C128  C132  A    
C148  N8    Am   
C32   O28   A    
C182  C184  A    
C243  H119  S    
C97   O47   D    
C233  H94   S    
C37   C39   A    
C244  H118  S    
C184  C202  A    
Cr6   O37   S    
C246  H123  S    
C49   C85   A    
C16   C194  A    
C136  C138  A    
C257  C258  S    
C134  C136  A    
C23   C209  A    
C245  H125  S    
C67   O49   D    
C190  H48   S    
C231  H90   S    
C219  C221  A    
C150  H22   S    
C9    H73   S    
C10   H74   S    
C117  H15   S    
C9    C11   A    
C229  C230  S    
C100  N6    Am   
C10   C12   A    
C116  C118  A    
C33   O31   A    
C66   N4    Am   
C247  H130  S    
C50   C92   A    
C215  H55   S    
C239  H109  S    
C141  C163  A    
C13   C15   A    
C136  H24   S    
C150  C152  A    
C152  H20   S    
C148  O10   D    
C127  C159  A    
C46   C74   A    
C76   O45   A    
C31   O29   A    
C128  C160  A    
C47   C55   A    
C133  H25   S    
Cr1   O23   S    
C143  C145  A    
C141  H3    S    
C260  H157  S    
C190  C192  A    
C129  C171  A    
C153  H35   S    
Cr3   O42   S    
C145  O13   D    
C246  H122  S    
Cr4   O28   S    
C165  C175  A    
C177  N9    Am   
C82   C84   A    
C119  O3    D    
C90   H6    S    
C55   C57   A    
C241  H114  S    
C221  C223  A    
C22   C30   A    
C251  H140  S    
C94   C239  S    
C35   C203  S    
C248  H126  S    
C253  H144  S    
C209  C211  A    
Cr6   O34   S    
C98   O48   D    
C191  N9    S    
C217  C219  A    
C187  C189  A    
C196  C198  A    
C250  H132  S    
C50   C86   A    
C114  C122  A    
C7    C9    A    
C16   C18   A    
C245  C246  S    
C97   N1    Am   
C103  H29   S    
C235  C236  S    
C55   C257  S    
C36   C204  S    
C32   O30   A    
C95   H9    S    
C129  C131  A    
