data_mof_unit_44318.cif
_audit_creation_date              2013-03-05T15:42:42-0500
_audit_creation_method            fapswitch 2.2
_symmetry_space_group_name_H-M    P1
_symmetry_Int_Tables_number       1
_space_group_crystal_system       triclinic
_cell_length_a                    19.07155
_cell_length_b                    11.131804
_cell_length_c                    18.818595
_cell_angle_alpha                 90.239947
_cell_angle_beta                  91.849875
_cell_angle_gamma                 89.969928
_cell_volume                      3993.08449385

loop_
_atom_site_label
_atom_site_type_symbol
_atom_site_description
_atom_site_fract_x
_atom_site_fract_y
_atom_site_fract_z
_atom_type_partial_charge
O1    O     O_R   0.788190 0.043000 0.172520 -0.477965
O2    O     O_R   0.211810 0.043000 0.827480 -0.423474
O3    O     O_R   0.288190 0.543000 0.172520 -0.425796
O4    O     O_R   0.711810 0.543000 0.827480 -0.426122
O5    O     O_R   0.766240 0.292300 0.176860 -0.506960
O6    O     O_R   0.233760 0.292300 0.823140 -0.505904
O7    O     O_R   0.266240 0.792300 0.176860 -0.504796
O8    O     O_R   0.733760 0.792300 0.823140 -0.493960
C1    C     C_R   0.730714 0.376838 0.146769 0.523961
C2    C     C_R   0.269474 0.378219 0.852762 0.536894
C3    C     C_R   0.231022 0.879713 0.148155 0.536249
C4    C     C_R   0.770304 0.876257 0.854041 0.534844
O9    O     O_R   0.670310 0.409160 0.168720 -0.534809
O10   O     O_R   0.329690 0.409160 0.831280 -0.512891
O11   O     O_R   0.170310 0.909160 0.168720 -0.514972
O12   O     O_R   0.829690 0.909160 0.831280 -0.527389
O13   O     O_R   0.556160 0.251900 0.173380 -0.486773
O14   O     O_R   0.443840 0.251900 0.826620 -0.472873
O15   O     O_R   0.056160 0.751900 0.173380 -0.490690
O16   O     O_R   0.943840 0.751900 0.826620 -0.487652
C5    C     C_R   0.562003 0.150633 0.138014 0.563012
C6    C     C_R   0.467924 0.154963 0.855450 0.557939
C7    C     C_R   0.032755 0.654980 0.144438 0.536833
C8    C     C_R   0.964291 0.654133 0.857058 0.573303
O17   O     O_R   0.545410 0.050140 0.168240 -0.522849
O18   O     O_R   0.454590 0.050140 0.831760 -0.520175
O19   O     O_R   0.045410 0.550140 0.168240 -0.523103
O20   O     O_R   0.954590 0.550140 0.831760 -0.520917
O21   O     O_R   0.681530 0.958350 0.176970 -0.528073
O22   O     O_R   0.318470 0.958350 0.823030 -0.534335
O23   O     O_R   0.181530 0.458350 0.176970 -0.534188
O24   O     O_R   0.818470 0.458350 0.823030 -0.530482
C9    C     C_R   0.742230 0.967230 0.149312 0.531895
C10   C     C_R   0.259160 0.973288 0.853133 0.588143
C11   C     C_R   0.241795 0.469851 0.148162 0.579252
C12   C     C_R   0.758206 0.469307 0.851416 0.567679
O25   O     O_R   0.788610 0.044480 0.334450 -0.538555
O26   O     O_R   0.211390 0.044480 0.665550 -0.517152
O27   O     O_R   0.288610 0.544480 0.334450 -0.540220
O28   O     O_R   0.711390 0.544480 0.665550 -0.528521
O29   O     O_R   0.766630 0.293670 0.326970 -0.552324
O30   O     O_R   0.233370 0.293670 0.673030 -0.521942
O31   O     O_R   0.266630 0.793670 0.326970 -0.542920
O32   O     O_R   0.733370 0.793670 0.673030 -0.508212
C13   C     C_R   0.731271 0.379237 0.353354 0.521852
C14   C     C_R   0.266691 0.388551 0.650509 0.534441
C15   C     C_R   0.231476 0.879361 0.352940 0.521329
C16   C     C_R   0.785631 0.840434 0.637559 0.527082
O33   O     O_R   0.670730 0.410640 0.330640 -0.487917
O34   O     O_R   0.329270 0.410640 0.669360 -0.525714
O35   O     O_R   0.170730 0.910640 0.330640 -0.495749
O36   O     O_R   0.829270 0.910640 0.669360 -0.534288
O37   O     O_R   0.556550 0.253260 0.323480 -0.484549
O38   O     O_R   0.443450 0.253260 0.676520 -0.474235
O39   O     O_R   0.056550 0.753260 0.323480 -0.496445
O40   O     O_R   0.943450 0.753260 0.676520 -0.522936
C17   C     C_R   0.531757 0.159114 0.351735 0.530933
C18   C     C_R   0.442237 0.152978 0.638732 0.545260
C19   C     C_R   0.032719 0.658976 0.352433 0.516562
C20   C     C_R   0.945875 0.652498 0.639273 0.530254
O41   O     O_R   0.545830 0.051610 0.330160 -0.504833
O42   O     O_R   0.454170 0.051610 0.669840 -0.533177
O43   O     O_R   0.045830 0.551610 0.330160 -0.509415
O44   O     O_R   0.954170 0.551610 0.669840 -0.526413
O45   O     O_R   0.681920 0.959720 0.327070 -0.468966
O46   O     O_R   0.318080 0.959720 0.672930 -0.538929
O47   O     O_R   0.181920 0.459720 0.327070 -0.468633
O48   O     O_R   0.818080 0.459720 0.672930 -0.531997
C21   C     C_R   0.730299 0.023159 0.363403 0.556169
C22   C     C_R   0.257738 0.980602 0.641230 0.558746
C23   C     C_R   0.232223 0.512175 0.364517 0.551125
C24   C     C_R   0.756389 0.476190 0.642597 0.541223
Cr1   Cr    Cr6+3 0.772820 0.169820 0.252640 0.993081
Cr2   Cr    Cr6+3 0.227180 0.169820 0.747360 1.043651
Cr3   Cr    Cr6+3 0.272820 0.669820 0.252640 1.025867
Cr4   Cr    Cr6+3 0.727180 0.669820 0.747360 1.050014
Cr5   Cr    Cr6+3 0.615040 0.323610 0.249150 1.042285
Cr6   Cr    Cr6+3 0.384960 0.323610 0.750850 1.066369
Cr7   Cr    Cr6+3 0.115040 0.823610 0.249150 1.049218
Cr8   Cr    Cr6+3 0.884960 0.823610 0.750850 1.018544
Cr9   Cr    Cr6+3 0.616720 0.011130 0.250660 1.018539
Cr10  Cr    Cr6+3 0.383280 0.011130 0.749340 0.997089
Cr11  Cr    Cr6+3 0.116720 0.511130 0.250660 1.023696
Cr12  Cr    Cr6+3 0.883280 0.511130 0.749340 0.996447
O49   O     O_3   0.668190 0.168190 0.250820 -0.297973
O50   O     O_3   0.331810 0.168190 0.749180 -0.285734
O51   O     O_3   0.168190 0.668190 0.250820 -0.281799
O52   O     O_3   0.831810 0.668190 0.749180 -0.290986
C25   C     C_3   0.502499 0.270311 0.977238 -0.003739
C26   C     C_3   0.466955 0.198340 0.035277 -0.020155
C27   C     C_3   0.052097 0.699663 0.967373 -0.037728
C28   C     C_3   0.010123 0.771212 0.021341 0.000446
C29   C     C_3   0.575720 0.228385 0.004708 -0.142810
C30   C     C_3   0.462117 0.087811 0.986512 -0.135597
C31   C     C_3   0.051892 0.588840 0.015812 -0.128063
C32   C     C_3   0.940379 0.727952 0.986314 -0.127773
H1    H     H_    0.623337 0.282286 0.015150 0.129707
H2    H     H_    0.415045 0.031231 0.977295 0.138673
H3    H     H_    0.098389 0.534206 0.030477 0.143338
H4    H     H_    0.893813 0.780027 0.969784 0.136358
C33   C     C_3   0.539192 0.156155 0.062611 0.020641
C34   C     C_3   0.498372 0.160311 0.928321 0.032027
C35   C     C_3   0.009164 0.660998 0.069871 0.027509
C36   C     C_3   0.983540 0.657007 0.932709 0.022769
C37   C     C_3   0.534891 0.044972 0.014095 -0.120502
C38   C     C_3   0.570851 0.116751 0.955067 -0.132564
C39   C     C_3   0.940111 0.616496 0.035374 -0.145239
C40   C     C_3   0.982383 0.545134 0.980572 -0.111063
H5    H     H_    0.546051 0.953211 0.032844 0.158560
H6    H     H_    0.613133 0.084834 0.920540 0.123404
H7    H     H_    0.894330 0.583560 0.064570 0.117774
H8    H     H_    0.970668 0.452322 0.962330 0.149662
C41   C     C_R   0.754733 0.912051 0.927987 -0.063245
C42   C     C_R   0.250612 0.927035 0.078331 -0.036597
C43   C     C_R   0.251828 0.419370 0.924656 -0.033363
C44   C     C_R   0.749868 0.414750 0.074509 -0.050884
C45   C     C_R   0.695967 0.867463 0.963173 0.006343
C46   C     C_R   0.307980 0.880958 0.042333 0.005041
C47   C     C_R   0.194010 0.373713 0.960346 0.008617
C48   C     C_R   0.804756 0.359533 0.036910 0.004578
C49   C     C_R   0.698317 0.858098 0.038576 -0.009576
C50   C     C_R   0.304911 0.874523 0.966946 -0.031055
C51   C     C_R   0.197287 0.366153 0.035687 -0.038044
C52   C     C_R   0.801217 0.356668 0.961220 -0.024139
C53   C     C_R   0.813348 0.949842 0.042533 0.212861
C54   C     C_R   0.195735 0.988073 0.965966 0.236574
C55   C     C_R   0.308811 0.472292 0.037809 0.239805
C56   C     C_R   0.693604 0.472623 0.962429 0.214547
C57   C     C_R   0.811283 0.957449 0.969203 -0.099585
C58   C     C_R   0.198493 0.989007 0.039803 -0.140400
C59   C     C_R   0.305673 0.475687 0.964117 -0.138681
C60   C     C_R   0.697753 0.476529 0.036187 -0.162824
C61   C     C_R   0.636001 0.826768 0.925205 -0.057636
C62   C     C_R   0.367564 0.837633 0.079739 -0.050491
C63   C     C_R   0.132416 0.337144 0.923178 -0.044819
C64   C     C_R   0.861678 0.302523 0.072248 -0.066308
C65   C     C_R   0.078943 0.281751 0.958883 -0.108241
C66   C     C_R   0.905098 0.226214 0.035620 -0.081603
C67   C     C_R   0.587287 0.756527 0.958328 -0.096286
C68   C     C_R   0.416683 0.770190 0.045004 -0.098780
C69   C     C_R   0.595140 0.731166 0.030597 -0.153232
C70   C     C_R   0.407839 0.747409 0.972597 -0.140743
C71   C     C_R   0.086810 0.259725 0.031389 -0.133247
C72   C     C_R   0.897803 0.214120 0.962345 -0.133658
C73   C     C_R   0.648380 0.785711 0.071337 -0.099045
C74   C     C_R   0.353584 0.800550 0.933270 -0.089741
C75   C     C_R   0.145497 0.299854 0.069495 -0.093537
C76   C     C_R   0.847316 0.280504 0.924952 -0.103173
C77   C     C_R   0.753494 0.913461 0.078360 -0.021905
C78   C     C_R   0.251536 0.937212 0.928394 0.057577
C79   C     C_R   0.251704 0.425562 0.074693 0.050377
C80   C     C_R   0.748801 0.423600 0.924266 0.035028
H9    H     H_    0.626872 0.845993 0.869428 0.136641
H10   H     H_    0.376128 0.853958 0.136062 0.134492
H11   H     H_    0.124241 0.353733 0.866941 0.136655
H12   H     H_    0.873160 0.314389 0.128369 0.137343
H13   H     H_    0.859162 0.984174 0.944632 0.165811
H14   H     H_    0.156282 0.031439 0.067227 0.161931
H15   H     H_    0.348184 0.517527 0.937339 0.164780
H16   H     H_    0.654534 0.516367 0.063539 0.138447
H17   H     H_    0.032854 0.252225 0.929298 0.115191
H18   H     H_    0.941944 0.172040 0.065413 0.178887
H19   H     H_    0.546844 0.715289 0.925707 0.141538
H20   H     H_    0.458628 0.729908 0.075985 0.120619
H21   H     H_    0.048422 0.210543 0.059040 0.130004
H22   H     H_    0.930497 0.151410 0.934463 0.114704
H23   H     H_    0.561490 0.666395 0.054822 0.096465
H24   H     H_    0.441416 0.685927 0.946678 0.133137
H25   H     H_    0.653124 0.763638 0.127220 0.130973
H26   H     H_    0.348065 0.776891 0.877640 0.146542
H27   H     H_    0.150345 0.275813 0.125018 0.139619
H28   H     H_    0.841733 0.264788 0.868342 0.138612
C81   C     C_R   0.463960 0.157121 0.563761 -0.023329
C82   C     C_R   0.493905 0.174630 0.418217 -0.028626
C83   C     C_R   0.971553 0.651424 0.566395 -0.033655
C84   C     C_R   0.998659 0.673292 0.421052 -0.031404
C85   C     C_R   0.445197 0.062483 0.514956 -0.003154
C86   C     C_R   0.453668 0.079190 0.441357 0.014216
C87   C     C_R   0.948282 0.561558 0.517165 -0.000660
C88   C     C_R   0.956238 0.580011 0.443830 0.013507
C89   C     C_R   0.512773 0.268072 0.465928 -0.066495
C90   C     C_R   0.499729 0.258578 0.538366 -0.054906
C91   C     C_R   0.025759 0.757566 0.471089 -0.061683
C92   C     C_R   0.017097 0.740597 0.543822 -0.060831
C93   C     C_R   0.421377 0.948372 0.535905 -0.095620
C94   C     C_R   0.426871 0.993684 0.391879 -0.073407
C95   C     C_R   0.923008 0.448377 0.538022 -0.098681
C96   C     C_R   0.926592 0.497771 0.394443 -0.071586
C97   C     C_R   0.909401 0.359399 0.488438 -0.136834
C98   C     C_R   0.908975 0.384533 0.416332 -0.104896
C99   C     C_R   0.408820 0.858378 0.486015 -0.112594
C100  C     C_R   0.410001 0.880376 0.414185 -0.099093
H29   H     H_    0.413453 0.922015 0.589569 0.179931
H30   H     H_    0.423448 0.011492 0.335330 0.132031
H31   H     H_    0.916997 0.419695 0.591560 0.178793
H32   H     H_    0.922617 0.516812 0.338056 0.124071
H33   H     H_    0.892901 0.274383 0.508014 0.125180
H34   H     H_    0.894080 0.318926 0.376680 0.121293
H35   H     H_    0.389100 0.775189 0.502775 0.140548
H36   H     H_    0.395258 0.810982 0.376178 0.140655
H37   H     H_    0.636155 0.961238 0.457792 0.172457
H38   H     H_    0.273347 0.770017 0.580481 0.118156
H39   H     H_    0.127668 0.456333 0.450181 0.182740
H40   H     H_    0.778622 0.264860 0.579892 0.127964
C101  C     C_R   0.773357 0.888702 0.567131 0.014372
C102  C     C_R   0.248754 0.914708 0.423974 0.027459
C103  C     C_R   0.245516 0.459852 0.587488 0.010894
C104  C     C_R   0.747275 0.413228 0.425253 0.028660
C105  C     C_R   0.830147 0.942404 0.530263 -0.009259
C106  C     C_R   0.228956 0.029017 0.447447 -0.003692
C107  C     C_R   0.299721 0.521371 0.552489 -0.000520
C108  C     C_R   0.724197 0.524761 0.450245 0.000560
C109  C     C_R   0.814861 0.005394 0.468185 0.018608
C110  C     C_R   0.215070 0.042393 0.519593 0.023641
C111  C     C_R   0.304064 0.504199 0.479363 -0.005202
C112  C     C_R   0.708145 0.532491 0.522054 0.018240
C113  C     C_R   0.690000 0.956263 0.477850 -0.151512
C114  C     C_R   0.259984 0.840827 0.543565 -0.163959
C115  C     C_R   0.178216 0.462658 0.477831 -0.151800
C116  C     C_R   0.761024 0.335863 0.544311 -0.165805
C117  C     C_R   0.704085 0.906035 0.543367 -0.147253
C118  C     C_R   0.258091 0.819528 0.471755 -0.148828
C119  C     C_R   0.182198 0.440605 0.550804 -0.167513
C120  C     C_R   0.758492 0.317337 0.472200 -0.145921
C121  C     C_R   0.900806 0.945980 0.557165 -0.103414
C122  C     C_R   0.207514 0.118800 0.398413 -0.075865
C123  C     C_R   0.354897 0.582193 0.589871 -0.086667
C124  C     C_R   0.702516 0.616753 0.402776 -0.068050
C125  C     C_R   0.951200 0.022995 0.531121 0.226495
C126  C     C_R   0.153115 0.196849 0.415558 0.265961
C127  C     C_R   0.420875 0.592590 0.560651 0.239040
C128  C     C_R   0.647694 0.693700 0.420760 0.270565
C129  C     C_R   0.937261 0.079453 0.468175 -0.076963
C130  C     C_R   0.131745 0.201112 0.485306 -0.040155
C131  C     C_R   0.428251 0.558559 0.490293 -0.091440
C132  C     C_R   0.623293 0.690488 0.489461 -0.065306
C133  C     C_R   0.869946 0.076286 0.439458 -0.146920
C134  C     C_R   0.165871 0.132824 0.537819 -0.083260
C135  C     C_R   0.371467 0.513331 0.449980 -0.152338
C136  C     C_R   0.655197 0.616304 0.540568 -0.113003
C137  C     C_R   0.745027 0.995971 0.437517 0.006531
C138  C     C_R   0.243547 0.953803 0.567677 0.039391
C139  C     C_R   0.239956 0.483187 0.440268 0.005436
C140  C     C_R   0.740078 0.445938 0.569611 0.031959
H41   H     H_    0.918745 0.895008 0.600400 0.169822
H42   H     H_    0.223813 0.114676 0.343823 0.102870
H43   H     H_    0.347744 0.613539 0.643799 0.116253
H44   H     H_    0.720305 0.616951 0.348668 0.098211
H45   H     H_    0.660488 0.878968 0.575083 0.143121
H46   H     H_    0.266414 0.729148 0.453152 0.134376
H47   H     H_    0.137372 0.405602 0.577836 0.124309
H48   H     H_    0.766671 0.228374 0.452757 0.121094
H49   H     H_    0.976099 0.138023 0.445784 0.164824
H50   H     H_    0.087658 0.257100 0.498918 0.138276
H51   H     H_    0.476690 0.577742 0.465275 0.171031
H52   H     H_    0.579195 0.746208 0.503485 0.162017
H53   H     H_    0.862007 0.142204 0.399071 0.152070
H54   H     H_    0.144548 0.143808 0.589514 0.193327
H55   H     H_    0.382815 0.483140 0.397102 0.171237
H56   H     H_    0.630886 0.618498 0.591315 0.205410
C141  C     C_1   0.545569 0.375124 0.440627 0.221306
N1    N     N_1   0.570518 0.461141 0.418988 -0.272020
C142  C     C_1   0.531446 0.346224 0.587017 0.258149
N2    N     N_1   0.557083 0.415175 0.625997 -0.242809
C143  C     C_1   0.056073 0.868054 0.448032 0.276963
N3    N     N_1   0.077589 0.958718 0.429133 -0.236890
C144  C     C_1   0.062722 0.801466 0.595461 0.243110
N4    N     N_1   0.099481 0.848186 0.637138 -0.262853
O53   O     O_3   0.013028 0.048602 0.567816 -0.719038
H57   H     H_    0.007882 0.025261 0.618160 0.331520
O54   O     O_3   0.115228 0.259921 0.364505 -0.687634
H58   H     H_    0.132950 0.238952 0.317047 0.326365
O55   O     O_3   0.477033 0.644535 0.597127 -0.720183
H59   H     H_    0.462637 0.665773 0.645764 0.321220
O56   O     O_3   0.612247 0.763087 0.370924 -0.680751
H60   H     H_    0.630730 0.745039 0.323384 0.326927
C145  C     C_1   0.486077 0.388295 0.948052 0.212045
N5    N     N_1   0.473923 0.479719 0.921750 -0.354803
C146  C     C_1   0.411448 0.231005 0.083800 0.233225
N6    N     N_1   0.368216 0.253769 0.123387 -0.281448
C147  C     C_1   0.111258 0.727768 0.922829 0.211038
N7    N     N_1   0.157231 0.745469 0.885768 -0.294504
C148  C     C_1   0.020758 0.892512 0.049162 0.253064
N8    N     N_1   0.027928 0.987376 0.073284 -0.342933
O57   O     O_3   0.876160 0.973973 0.077691 -0.696598
H61   H     H_    0.878947 0.924403 0.121385 0.337540
O58   O     O_3   0.136954 0.031135 0.929481 -0.660658
H62   H     H_    0.098382 0.042251 0.962648 0.327632
O59   O     O_3   0.368208 0.512146 0.074852 -0.659578
H63   H     H_    0.406737 0.523702 0.041648 0.319385
O60   O     O_3   0.633579 0.510238 0.926508 -0.658170
H64   H     H_    0.596845 0.522753 0.961391 0.325251

loop_
_geom_bond_atom_site_label_1
_geom_bond_atom_site_label_2
_geom_bond_distance
_ccdc_geom_bond_type
O4    C12   1.278824 A    
C112  C140  1.439294 A    
O39   C19   1.275249 A    
C70   C74   1.386328 A    
O60   H64   0.984868 S    
C124  C128  1.400294 A    
C45   C61   1.403122 A    
Cr7   O51   2.004568 S    
C55   O59   1.383089 S    
C135  H55   1.077511 S    
C28   C148  1.458099 S    
O25   C21   1.276868 A    
C31   H3    1.103372 S    
O54   H58   0.991960 S    
O21   C9    1.288520 A    
C127  O55   1.379314 S    
C1    O9    1.286947 A    
O44   Cr12  2.099055 S    
C125  O53   1.376464 S    
C56   O60   1.376470 S    
C7    C35   1.461506 S    
C4    O12   1.278048 A    
C128  C132  1.388742 A    
C69   C73   1.390652 A    
O2    C10   1.274753 A    
C33   C37   1.535545 S    
C42   C58   1.395183 A    
C128  O56   1.377591 S    
C101  C105  1.436812 A    
C113  C117  1.374463 A    
C53   O57   1.375739 S    
O16   Cr8   1.958714 S    
C99   C100  1.375650 A    
C94   C100  1.372678 A    
C29   C33   1.541451 S    
C105  C109  1.387825 A    
O28   Cr4   2.088102 S    
C26   C146  1.464888 S    
O12   Cr8   2.097335 S    
O22   Cr10  1.978451 S    
O15   C7    1.280536 A    
C91   C92   1.397555 A    
O46   Cr10  1.954423 S    
O48   C24   1.304213 A    
C66   H18   1.071814 S    
C53   C77   1.405030 A    
C81   C90   1.412681 A    
C61   C67   1.380304 A    
C32   C36   1.537916 S    
C111  C135  1.419529 A    
C97   H33   1.068213 S    
C63   C65   1.385669 A    
C1    C44   1.482474 S    
O5    Cr1   1.978107 S    
Cr12  O52   2.004592 S    
C83   C87   1.422029 A    
C17   O41   1.292909 A    
C47   C51   1.420020 A    
C19   O43   1.291870 A    
C91   C143  1.434104 S    
C20   O44   1.271428 A    
C110  C138  1.435782 A    
Cr8   O52   2.005259 S    
C9    C77   1.482864 S    
C65   H17   1.076008 S    
O46   C22   1.300325 A    
C109  C137  1.438009 A    
C49   C77   1.411959 A    
C126  C130  1.387483 A    
C50   C74   1.405053 A    
C55   C59   1.386812 A    
C31   C40   1.541119 S    
C70   H24   1.064567 S    
C86   C94   1.412975 A    
C53   C57   1.382206 A    
C16   O36   1.275220 A    
C30   C34   1.544505 S    
C54   C58   1.388819 A    
C35   C39   1.531010 S    
O31   C15   1.270759 A    
O32   C16   1.325290 A    
C123  C127  1.394434 A    
O47   Cr11  1.957566 S    
C26   C30   1.532881 S    
O24   C12   1.288466 A    
C110  C134  1.424179 A    
O30   C14   1.311808 A    
C141  N1    1.151229 T    
C28   C32   1.541757 S    
C96   C98   1.373058 A    
C46   C50   1.419507 A    
O32   Cr4   1.974403 S    
C129  C133  1.377143 A    
C55   C79   1.411024 A    
C56   C80   1.402373 A    
O11   Cr7   2.103585 S    
C39   C40   1.546198 S    
O27   Cr3   2.096489 S    
O3    Cr3   2.088658 S    
C130  H50   1.083073 S    
C46   C62   1.403590 A    
C100  H36   1.081661 S    
Cr5   O49   2.004568 S    
C145  N5    1.153712 T    
C103  C107  1.421254 A    
C106  C122  1.414396 A    
C3    O11   1.274891 A    
C104  C108  1.401543 A    
C31   C35   1.546035 S    
O22   C10   1.291673 A    
C112  C136  1.424984 A    
C19   C84   1.472117 S    
C2    O10   1.277673 A    
C27   C28   1.533520 S    
C12   C80   1.480647 S    
C122  C126  1.397738 A    
C44   C48   1.420477 A    
O5    C1    1.282315 A    
C29   C38   1.552545 S    
C102  C106  1.400864 A    
C44   C60   1.392126 A    
O3    C11   1.275749 A    
O8    C4    1.291254 A    
C25   C145  1.455750 S    
O59   H63   0.988617 S    
C59   H15   1.075592 S    
Cr1   O49   1.994737 S    
C41   C45   1.411437 A    
C118  H46   1.077231 S    
Cr3   O51   1.994737 S    
C13   C104  1.426956 S    
C43   C47   1.405909 A    
C29   H1    1.100627 S    
O26   Cr2   2.088102 S    
C5    O17   1.300935 A    
O27   C23   1.283476 A    
O28   C24   1.233480 A    
O14   C6    1.287653 A    
C39   H7    1.109788 S    
C94   H30   1.083180 S    
C8    O20   1.261315 A    
C144  N4    1.156963 T    
C124  H44   1.083623 S    
C104  C120  1.400422 A    
O40   Cr8   1.976072 S    
H38   C114  1.077889 S    
C67   H19   1.072359 S    
C131  H51   1.072287 S    
O41   Cr9   2.096060 S    
C67   C69   1.393480 A    
C21   C137  1.447031 S    
C102  C118  1.400093 A    
C90   C142  1.453752 S    
C32   H4    1.097570 S    
O33   Cr5   2.074082 S    
C27   C147  1.461930 S    
C114  C138  1.374687 A    
C125  C129  1.361825 A    
O35   Cr7   2.074082 S    
C120  H48   1.067445 S    
C123  H43   1.084527 S    
C84   C88   1.394106 A    
C148  N8    1.154140 T    
C92   C144  1.449517 S    
C127  C131  1.387137 A    
Cr9   O49   2.005469 S    
C18   O42   1.290142 A    
Cr11  O51   2.005469 S    
O26   C22   1.232535 A    
C30   C37   1.542092 S    
O20   Cr12  2.074280 S    
C24   C140  1.437122 S    
O56   H60   0.991860 S    
C10   C78   1.485407 S    
C142  N2    1.157074 T    
C89   C90   1.398010 A    
C103  C119  1.387778 A    
C52   C76   1.410942 A    
C11   C79   1.483709 S    
H40   C116  1.084136 S    
C50   C78   1.416100 A    
C68   C70   1.389864 A    
C38   H6    1.109168 S    
C87   C95   1.410951 A    
C126  O54   1.377819 S    
C30   H2    1.105595 S    
C85   C93   1.411284 A    
C130  C134  1.393664 A    
C71   H21   1.064851 S    
C37   H5    1.100504 S    
C88   C96   1.407479 A    
C16   C101  1.444250 S    
C146  N6    1.156217 T    
C122  H42   1.083648 S    
C82   C86   1.390514 A    
O42   Cr10  2.099055 S    
O18   Cr10  2.074280 S    
O53   H57   0.991367 S    
O31   Cr3   1.966118 S    
C105  C121  1.424671 A    
O34   Cr6   2.079553 S    
C93   C99   1.385739 A    
C51   C79   1.414459 A    
C71   C75   1.382933 A    
O24   Cr12  1.978451 S    
C73   H25   1.081897 S    
O30   Cr2   1.974403 S    
C69   H23   1.077802 S    
O48   Cr12  1.954423 S    
O37   C17   1.275165 A    
C15   O35   1.268439 A    
Cr10  O50   2.004592 S    
C47   C63   1.407100 A    
C40   H8    1.107935 S    
O43   Cr11  2.096060 S    
C48   C64   1.407008 A    
O37   Cr5   1.981173 S    
O21   Cr9   1.974610 S    
O57   H61   0.992157 S    
O39   Cr7   1.981173 S    
O45   Cr9   1.957566 S    
O58   H62   0.987392 S    
C13   O33   1.267669 A    
O13   Cr5   1.954323 S    
O23   Cr11  1.974610 S    
C132  H52   1.083555 S    
O15   Cr7   1.954323 S    
C32   C39   1.549723 S    
C117  H45   1.082672 S    
C133  H53   1.065888 S    
O23   C11   1.293151 A    
C18   C81   1.484091 S    
C68   H20   1.073614 S    
C36   C40   1.540572 S    
C98   H34   1.073706 S    
C119  H47   1.082390 S    
C15   C102  1.420434 S    
C131  C135  1.395038 A    
O6    C2    1.288857 A    
C87   C88   1.409150 A    
C37   C38   1.549173 S    
C111  C139  1.425355 A    
C58   H14   1.077921 S    
O1    Cr1   2.088658 S    
O19   Cr11  2.076698 S    
C23   C139  1.465680 S    
O29   C13   1.274968 A    
C62   H10   1.081829 S    
O45   C21   1.331709 A    
O47   C23   1.308218 A    
C97   C98   1.386387 A    
C113  C137  1.388364 A    
C115  C119  1.395680 A    
C17   C82   1.473982 S    
C108  C124  1.414555 A    
O40   C20   1.321755 A    
C89   C141  1.436244 S    
C85   C86   1.412658 A    
C6    O18   1.270285 A    
C72   H22   1.081217 S    
C20   C83   1.471093 S    
C66   C72   1.387434 A    
C25   C26   1.532988 S    
O36   Cr8   2.079553 S    
C83   C92   1.395899 A    
O38   Cr6   1.976072 S    
O13   C5    1.313206 A    
C84   C91   1.412649 A    
C107  C111  1.393634 A    
C25   C34   1.529369 S    
C54   C78   1.413378 A    
O8    Cr4   1.969947 S    
C27   C36   1.517745 S    
C72   C76   1.388603 A    
C57   H13   1.079264 S    
O1    C9    1.281959 A    
C43   C59   1.395186 A    
O7    C3    1.292313 A    
C116  C140  1.376440 A    
C60   H16   1.079867 S    
C41   C57   1.401208 A    
C61   H9    1.080696 S    
C99   H35   1.053067 S    
C109  C133  1.435214 A    
C62   C68   1.379555 A    
C64   H12   1.079233 S    
C63   H11   1.081371 S    
C3    C42   1.476949 S    
C45   C49   1.422500 A    
C28   C35   1.533002 S    
C108  C112  1.397474 A    
C34   C38   1.534795 S    
O6    Cr2   1.969947 S    
C7    O19   1.272014 A    
C143  N3    1.151661 T    
Cr4   O52   1.994721 S    
O2    Cr2   2.097383 S    
C129  H49   1.083618 S    
C5    C33   1.472208 S    
Cr6   O50   2.005259 S    
C65   C71   1.390662 A    
C107  C123  1.417594 A    
C54   O58   1.382175 S    
C25   C29   1.545898 S    
C56   C60   1.388237 A    
C82   C89   1.410441 A    
C75   H27   1.080738 S    
C114  C118  1.370355 A    
C121  H41   1.042430 S    
C14   C103  1.475184 S    
O9    Cr5   2.103585 S    
C95   C97   1.376945 A    
O16   C8    1.286478 A    
C64   C66   1.383344 A    
O7    Cr3   1.978107 S    
C147  N7    1.155330 T    
C106  C110  1.398964 A    
O29   Cr1   1.966118 S    
C136  H56   1.075160 S    
C132  C136  1.394803 A    
C8    C36   1.458910 S    
C26   C33   1.529265 S    
C81   C85   1.432665 A    
O55   H59   0.991639 S    
Cr2   O50   1.994721 S    
C42   C46   1.401211 A    
O14   Cr6   1.958714 S    
C51   C75   1.403678 A    
C74   H26   1.080264 S    
C49   C73   1.406879 A    
C116  C120  1.371064 A    
C4    C41   1.485036 S    
O38   C18   1.320879 A    
O25   Cr1   2.096489 S    
C95   H31   1.067872 S    
C93   H29   1.068255 S    
O17   Cr9   2.076698 S    
C14   O34   1.258158 A    
C6    C34   1.472830 S    
H39   C115  1.082787 S    
H37   C113  1.084046 S    
C22   C138  1.431991 S    
C101  C117  1.394594 A    
C76   H28   1.080727 S    
C115  C139  1.411995 A    
C134  H54   1.072952 S    
O10   Cr6   2.097335 S    
C52   C80   1.413054 A    
O4    Cr4   2.097383 S    
C96   H32   1.083218 S    
C27   C31   1.537037 S    
C121  C125  1.390584 A    
C2    C43   1.475675 S    
C48   C52   1.424037 A    
