data_mof_unit_57508.cif
_audit_creation_date              2012-12-11T18:13:21-0500
_audit_creation_method            fapswitch 2.2
_symmetry_space_group_name_H-M    P1
_symmetry_Int_Tables_number       1
_space_group_crystal_system       triclinic
_cell_length_a                    8.217538
_cell_length_b                    12.777661
_cell_length_c                    18.686573
_cell_angle_alpha                 100.19573
_cell_angle_beta                  90.858723
_cell_angle_gamma                 99.159383
_cell_volume                      1904.61810953

loop_
_atom_site_label
_atom_site_type_symbol
_atom_type_description
_atom_site_fract_x
_atom_site_fract_y
_atom_site_fract_z
_atom_type_partial_charge
Ba1   Ba    Ba6+2 0.852780 0.548340 0.465070 1.625224
Ba2   Ba    Ba6+2 0.337060 0.451750 0.534940 1.631256
C1    C     C_3   0.556172 0.888417 0.252180 -0.421026
C2    C     C_3   0.612870 0.812911 0.298017 0.330479
C3    C     C_3   0.514467 0.227655 0.302151 0.501395
C4    C     C_3   0.609452 0.178464 0.238155 -0.331568
C5    C     C_3   0.061852 0.242481 0.737813 0.374247
C6    C     C_3   0.080171 0.219737 0.814458 -0.367939
C7    C     C_3   0.555678 0.183286 0.706187 0.349979
C8    C     C_3   0.605112 0.108730 0.754688 -0.418372
C9    C     C_R   0.991783 0.450980 0.047872 0.005013
C10   C     C_R   0.888078 0.400647 0.095519 0.038476
C11   C     C_R   0.722753 0.359485 0.073343 -0.085413
C12   C     C_3   0.123430 0.747955 0.265285 0.344111
C13   C     C_R   0.662209 0.364920 0.004138 -0.092987
C14   C     C_R   0.765820 0.411461 0.955371 0.032697
C15   C     C_R   0.930767 0.455833 0.977322 0.013152
C16   C     C_R   0.706741 0.413032 0.884947 -0.110268
C17   C     C_R   0.810993 0.456176 0.834402 -0.044014
C18   C     C_R   0.975075 0.505560 0.857113 -0.006191
C19   C     C_R   0.034125 0.505078 0.928920 -0.008397
C20   C     C_R   0.757258 0.449508 0.761356 -0.006950
C21   C     C_R   0.866485 0.489067 0.712031 -0.297316
C22   C     C_R   0.024538 0.544906 0.734085 0.047642
C23   C     C_3   0.095422 0.767702 0.188434 -0.377453
C24   C     C_R   0.080234 0.554869 0.808241 -0.046274
C25   C     C_R   0.155931 0.496125 0.070600 -0.010212
C26   C     C_R   0.215135 0.494600 0.142284 -0.005949
C27   C     C_R   0.108900 0.446336 0.191342 -0.051124
C28   C     C_R   0.949416 0.394204 0.164992 -0.051335
C29   C     C_R   0.238182 0.610025 0.835088 -0.041202
C30   C     C_R   0.299538 0.604555 0.904834 0.034126
C31   C     C_R   0.197555 0.551638 0.951933 0.006254
C32   C     C_R   0.258861 0.546453 0.022435 0.013544
C33   C     C_R   0.463066 0.649733 0.927852 -0.084595
C34   C     C_3   0.234086 0.787697 0.621703 0.281677
C35   C     C_R   0.524618 0.642831 0.996796 -0.091653
C36   C     C_R   0.423035 0.592348 0.044761 0.031994
C37   C     C_R   0.379722 0.542805 0.164894 -0.046516
C38   C     C_R   0.482885 0.588718 0.114870 -0.108488
C39   C     C_R   0.434707 0.545880 0.237467 0.002222
C40   C     C_R   0.326976 0.503470 0.286243 -0.282810
C41   C     C_R   0.165844 0.453050 0.265046 0.040834
C42   C     C_R   0.759953 0.184978 0.538619 -0.281517
C43   C     C_R   0.429313 0.808449 0.472609 -0.293531
C44   C     C_R   0.398078 0.985765 0.453674 -0.092686
C45   C     C_3   0.251398 0.909684 0.640181 -0.358302
C46   C     C_R   0.336801 0.876738 0.446507 -0.006680
C47   C     C_R   0.578479 0.849361 0.511824 0.069620
C48   C     C_R   0.640843 0.962136 0.522520 -0.061796
C49   C     C_R   0.549066 0.030749 0.492055 -0.060284
C50   C     C_R   0.610635 0.142476 0.500412 0.060421
C51   C     C_R   0.854795 0.118334 0.565603 -0.014515
C52   C     C_R   0.793681 0.008284 0.560076 -0.100907
C53   C     C_3   0.960470 0.216764 0.384278 0.314276
C54   C     C_3   0.902374 0.094726 0.367384 -0.286413
C55   C     C_3   0.731779 0.707942 0.682372 0.316759
C56   C     C_3   0.756951 0.746887 0.764168 -0.408098
H1    H     H_    0.696184 0.860486 0.343677 0.061675
H2    H     H_    0.345926 0.941166 0.684923 0.113885
H3    H     H_    0.289435 0.945904 0.592302 0.083160
H4    H     H_    0.131702 0.933279 0.657576 0.139346
H5    H     H_    0.865649 0.256360 0.414658 -0.015493
H6    H     H_    0.075109 0.233503 0.418570 0.085352
H7    H     H_    0.767605 0.077058 0.355328 0.109399
H8    H     H_    0.926981 0.059900 0.415944 0.108240
H9    H     H_    0.847259 0.683972 0.660464 0.013054
H10   H     H_    0.630504 0.637669 0.672097 0.066558
H11   H     H_    0.484792 0.944418 0.285614 0.122575
H12   H     H_    0.864088 0.813280 0.776022 0.126931
H13   H     H_    0.780187 0.680301 0.791633 0.057689
H14   H     H_    0.644841 0.776803 0.786312 0.117902
H15   H     H_    0.501731 0.773627 0.322061 -0.041378
H16   H     H_    0.476704 0.840859 0.205338 0.117482
H17   H     H_    0.576981 0.311712 0.322678 0.027951
H18   H     H_    0.544480 0.097139 0.212818 0.108518
H19   H     H_    0.623889 0.230318 0.196765 0.043763
H20   H     H_    0.733443 0.169760 0.256371 0.129125
H21   H     H_    0.663815 0.935549 0.230908 0.112019
H22   H     H_    0.100715 0.693504 0.148376 0.082028
H23   H     H_    0.137613 0.321731 0.735252 0.088378
H24   H     H_    0.930250 0.246328 0.726796 -0.079091
H25   H     H_    0.211919 0.220441 0.828880 0.149523
H26   H     H_    0.033270 0.282196 0.854029 0.069286
H27   H     H_    0.008309 0.139653 0.818032 0.110099
H28   H     H_    0.668445 0.216754 0.680562 -0.052714
H29   H     H_    0.467958 0.135729 0.662113 0.077453
H30   H     H_    0.696443 0.155066 0.797740 0.113248
H31   H     H_    0.661047 0.043481 0.721744 0.092421
H32   H     H_    0.024909 0.683006 0.274976 0.119005
H33   H     H_    0.495360 0.072490 0.781091 0.130281
H34   H     H_    0.638517 0.324597 0.109649 0.058097
H35   H     H_    0.534095 0.332181 0.988657 0.070082
H36   H     H_    0.824728 0.480746 0.655821 0.068888
H37   H     H_    0.579423 0.378593 0.870015 0.107822
H38   H     H_    0.869370 0.350756 0.198711 0.095938
H39   H     H_    0.317714 0.654732 0.801577 0.098726
H40   H     H_    0.544158 0.689599 0.892233 0.061971
H41   H     H_    0.651587 0.678005 0.012880 0.070800
H42   H     H_    0.610054 0.623453 0.129976 0.108719
H43   H     H_    0.244774 0.721888 0.269690 -0.047014
H44   H     H_    0.370692 0.507959 0.341794 0.074628
H45   H     H_    0.323078 0.034226 0.430367 0.122056
H46   H     H_    0.869523 0.960041 0.583129 0.103832
H47   H     H_    0.808625 0.269734 0.542541 0.063443
H48   H     H_    0.380379 0.723293 0.465628 0.069753
H49   H     H_    0.972393 0.791282 0.182421 0.146991
H50   H     H_    0.190996 0.833333 0.176621 0.108356
H51   H     H_    0.353781 0.765046 0.605171 0.006931
H52   H     H_    0.140032 0.758268 0.576402 0.073083
O1    O     O_2   0.873090 0.425890 0.325140 -0.465204
O2    O     O_3   0.691657 0.792551 0.650951 -0.640678
O3    O     O_3   0.118317 0.843804 0.314441 -0.623697
O4    O     O_2   0.316610 0.574140 0.674900 -0.466514
O5    O     O_3   0.067290 0.565720 0.585630 -0.499064
O6    O     O_3   0.530210 0.372990 0.631200 -0.467952
O7    O     O_3   0.188364 0.746218 0.684046 -0.639836
O8    O     O_3   0.611340 0.366290 0.463630 -0.478474
O9    O     O_3   0.108550 0.314140 0.595200 -0.482571
O10   O     O_2   0.192537 0.121873 0.552330 -0.489716
O11   O     O_3   0.115698 0.160319 0.688154 -0.591875
O12   O     O_3   0.122420 0.434370 0.414380 -0.494929
O13   O     O_3   0.578370 0.633800 0.536380 -0.486819
O14   O     O_2   0.341510 0.231850 0.465510 -0.470181
O15   O     O_3   0.515482 0.161349 0.354183 -0.666654
O16   O     O_2   0.418593 0.457738 0.756648 -0.495121
O17   O     O_3   0.477005 0.261804 0.748125 -0.592758
O18   O     O_3   0.659500 0.627100 0.368810 -0.468597
O19   O     O_2   0.777087 0.548035 0.243077 -0.503262
O20   O     O_3   0.988303 0.255111 0.319213 -0.653886
O21   O     O_3   0.699484 0.740603 0.254262 -0.606497
O22   O     O_2   0.848200 0.768190 0.534530 -0.476175
O23   O     O_3   0.081160 0.685950 0.404810 -0.489492
O24   O     O_2   0.996624 0.878284 0.443640 -0.485250
P1    P     P_3+3 0.041040 0.394770 0.336330 0.953959
P2    P     P_3+3 0.672880 0.754030 0.556100 0.973295
P3    P     P_3+3 0.132224 0.822338 0.403954 0.943857
P4    P     P_3+3 0.148670 0.605320 0.663680 0.970282
P5    P     P_3+3 0.067119 0.177050 0.599825 0.952093
P6    P     P_3+3 0.642377 0.611801 0.274663 0.945615
P7    P     P_3+3 0.525002 0.228423 0.445180 0.927488
P8    P     P_3+3 0.546546 0.387925 0.725398 0.952227
C57   C     C_3   0.987058 0.039171 0.302610 -0.303407
H53   H     H_    0.929349 0.953615 0.289530 0.161297
H54   H     H_    0.969054 0.072956 0.252869 0.130828
H55   H     H_    0.121174 0.046751 0.315633 0.168414
N1    N     N_2   0.343655 0.226907 0.280927 -0.415992
H56   H     H_    0.289298 0.275326 0.319802 0.176671
C58   C     C_3   0.298073 0.232808 0.206536 -0.294468
H57   H     H_    0.164317 0.235428 0.201581 0.124052
H58   H     H_    0.319029 0.159476 0.168627 0.118788
H59   H     H_    0.369379 0.305482 0.190218 0.086817

loop_
_geom_bond_atom_site_label_1
_geom_bond_atom_site_label_2
_ccdc_geom_bond_type
C57   H55   S    
C53   C54   S    
O23   P3    S    
C3    N1    S    
C6    H25   S    
C39   C40   A    
C17   C18   A    
Ba1   O18   S    
Ba1   O22   S    
C1    H21   S    
C45   H4    S    
Ba2   O8    S    
C5    C6    S    
C37   C39   A    
C42   H47   S    
C8    H30   S    
C7    O17   S    
C46   P3    S    
C6    H27   S    
C52   H46   S    
C26   C27   A    
N1    C58   S    
C55   H9    S    
Ba1   Ba2   S    
C58   H58   S    
C3    C4    S    
C56   H13   S    
C4    H20   S    
C55   O2    S    
C19   C31   A    
C54   H7    S    
C23   H22   S    
C2    H1    S    
C34   C45   S    
C16   C17   A    
C1    H16   S    
Ba1   O12   S    
C12   H32   S    
C39   P6    S    
C28   H38   S    
O21   P6    S    
N1    H56   S    
C45   H2    S    
C54   C57   S    
Ba2   O6    S    
C42   C51   A    
O1    P1    D    
O20   P1    S    
C8    H31   S    
O15   P7    S    
C14   C15   A    
C53   H5    S    
C21   C22   A    
C43   C47   A    
C33   H40   S    
C7    C8    S    
O8    P7    S    
O4    P4    D    
C24   C29   A    
C6    H26   S    
C27   C41   A    
C16   H37   S    
C1    H11   S    
O24   P3    D    
Ba1   O23   S    
C40   H44   S    
C48   C49   A    
C2    O21   S    
Ba2   O12   S    
C25   C32   A    
C44   C46   A    
C13   C14   A    
O2    P2    S    
C49   C50   A    
Ba2   P4    S    
C30   C33   A    
C45   H3    S    
C17   C20   A    
C58   H59   S    
C37   C38   A    
C56   H12   S    
C12   H43   S    
C26   C37   A    
C22   P4    S    
Ba2   O13   S    
C44   C49   A    
O16   P8    D    
C15   C19   A    
O17   P8    S    
C3    H17   S    
Ba1   O13   S    
C13   H35   S    
C35   C36   A    
C7    H28   S    
Ba2   O5    S    
C5    O11   S    
C29   C30   A    
O5    P4    S    
C9    C25   A    
O22   P2    D    
C53   O20   S    
C53   H6    S    
C20   P8    S    
C31   C32   A    
O10   P5    D    
C48   C52   A    
C10   C11   A    
C41   P1    S    
C34   O7    S    
C2    H15   S    
O6    P8    S    
C5    H23   S    
C47   P2    S    
C8    H33   S    
C11   C13   A    
C11   H34   S    
C34   H52   S    
O3    P3    S    
O14   P7    D    
C40   C41   A    
C55   H10   S    
C1    C2    S    
Ba1   P2    S    
C35   H41   S    
C43   H48   S    
C23   H49   S    
C43   C46   A    
C33   C35   A    
C57   H54   S    
C9    C15   A    
C10   C28   A    
C32   C36   A    
C4    H18   S    
C22   C24   A    
C4    H19   S    
O7    P4    S    
C42   C50   A    
C38   H42   S    
C9    C10   A    
C51   C52   A    
Ba2   O14   S    
C12   O3    S    
C44   H45   S    
C50   P7    S    
C21   H36   S    
O13   P2    S    
O9    P5    S    
C30   C31   A    
O11   P5    S    
O18   P6    S    
C58   H57   S    
Ba1   O1    S    
C36   C38   A    
Ba2   O4    S    
C56   H14   S    
C55   C56   S    
O19   P6    D    
C18   C24   A    
C54   H8    S    
Ba2   O9    S    
Ba1   O8    S    
C29   H39   S    
C12   C23   S    
O12   P1    S    
C51   P5    S    
C27   C28   A    
C5    H24   S    
C18   C19   A    
C14   C16   A    
C47   C48   A    
C3    O15   S    
C34   H51   S    
C20   C21   A    
Ba1   O5    S    
Ba1   P1    S    
C7    H29   S    
C57   H53   S    
C23   H50   S    
C25   C26   A    
