data_mof_unit_37764.cif
_audit_creation_date              2012-12-10T19:05:55-0500
_audit_creation_method            fapswitch 2.2
_symmetry_space_group_name_H-M    P1
_symmetry_Int_Tables_number       1
_space_group_crystal_system       triclinic
_cell_length_a                    19.351671
_cell_length_b                    10.75141
_cell_length_c                    9.618443
_cell_angle_alpha                 89.748514
_cell_angle_beta                  90.369135
_cell_angle_gamma                 91.608439
_cell_volume                      2000.34387004

loop_
_atom_site_label
_atom_site_type_symbol
_atom_type_description
_atom_site_fract_x
_atom_site_fract_y
_atom_site_fract_z
_atom_type_partial_charge
C1    C     C_R   0.499198 0.262971 0.499894 0.792952
C2    C     C_R   0.291282 0.510131 0.495536 -0.113069
C3    C     C_R   0.930127 0.491559 0.494623 0.424671
C4    C     C_R   0.069923 0.491901 0.487560 0.471031
C5    C     C_R   0.820650 0.548554 0.609915 -0.172216
C6    C     C_R   0.748651 0.557037 0.612196 -0.015679
C7    C     C_R   0.708764 0.505479 0.501025 -0.108601
C8    C     C_R   0.742693 0.450926 0.388943 -0.148829
C9    C     C_R   0.814435 0.444770 0.387353 -0.122941
C10   C     C_R   0.854044 0.493682 0.497715 0.028245
C11   C     C_R   0.549747 0.066395 0.438523 0.172839
C12   C     C_R   0.367598 0.504134 0.499086 0.871220
C13   C     C_R   0.495930 0.129959 0.497080 -0.079662
C14   C     C_R   0.436136 0.064986 0.539736 -0.224742
C15   C     C_R   0.433971 0.934199 0.542308 -0.036275
C16   C     C_R   0.493742 0.870745 0.499030 -0.155697
C17   C     C_R   0.549109 0.938298 0.441541 0.085457
C18   C     C_3   0.624180 0.935824 0.479831 -0.465759
C19   C     C_3   0.625040 0.077193 0.473692 -0.266398
C20   C     C_R   0.540285 0.583999 0.073250 0.232988
C21   C     C_R   0.464457 0.410446 0.074685 0.007899
C22   C     C_R   0.466491 0.407872 0.926470 0.001247
C23   C     C_R   0.497810 0.737164 0.499924 0.875075
C24   C     C_R   0.538936 0.585520 0.926530 0.232076
C25   C     C_3   0.532979 0.723414 0.920909 -0.491915
C26   C     C_3   0.536963 0.722830 0.078854 -0.260771
C27   C     C_R   0.632470 0.503132 0.500440 0.811557
C28   C     C_R   0.254047 0.457330 0.606078 -0.187142
C29   C     C_R   0.182035 0.445674 0.602717 -0.031918
C30   C     C_R   0.145771 0.491434 0.486032 -0.091921
C31   C     C_R   0.182190 0.550109 0.375404 -0.075824
C32   C     C_R   0.255195 0.561312 0.380757 -0.064246
Cu1   Cu    Cu3+1 0.500000 0.499980 0.640670 1.030661
Cu2   Cu    Cu3+1 0.500000 0.500020 0.359330 1.034594
H1    H     H_    0.635458 0.122149 0.575959 0.148460
H2    H     H_    0.577749 0.770157 0.868871 0.240155
H3    H     H_    0.481751 0.752118 0.880948 0.227426
H4    H     H_    0.850910 0.588356 0.694749 0.189769
H5    H     H_    0.713571 0.411403 0.302520 0.193457
H6    H     H_    0.838819 0.402363 0.299050 0.167864
N1    N     N_R   0.037038 0.558630 0.584859 -0.204034
N2    N     N_R   0.968394 0.558443 0.588237 -0.215940
N3    N     N_R   0.963286 0.424441 0.397513 -0.207659
N4    N     N_R   0.032027 0.424254 0.394344 -0.139456
N5    N     N_R   0.500440 0.500930 0.147930 -0.242059
N6    N     N_R   0.500440 0.500890 0.852020 -0.226182
O1    O     O_R   0.500000 0.319640 0.618810 -0.584823
O2    O     O_R   0.500010 0.319680 0.381230 -0.553217
O3    O     O_R   0.400140 0.499970 0.618830 -0.532747
O4    O     O_R   0.400150 0.500010 0.381250 -0.571566
O5    O     O_R   0.499990 0.680320 0.618770 -0.551696
O6    O     O_R   0.500000 0.680360 0.381190 -0.583475
O7    O     O_R   0.599850 0.499990 0.618750 -0.564497
O8    O     O_R   0.599860 0.500030 0.381170 -0.547460
H7    H     H_    0.281429 0.420644 0.694446 0.238085
C33   C     C_2   0.369442 0.870257 0.592174 0.874147
O9    O     O_2   0.370058 0.763850 0.636772 -0.600977
O10   O     O_R   0.307293 0.933683 0.590263 -0.727603
H8    H     H_    0.266955 0.881045 0.626535 0.354939
H9    H     H_    0.632490 0.899818 0.586810 0.237930
H10   H     H_    0.655678 0.891213 0.399164 0.224721
C34   C     C_2   0.668980 0.130870 0.358040 0.914925
O11   O     O_2   0.642457 0.182114 0.258002 -0.545022
O12   O     O_R   0.740796 0.122965 0.367307 -0.738823
H11   H     H_    0.765235 0.162519 0.284601 0.335616
C35   C     C_2   0.418872 0.318676 0.146795 0.916859
O13   O     O_2   0.437925 0.212232 0.164480 -0.540538
O14   O     O_R   0.351611 0.350223 0.181114 -0.725150
H12   H     H_    0.324778 0.278996 0.226917 0.341881
C36   C     C_2   0.432481 0.300624 0.856760 0.914974
O15   O     O_2   0.376721 0.311473 0.799063 -0.602328
O16   O     O_R   0.462249 0.183935 0.867454 -0.717969
H13   H     H_    0.431973 0.115061 0.825955 0.333666
C37   C     C_2   0.602698 0.783854 0.133169 0.876225
O17   O     O_2   0.610462 0.896851 0.124812 -0.546657
O18   O     O_R   0.654865 0.711916 0.190882 -0.763019
H14   H     H_    0.697539 0.763315 0.217752 0.329302
C38   C     C_2   0.146543 0.382150 0.721657 0.892446
O19   O     O_2   0.172990 0.385101 0.837543 -0.523794
O20   O     O_R   0.083978 0.316242 0.701288 -0.733850
H15   H     H_    0.065484 0.277180 0.790184 0.357438
H16   H     H_    0.489301 0.756301 0.128767 0.188949
C39   C     C_2   0.143648 0.607642 0.258840 0.900313
O21   O     O_2   0.147343 0.720333 0.241240 -0.555781
O22   O     O_R   0.104366 0.532655 0.168127 -0.690228
H17   H     H_    0.080954 0.582514 0.092496 0.354370
C40   C     C_2   0.292805 0.630109 0.268464 0.936714
O23   O     O_2   0.334811 0.713080 0.298032 -0.590986
O24   O     O_R   0.279707 0.600455 0.129179 -0.689679
H18   H     H_    0.308823 0.652987 0.062770 0.343705
C41   C     C_2   0.718358 0.626953 0.728144 0.858637
O25   O     O_2   0.672393 0.699970 0.705347 -0.633943
O26   O     O_R   0.744696 0.613537 0.862912 -0.743368
H19   H     H_    0.720350 0.667126 0.932739 0.350338
H20   H     H_    0.392381 0.116707 0.575365 0.192306

loop_
_geom_bond_atom_site_label_1
_geom_bond_atom_site_label_2
_ccdc_geom_bond_type
C35   O14   S    
C40   O23   D    
C3    N2    A    
O26   H19   S    
C21   C35   S    
C2    C28   A    
N1    N2    A    
C2    C12   S    
C12   O3    A    
C27   O8    A    
C31   C39   S    
C7    C8    A    
O22   H17   S    
C11   C19   S    
C29   C30   A    
C37   O18   S    
C28   C29   A    
C30   C31   A    
C38   O20   S    
C16   C17   A    
C4    N1    A    
C19   C34   S    
Cu1   O3    S    
C15   C16   A    
C7    C27   S    
C33   O9    D    
C2    C32   A    
C18   C19   S    
C34   O12   S    
C25   H3    S    
O14   H12   S    
C29   C38   S    
C31   C32   A    
C8    C9    A    
C36   O15   D    
C8    H5    S    
C9    C10   A    
C20   N5    A    
C35   O13   D    
C26   H16   S    
C21   C22   A    
Cu1   N6    S    
C28   H7    S    
Cu1   Cu2   S    
C21   N5    A    
Cu1   O7    S    
Cu2   O4    S    
C37   O17   D    
C20   C24   A    
C5    H4    S    
O18   H14   S    
C41   O25   D    
C38   O19   D    
O16   H13   S    
C4    N4    A    
O10   H8    S    
C32   C40   S    
C9    H6    S    
N3    N4    A    
C34   O11   D    
C41   O26   S    
C23   O5    A    
C39   O21   D    
C3    N3    A    
C17   C18   S    
C18   H10   S    
Cu2   N5    S    
C24   C25   S    
C18   H9    S    
C39   O22   S    
Cu2   O8    S    
C16   C23   S    
C40   O24   S    
Cu1   O1    S    
C1    C13   S    
C14   H20   S    
C11   C17   A    
C22   N6    A    
C1    O1    A    
O20   H15   S    
C12   O4    A    
C27   O7    A    
C1    O2    A    
C6    C7    A    
Cu1   O5    S    
Cu2   O6    S    
C24   N6    A    
C15   C33   S    
C25   C26   S    
C5    C10   A    
C3    C10   S    
C19   H1    S    
O12   H11   S    
C11   C13   A    
C23   O6    A    
C5    C6    A    
C20   C26   S    
C26   C37   S    
C33   O10   S    
C25   H2    S    
Cu2   O2    S    
C14   C15   A    
C36   O16   S    
O24   H18   S    
C13   C14   A    
C22   C36   S    
C4    C30   S    
C6    C41   S    
