data_mof_unit_32696.cif
_audit_creation_date              2013-03-05T15:47:51-0500
_audit_creation_method            fapswitch 2.2
_symmetry_space_group_name_H-M    P1
_symmetry_Int_Tables_number       1
_space_group_crystal_system       triclinic
_cell_length_a                    10.155895
_cell_length_b                    10.821882
_cell_length_c                    15.735688
_cell_angle_alpha                 90.235987
_cell_angle_beta                  81.643106
_cell_angle_gamma                 95.319623
_cell_volume                      1703.6351323

loop_
_atom_site_label
_atom_site_type_symbol
_atom_site_description
_atom_site_fract_x
_atom_site_fract_y
_atom_site_fract_z
_atom_type_partial_charge
O1    O     O_R   0.431050 0.692470 0.506940 -0.620203
O2    O     O_R   0.651130 0.659650 0.484820 -0.560599
C1    C     C_R   0.555979 0.732497 0.492107 0.958253
O3    O     O_R   0.389910 0.516410 0.633920 -0.611101
O4    O     O_R   0.609990 0.483590 0.611800 -0.565714
C2    C     C_R   0.500564 0.500150 0.661574 0.909193
Zn1   Zn    Zn3+2 0.353060 0.521920 0.514770 0.990278
Zn2   Zn    Zn3+2 0.646940 0.478080 0.485230 1.027951
O5    O     O_R   0.348870 0.340350 0.515180 -0.612427
O6    O     O_R   0.568950 0.307530 0.493060 -0.622342
O7    O     O_R   0.390010 0.516410 0.388200 -0.595465
O8    O     O_R   0.610090 0.483590 0.366080 -0.602465
C3    C     C_R   0.443956 0.267464 0.503251 0.920558
C4    C     C_R   0.499504 0.500113 0.338438 0.879947
C5    C     C_3   0.425543 0.615609 0.956164 -0.413522
C6    C     C_3   0.647794 0.524946 0.936821 -0.415924
C7    C     C_3   0.647973 0.529656 0.035338 0.235124
H1    H     H_    0.462216 0.705871 0.075454 0.154676
H2    H     H_    0.477544 0.705421 0.929844 0.180940
H3    H     H_    0.703950 0.446694 0.909702 0.177046
H4    H     H_    0.699491 0.610982 0.904350 0.243277
H5    H     H_    0.701764 0.450790 0.053405 0.117517
C8    C     C_1   0.499128 0.503461 0.249658 -0.044500
C9    C     C_3   0.502587 0.506874 0.917053 0.158652
C10   C     C_3   0.417388 0.615000 0.055402 0.330191
C11   C     C_3   0.500209 0.510520 0.082766 0.026756
C12   C     C_3   0.439384 0.382393 0.054951 -0.434086
C13   C     C_3   0.434032 0.383007 0.957578 -0.362939
C14   C     C_1   0.499509 0.507307 0.174340 0.063299
C15   C     C_1   0.502854 0.504188 0.825583 -0.029764
C16   C     C_1   0.502222 0.502010 0.750325 -0.113675
H6    H     H_    0.328112 0.370453 0.945978 0.232154
H7    H     H_    0.484782 0.303411 0.927469 0.183958
H8    H     H_    0.337912 0.357776 0.090882 0.258749
H9    H     H_    0.324254 0.608706 0.936399 0.238356
H10   H     H_    0.501558 0.308265 0.070327 0.174643
H11   H     H_    0.614698 0.105675 0.454835 0.192934
H12   H     H_    0.384363 0.893799 0.477688 0.203851
C17   C     C_2   0.587549 0.864352 0.480089 -0.324193
C18   C     C_2   0.487369 0.933724 0.474512 -0.147080
H13   H     H_    0.309655 0.095123 0.514915 0.166399
C19   C     C_2   0.412153 0.135453 0.497551 -0.346537
C20   C     C_2   0.511891 0.065857 0.472096 -0.138934
H14   H     H_    0.690267 0.904758 0.477055 0.180999
H15   H     H_    0.106784 0.420680 0.447343 0.157851
N1    N     N_2   0.842720 0.448890 0.465540 -0.242297
C21   C     C_2   0.926973 0.511416 0.507248 0.350359
H16   H     H_    0.123410 0.616593 0.577834 0.228948
N2    N     N_2   0.157250 0.551040 0.534500 -0.177914
C22   C     C_2   0.071837 0.489726 0.493331 -0.182429
H17   H     H_    0.879880 0.383890 0.422706 0.138041
S1    S     S_3+6 0.244544 0.605753 0.105684 0.026169
O9    O     O_2   0.233893 0.588872 0.201255 -0.298385
O10   O     O_2   0.188417 0.725068 0.087614 -0.238580
O11   O     O_3   0.154052 0.487707 0.065164 -0.567025
H18   H     H_    0.061323 0.492485 0.094162 0.409335
N3    N     N_R   0.880999 0.602905 0.567546 0.232207
O12   O     O_R   0.861747 0.575683 0.649111 -0.393552
O13   O     O_R   0.895628 0.718950 0.543840 -0.396310
S2    S     S_3+6 0.745509 0.668303 0.063720 0.014058
O14   O     O_2   0.888714 0.659948 0.025126 -0.234673
O15   O     O_2   0.697444 0.782248 0.028598 -0.313698
O16   O     O_3   0.737599 0.680306 0.170857 -0.557864
H19   H     H_    0.795571 0.756643 0.179756 0.401527

loop_
_geom_bond_atom_site_label_1
_geom_bond_atom_site_label_2
_geom_bond_distance
_ccdc_geom_bond_type
C4    C8    1.398206 S    
H11   C20   1.088440 S    
O4    Zn2   1.974090 S    
Zn1   O7    1.974088 S    
O11   H18   0.990812 S    
C6    H4    1.113072 S    
C12   H10   1.113869 S    
C21   N3    1.430989 S    
H13   C19   1.087569 S    
C7    H5    1.114132 S    
S1    O11   1.681984 S    
Zn2   O8    1.966701 S    
C6    H3    1.113699 S    
C18   C20   1.428227 S    
C2    C16   1.399145 S    
N3    O12   1.300707 A    
C10   S1    1.811566 S    
C1    C17   1.440286 S    
C6    C9    1.545674 S    
C5    C9    1.549327 S    
C5    H2    1.113406 S    
C11   C12   1.552583 S    
C17   H14   1.087585 S    
H1    C10   1.109095 S    
H15   C22   1.085362 S    
S2    O14   1.503124 D    
O3    Zn1   1.966701 S    
O4    C2    1.289706 A    
C7    C11   1.571625 S    
C8    C14   1.185518 T    
O3    C2    1.289452 A    
C3    C19   1.440519 S    
H12   C18   1.088450 S    
S1    O10   1.503211 D    
C13   H7    1.113579 S    
O2    C1    1.294897 A    
C21   C22   1.495830 S    
Zn2   N1    2.021333 S    
S2    O16   1.681152 S    
C12   H8    1.110692 S    
C15   C16   1.185315 T    
O7    C4    1.289547 A    
C9    C15   1.439136 S    
N3    O13   1.300561 A    
C5    C10   1.551714 S    
C19   C20   1.332198 D    
C7    S2    1.810919 S    
O16   H19   0.990722 S    
C17   C18   1.332123 D    
C13   H6    1.112975 S    
S1    O9    1.502673 D    
Zn1   N2    2.021451 S    
C11   C14   1.440506 S    
S2    O15   1.503300 D    
N2    C22   1.290541 D    
C5    H9    1.113123 S    
C12   C13   1.541139 S    
Zn1   O5    1.961457 S    
O5    C3    1.295087 A    
N1    C21   1.293438 D    
H16   N2    1.029292 S    
C10   C11   1.567466 S    
O1    Zn1   1.936874 S    
N1    H17   1.030978 S    
Zn2   O6    1.936875 S    
O2    Zn2   1.961459 S    
C9    C13   1.547000 S    
O8    C4    1.289341 A    
C6    C7    1.551115 S    
O1    C1    1.290246 A    
O6    C3    1.290150 A    
