data_mof_unit_68155.cif
_audit_creation_date              2012-12-11T16:25:28-0500
_audit_creation_method            fapswitch 2.2
_symmetry_space_group_name_H-M    P1
_symmetry_Int_Tables_number       1
_space_group_crystal_system       triclinic
_cell_length_a                    20.401539
_cell_length_b                    7.438385
_cell_length_c                    14.396119
_cell_angle_alpha                 90.002726
_cell_angle_beta                  104.451121
_cell_angle_gamma                 89.994619
_cell_volume                      2115.55464858

loop_
_atom_site_label
_atom_site_type_symbol
_atom_type_description
_atom_site_fract_x
_atom_site_fract_y
_atom_site_fract_z
_atom_type_partial_charge
O1    O     O_R   0.449520 0.506760 0.599710 -0.536510
O2    O     O_R   0.550480 0.006760 0.400290 -0.536509
O3    O     O_R   0.587930 0.180200 0.595790 -0.545533
O4    O     O_R   0.412070 0.680200 0.404210 -0.545527
C1    C     C_R   0.612516 0.343403 0.619747 0.703542
C2    C     C_R   0.387485 0.843410 0.380252 0.703543
O5    O     O_R   0.452350 0.177380 0.611700 -0.564862
O6    O     O_R   0.547650 0.677380 0.388300 -0.564862
O7    O     O_R   0.413930 0.001760 0.416320 -0.546218
O8    O     O_R   0.586070 0.501760 0.583680 -0.546203
C3    C     C_R   0.431625 0.346147 0.629098 0.691974
C4    C     C_R   0.568376 0.846131 0.370902 0.691974
O9    O     O_3   0.487550 0.337460 0.435880 -0.391178
O10   O     O_3   0.512450 0.837460 0.564120 -0.391174
V1    V     V_3+5 0.502310 0.064670 0.511900 1.366775
V2    V     V_3+5 0.497690 0.564670 0.488100 1.366785
C5    C     C_R   0.612129 0.853633 0.135763 0.191221
C6    C     C_R   0.387864 0.353708 0.864224 0.191239
C7    C     C_R   0.613165 0.858946 0.303266 -0.112182
C8    C     C_R   0.386831 0.359007 0.696725 -0.112184
C9    C     C_R   0.939616 0.801307 0.300658 -0.186805
C10   C     C_R   0.060386 0.301163 0.699349 -0.186888
C11   C     C_R   0.913636 0.779095 0.380143 0.068088
C12   C     C_R   0.086362 0.279131 0.619852 0.068078
C13   C     C_R   0.842217 0.775324 0.364260 -0.231260
C14   C     C_R   0.157779 0.275496 0.635712 -0.231334
C15   C     C_R   0.797246 0.823262 0.274732 0.074866
C16   C     C_R   0.202749 0.323386 0.725247 0.074913
C17   C     C_R   0.828259 0.854220 0.197493 0.018501
C18   C     C_R   0.171734 0.354291 0.802492 0.018517
C19   C     C_R   0.723401 0.836719 0.257062 -0.025507
C20   C     C_R   0.276592 0.336844 0.742917 -0.025526
C21   C     C_R   0.684388 0.837460 0.157023 0.076829
C22   C     C_R   0.315605 0.337560 0.842959 0.076814
C23   C     C_R   0.719577 0.837224 0.082058 0.180473
C24   C     C_R   0.280417 0.337315 0.917924 0.180486
C25   C     C_R   0.788532 0.869549 0.104687 -0.237504
C26   C     C_R   0.211460 0.369638 0.895297 -0.237528
C27   C     C_R   0.685726 0.843767 0.331859 -0.090180
C28   C     C_R   0.314270 0.343876 0.668122 -0.090169
C29   C     C_R   0.581137 0.899319 0.208559 0.123811
C30   C     C_R   0.418857 0.399377 0.791432 0.123807
C31   C     C_R   0.899545 0.850006 0.211747 -0.064059
C32   C     C_R   0.100449 0.349968 0.788249 -0.064002
H1    H     H_    0.991866 0.775631 0.306699 0.098510
H2    H     H_    0.008148 0.275303 0.693311 0.098609
H3    H     H_    0.823002 0.726092 0.421446 0.138952
H4    H     H_    0.176987 0.226369 0.578497 0.138994
H5    H     H_    0.812701 0.889698 0.046544 0.124471
H6    H     H_    0.187289 0.389765 0.953442 0.124477
H7    H     H_    0.115188 0.020737 0.464841 0.147251
H8    H     H_    0.884844 0.520278 0.535140 0.147272
C33   C     C_R   0.244353 0.843492 0.052811 0.094285
C34   C     C_R   0.755647 0.343463 0.947189 0.094276
C35   C     C_R   0.302650 0.781924 0.023797 0.084104
C36   C     C_R   0.697356 0.281883 0.976198 0.084088
C37   C     C_R   0.357835 0.715352 0.092029 -0.226599
C38   C     C_R   0.642173 0.215326 0.907965 -0.226595
C39   C     C_R   0.360388 0.724738 0.187457 -0.195777
C40   C     C_R   0.639618 0.224729 0.812537 -0.195764
C41   C     C_R   0.306762 0.797948 0.219444 0.039722
C42   C     C_R   0.693240 0.297939 0.780554 0.039735
C43   C     C_R   0.243632 0.832424 0.152371 0.041856
C44   C     C_R   0.756367 0.332417 0.847627 0.041849
C45   C     C_R   0.317157 0.840044 0.317002 -0.152303
C46   C     C_R   0.682845 0.340020 0.682996 -0.152305
C47   C     C_R   0.260989 0.875100 0.354210 0.031451
C48   C     C_R   0.739014 0.375021 0.645786 0.031448
C49   C     C_R   0.195020 0.903389 0.289652 0.015493
C50   C     C_R   0.804983 0.403283 0.710342 0.015551
C51   C     C_R   0.184763 0.868212 0.187414 -0.161629
C52   C     C_R   0.815235 0.368198 0.812587 -0.161630
C53   C     C_R   0.268476 0.877225 0.455917 0.141809
C54   C     C_R   0.731527 0.377111 0.544079 0.141826
C55   C     C_R   0.215644 0.937365 0.491431 -0.177970
C56   C     C_R   0.784368 0.437148 0.508563 -0.177886
C57   C     C_R   0.154677 0.980463 0.431773 -0.173591
C58   C     C_R   0.845344 0.480146 0.568216 -0.173781
C59   C     C_R   0.142941 0.965770 0.332739 0.112642
C60   C     C_R   0.857070 0.465533 0.667251 0.112697
H9    H     H_    0.402082 0.664974 0.072053 0.118621
H10   H     H_    0.597929 0.164945 0.927940 0.118618
H11   H     H_    0.406607 0.678126 0.235728 0.140358
H12   H     H_    0.593402 0.178116 0.764265 0.140363
H13   H     H_    0.221292 0.949756 0.566827 0.118128
H14   H     H_    0.778727 0.449483 0.433168 0.118128
O11   O     O_R   0.913760 0.203480 0.916370 -0.535875
O12   O     O_R   0.086240 0.703480 0.083630 -0.535881
O13   O     O_R   0.047590 0.535230 0.888250 -0.544521
O14   O     O_R   0.952410 0.035230 0.111750 -0.544549
C61   C     C_R   0.065834 0.367375 0.867249 0.661907
C62   C     C_R   0.934164 0.867389 0.132750 0.661868
O15   O     O_R   0.912020 0.532880 0.904260 -0.543813
O16   O     O_R   0.087980 0.032880 0.095740 -0.543799
O17   O     O_R   0.949590 0.708460 0.099750 -0.541177
O18   O     O_R   0.050410 0.208460 0.900250 -0.541199
C63   C     C_R   0.885425 0.366132 0.882629 0.702719
C64   C     C_R   0.114573 0.866129 0.117377 0.702686
O19   O     O_3   0.012370 0.375360 0.064120 -0.392707
O20   O     O_3   0.987630 0.875360 0.935880 -0.392717
V3    V     V_3+5 0.997700 0.648160 0.988110 1.369989
V4    V     V_3+5 0.002300 0.148160 0.011890 1.369979
C65   C     C_3   0.513701 0.997530 0.185813 -0.759796
H15   H     H_    0.497142 0.040590 0.110200 0.208797
H16   H     H_    0.474143 0.912212 0.202986 0.194432
H17   H     H_    0.518494 0.123214 0.228543 0.226996
C66   C     C_3   0.486296 0.497546 0.814180 -0.759777
H18   H     H_    0.502864 0.540565 0.889799 0.208797
H19   H     H_    0.525848 0.412212 0.796987 0.194421
H20   H     H_    0.481501 0.623244 0.771467 0.226998
C67   C     C_3   0.191966 0.956529 0.984120 -0.766240
H21   H     H_    0.210690 0.014928 0.925432 0.217496
H22   H     H_    0.146141 0.876114 0.951868 0.211631
H23   H     H_    0.179753 0.077310 0.021378 0.217151
C68   C     C_3   0.808033 0.456471 0.015892 -0.766256
H24   H     H_    0.789307 0.514859 0.074585 0.217516
H25   H     H_    0.853859 0.376035 0.048137 0.211626
H26   H     H_    0.820246 0.577256 0.978647 0.217144
C69   C     C_R   0.312427 0.805554 0.926035 0.108460
C70   C     C_R   0.259557 0.776076 0.844723 -0.126739
C71   C     C_R   0.265000 0.838787 0.756530 -0.129878
C72   C     C_R   0.324610 0.921594 0.747594 -0.100478
C73   C     C_R   0.380918 0.926416 0.824803 -0.086374
C74   C     C_R   0.374660 0.870973 0.914154 -0.145365
H27   H     H_    0.211888 0.720064 0.850537 0.124915
H28   H     H_    0.221503 0.828186 0.697456 0.094638
H29   H     H_    0.327390 0.986245 0.681971 0.118966
H30   H     H_    0.427857 0.984728 0.816966 0.118033
H31   H     H_    0.417119 0.891423 0.974755 0.102036
C75   C     C_R   0.687584 0.305478 0.073965 0.108481
C76   C     C_R   0.740461 0.275968 0.155264 -0.126735
C77   C     C_R   0.735028 0.338662 0.243468 -0.129916
C78   C     C_R   0.675419 0.421487 0.252422 -0.100484
C79   C     C_R   0.619103 0.426335 0.175222 -0.086376
C80   C     C_R   0.625352 0.370904 0.085862 -0.145352
H32   H     H_    0.788130 0.219955 0.149434 0.124905
H33   H     H_    0.778535 0.328041 0.302530 0.094640
H34   H     H_    0.672645 0.486141 0.318051 0.118973
H35   H     H_    0.572166 0.484662 0.183074 0.118034
H36   H     H_    0.582888 0.391372 0.025269 0.102029
C81   C     C_3   0.326431 0.790452 0.529204 -0.726918
H37   H     H_    0.311392 0.748632 0.593988 0.189950
H38   H     H_    0.339704 0.660830 0.502173 0.242391
H39   H     H_    0.371082 0.878742 0.552300 0.211344
C82   C     C_3   0.673566 0.290371 0.470797 -0.726903
H40   H     H_    0.688596 0.248533 0.406006 0.189936
H41   H     H_    0.660297 0.160756 0.497828 0.242384
H42   H     H_    0.628920 0.378696 0.447710 0.211347
C83   C     C_3   0.075111 0.028585 0.279377 -0.705467
H43   H     H_    0.079481 0.156701 0.242193 0.233696
H44   H     H_    0.051357 0.920399 0.232452 0.184172
H45   H     H_    0.040574 0.050675 0.326223 0.204222
C84   C     C_3   0.924904 0.528268 0.720615 -0.705674
H46   H     H_    0.920543 0.656398 0.757795 0.233689
H47   H     H_    0.948642 0.420065 0.767546 0.184168
H48   H     H_    0.959446 0.550306 0.673775 0.204262
C85   C     C_3   0.689546 0.796727 0.976498 -0.762060
H49   H     H_    0.726122 0.815739 0.931631 0.199181
H50   H     H_    0.674492 0.653790 0.967415 0.216147
H51   H     H_    0.646946 0.883901 0.943651 0.224921
C86   C     C_3   0.310448 0.296787 0.023481 -0.762062
H52   H     H_    0.273872 0.315799 0.068350 0.199171
H53   H     H_    0.325503 0.153844 0.032550 0.216142
H54   H     H_    0.353046 0.383943 0.056338 0.224932
C87   C     C_3   0.563751 0.807745 0.040504 -0.828291
H55   H     H_    0.580665 0.692798 0.005422 0.214485
H56   H     H_    0.515346 0.756067 0.051720 0.200558
H57   H     H_    0.552606 0.926829 0.993047 0.205355
C88   C     C_3   0.436243 0.307797 0.959481 -0.828294
H58   H     H_    0.419333 0.192854 0.994558 0.214488
H59   H     H_    0.484650 0.256106 0.948263 0.200548
H60   H     H_    0.447387 0.426874 0.006945 0.205352
C89   C     C_R   0.718085 0.863579 0.438349 0.053359
C90   C     C_R   0.768815 0.991557 0.472670 -0.143600
C91   C     C_R   0.794582 0.020140 0.571405 -0.129614
C92   C     C_R   0.768625 0.927504 0.637938 -0.101908
C93   C     C_R   0.717272 0.803682 0.605877 -0.077771
C94   C     C_R   0.693941 0.768738 0.507765 -0.123938
H61   H     H_    0.787312 0.071402 0.422453 0.122438
H62   H     H_    0.835807 0.112999 0.596416 0.124885
H63   H     H_    0.788301 0.951738 0.713950 0.115443
H64   H     H_    0.696417 0.731926 0.657214 0.121955
H65   H     H_    0.657494 0.664540 0.486749 0.136569
C95   C     C_R   0.281923 0.363670 0.561624 0.053383
C96   C     C_R   0.231196 0.491668 0.527267 -0.143756
C97   C     C_R   0.205472 0.520249 0.428521 -0.129563
C98   C     C_R   0.231451 0.427575 0.362018 -0.101782
C99   C     C_R   0.282790 0.303717 0.394114 -0.077754
C100  C     C_R   0.306086 0.268787 0.492231 -0.123876
H66   H     H_    0.212661 0.571522 0.577457 0.122467
H67   H     H_    0.164262 0.613158 0.403478 0.124781
H68   H     H_    0.211804 0.451811 0.286000 0.115419
H69   H     H_    0.303663 0.231925 0.342801 0.121963
H70   H     H_    0.342520 0.164556 0.513269 0.136571
C101  C     C_R   0.962135 0.777878 0.478892 0.110871
C102  C     C_R   0.031957 0.741252 0.493912 -0.105942
C103  C     C_R   0.076707 0.765533 0.583751 -0.129706
C104  C     C_R   0.054449 0.835827 0.659835 -0.062440
C105  C     C_R   0.986260 0.874829 0.646830 -0.143594
C106  C     C_R   0.940805 0.837659 0.558754 -0.193641
H71   H     H_    0.053796 0.695571 0.437557 0.108139
H72   H     H_    0.129133 0.734858 0.593153 0.098886
H73   H     H_    0.089793 0.859206 0.728528 0.117764
H74   H     H_    0.968018 0.927949 0.705751 0.125358
H75   H     H_    0.888871 0.854404 0.553113 0.143604
C107  C     C_R   0.037858 0.277935 0.521111 0.110653
C108  C     C_R   0.968070 0.240880 0.506062 -0.106045
C109  C     C_R   0.923313 0.265058 0.416214 -0.129772
C110  C     C_R   0.945525 0.335662 0.340164 -0.062577
C111  C     C_R   0.013676 0.375151 0.353216 -0.143444
C112  C     C_R   0.059143 0.338151 0.441302 -0.193349
H76   H     H_    0.946269 0.194988 0.562407 0.108335
H77   H     H_    0.870914 0.234054 0.406771 0.098989
H78   H     H_    0.910171 0.358930 0.271465 0.117772
H79   H     H_    0.031885 0.428552 0.294331 0.125314
H80   H     H_    0.111050 0.355508 0.447029 0.143432

loop_
_geom_bond_atom_site_label_1
_geom_bond_atom_site_label_2
_ccdc_geom_bond_type
C46   C48   A    
C109  H77   S    
C78   C79   A    
O18   V4    S    
C15   C17   A    
C33   C43   A    
C53   C55   A    
C88   H58   S    
C54   C82   S    
C75   C80   A    
O1    C3    A    
C27   C89   S    
O2    C4    A    
C82   H42   S    
C2    O7    A    
H7    C57   S    
O12   V3    S    
C96   C97   A    
C73   C74   A    
C35   C69   S    
C89   C90   A    
O5    C3    A    
C87   H55   S    
C54   C56   A    
C66   H20   S    
C23   C25   A    
C56   C58   A    
C83   H44   S    
C8    C28   A    
C58   C60   A    
C37   C39   A    
O16   C64   A    
C38   C40   A    
C68   H24   S    
C106  H75   S    
C72   H29   S    
C95   C96   A    
C18   C26   A    
C40   C42   A    
C97   H67   S    
C49   C51   A    
C90   C91   A    
O14   V4    S    
C42   C44   A    
C82   H41   S    
C61   O18   A    
C9    C31   A    
C107  C112  A    
C55   H13   S    
C85   H49   S    
C10   C32   A    
C67   H21   S    
C36   C38   A    
C109  C110  A    
C45   C47   A    
O17   V3    S    
C66   H18   S    
C19   C21   A    
C93   H64   S    
C104  C105  A    
C47   C53   A    
C39   H11   S    
O13   C61   A    
C30   C66   S    
C13   H3    S    
C22   C24   A    
C94   H65   S    
C14   H4    S    
C59   C83   S    
C33   C67   S    
O5    V1    S    
C112  H80   S    
C78   H34   S    
C85   H50   S    
C17   C31   A    
C86   H52   S    
C88   H59   S    
C18   C32   A    
C67   H23   S    
C92   H63   S    
C5    C21   A    
H8    C58   S    
C100  H70   S    
C1    O8    A    
C86   H53   S    
C82   H40   S    
C9    H1    S    
C52   C63   S    
C33   C35   A    
C9    C11   A    
C80   H36   S    
C51   C64   S    
C34   C36   A    
C3    C8    S    
C39   C41   A    
C42   C46   A    
C50   C60   A    
C108  C109  A    
C60   C84   S    
C38   H10   S    
O4    C2    A    
C76   H32   S    
C69   C70   A    
C81   H39   S    
O15   V3    S    
C79   H35   S    
O8    V2    S    
C107  C108  A    
C77   C78   A    
C87   H56   S    
C53   C81   S    
C68   H25   S    
C77   H33   S    
C69   C74   A    
C15   C19   A    
C62   O17   A    
C29   C65   S    
C71   H28   S    
C99   C100  A    
C47   C49   A    
C81   H38   S    
C20   C22   A    
O4    V2    S    
C98   C99   A    
C23   C85   S    
C66   H19   S    
C2    C45   S    
O11   V4    S    
C25   H5    S    
O15   C63   A    
O14   C62   A    
C91   C92   A    
O10   V1    S    
C16   C20   A    
O6    C4    A    
C68   H26   S    
C34   C68   S    
O19   V4    S    
C41   C43   A    
C110  C111  A    
C98   H68   S    
C57   C59   A    
C103  H72   S    
C67   H22   S    
O1    V2    S    
C84   H48   S    
O2    V1    S    
C55   C57   A    
C71   C72   A    
C79   C80   A    
C32   C61   S    
C7    C27   A    
C97   C98   A    
C48   C50   A    
C92   C93   A    
C10   H2    S    
C43   C51   A    
C99   H69   S    
C111  C112  A    
C87   H57   S    
C20   C28   A    
C35   C37   A    
C105  H74   S    
C65   H16   S    
C10   C12   A    
C83   H45   S    
C84   H47   S    
C11   C101  S    
C76   C77   A    
C56   H14   S    
C104  H73   S    
C86   H54   S    
O3    V1    S    
C70   C71   A    
C101  C106  A    
C6    C88   S    
O13   V3    S    
C70   H27   S    
C31   C62   S    
C12   C14   A    
C102  C103  A    
O3    C1    A    
C8    C30   A    
C108  H76   S    
C91   H62   S    
C26   H6    S    
C85   H51   S    
C14   C16   A    
C110  H78   S    
C6    C30   A    
C75   C76   A    
C102  H71   S    
C16   C18   A    
C5    C87   S    
C81   H37   S    
C1    C46   S    
C24   C26   A    
C40   H12   S    
C73   H30   S    
C24   C86   S    
C34   C44   A    
C89   C94   A    
C6    C22   A    
C4    C7    S    
C12   C107  S    
O20   V3    S    
C21   C23   A    
C19   C27   A    
C74   H31   S    
C65   H17   S    
C37   H9    S    
C44   C52   A    
O7    V1    S    
C103  C104  A    
C5    C29   A    
C49   C59   A    
C111  H79   S    
C101  C102  A    
O12   C64   A    
C41   C45   A    
C96   H66   S    
C105  C106  A    
C11   C13   A    
O16   V4    S    
O6    V2    S    
C93   C94   A    
O9    V2    S    
C17   C25   A    
C65   H15   S    
C72   C73   A    
C95   C100  A    
C50   C52   A    
C88   H60   S    
O11   C63   A    
C84   H46   S    
C83   H43   S    
C48   C54   A    
C90   H61   S    
C36   C75   S    
C7    C29   A    
C28   C95   S    
C13   C15   A    
