data_mof_unit_43959.cif
_audit_creation_date              2013-03-05T16:15:20-0500
_audit_creation_method            fapswitch 2.2
_symmetry_space_group_name_H-M    P1
_symmetry_Int_Tables_number       1
_space_group_crystal_system       triclinic
_cell_length_a                    27.847708
_cell_length_b                    10.625177
_cell_length_c                    9.46027
_cell_angle_alpha                 89.636654
_cell_angle_beta                  90.272163
_cell_angle_gamma                 89.540239
_cell_volume                      2798.99060455

loop_
_atom_site_label
_atom_site_type_symbol
_atom_site_description
_atom_site_fract_x
_atom_site_fract_y
_atom_site_fract_z
_atom_type_partial_charge
O1    O     O_R   0.500020 0.316850 0.620870 -0.488765
O2    O     O_R   0.499980 0.683150 0.379130 -0.488765
O3    O     O_R   0.500000 0.316860 0.379090 -0.601433
O4    O     O_R   0.500000 0.683140 0.620910 -0.601433
C1    C     C_R   0.500293 0.259757 0.500170 0.862764
C2    C     C_R   0.499707 0.740243 0.499830 0.862764
O5    O     O_R   0.430270 0.500020 0.620880 -0.575321
O6    O     O_R   0.569730 0.499980 0.379120 -0.575322
O7    O     O_R   0.430250 0.500030 0.379090 -0.534338
O8    O     O_R   0.569750 0.499970 0.620910 -0.534339
C3    C     C_R   0.407563 0.499486 0.499358 0.838051
C4    C     C_R   0.592437 0.500514 0.500642 0.838052
Cu1   Cu    Cu3+1 0.500010 0.499990 0.643150 1.052981
Cu2   Cu    Cu3+1 0.499990 0.500010 0.356850 1.052980
C5    C     C_R   0.177644 0.388981 0.474373 0.574507
C6    C     C_R   0.822356 0.611019 0.525627 0.574507
O9    O     O_2   0.202485 0.280845 0.455221 -0.497949
O10   O     O_2   0.797515 0.719155 0.544779 -0.497949
N1    N     N_R   0.201643 0.499185 0.494892 -0.471379
N2    N     N_R   0.798357 0.500815 0.505108 -0.471379
C7    C     C_R   0.177460 0.611259 0.507534 0.597841
C8    C     C_R   0.822540 0.388740 0.492466 0.597841
C9    C     C_R   0.278313 0.565160 0.392854 -0.118326
C10   C     C_R   0.721687 0.434840 0.607146 -0.118326
C11   C     C_R   0.328352 0.566174 0.392405 0.139416
C12   C     C_R   0.671648 0.433826 0.607595 0.139417
C13   C     C_R   0.328865 0.426599 0.598257 0.096580
C14   C     C_R   0.671135 0.573401 0.401743 0.096580
C15   C     C_R   0.278722 0.428857 0.598018 -0.097871
C16   C     C_R   0.721278 0.571142 0.401981 -0.097871
C17   C     C_R   0.253291 0.498299 0.496040 0.243425
C18   C     C_R   0.746709 0.501701 0.503960 0.243425
C19   C     C_R   0.101554 0.501150 0.488794 -0.123043
C20   C     C_R   0.898446 0.498849 0.511206 -0.123043
C21   C     C_R   0.127290 0.387964 0.471063 -0.041876
C22   C     C_R   0.872710 0.612036 0.528937 -0.041876
C23   C     C_R   0.102515 0.277855 0.439603 -0.130963
C24   C     C_R   0.897484 0.722145 0.560398 -0.130963
C25   C     C_R   0.126837 0.615458 0.500029 -0.065453
C26   C     C_R   0.873163 0.384542 0.499971 -0.065454
C27   C     C_R   0.354521 0.497971 0.497118 -0.149577
C28   C     C_R   0.645479 0.502029 0.502882 -0.149577
H1    H     H_    0.259318 0.374851 0.676279 0.184717
H2    H     H_    0.740682 0.625148 0.323720 0.184717
H3    H     H_    0.122104 0.193194 0.411508 0.214746
H4    H     H_    0.877896 0.806806 0.588492 0.214746
C29   C     C_R   0.974929 0.384946 0.490927 0.018347
C30   C     C_R   0.025071 0.615053 0.509073 0.018347
C31   C     C_R   0.974421 0.614794 0.526331 0.039199
C32   C     C_R   0.025579 0.385206 0.473669 0.039200
C33   C     C_R   0.949426 0.499872 0.507571 0.050499
C34   C     C_R   0.050574 0.500128 0.492430 0.050499
C35   C     C_R   0.949275 0.272309 0.506213 -0.252351
C36   C     C_R   0.050725 0.727690 0.493787 -0.252352
C37   C     C_R   0.898980 0.269911 0.503696 0.467410
C38   C     C_R   0.101020 0.730089 0.496304 0.467410
O11   O     O_2   0.797535 0.282246 0.471010 -0.436190
O12   O     O_2   0.202465 0.717754 0.528990 -0.436190
C39   C     C_R   0.052606 0.277273 0.430952 0.119811
C40   C     C_R   0.947394 0.722727 0.569048 0.119811
H5    H     H_    0.741463 0.382922 0.687633 0.180552
H6    H     H_    0.258537 0.617078 0.312368 0.180552
H7    H     H_    0.968081 0.185187 0.527245 0.183857
H8    H     H_    0.031919 0.814813 0.472755 0.183857
C41   C     C_3   0.536414 0.038924 0.575914 0.472695
C42   C     C_3   0.463586 0.961076 0.424086 0.472695
C43   C     C_3   0.541622 0.956894 0.443561 -0.271662
C44   C     C_3   0.458378 0.043106 0.556439 -0.271663
H9    H     H_    0.575954 0.920299 0.400532 0.199242
H10   H     H_    0.424046 0.079701 0.599468 0.199242
C45   C     C_3   0.499966 0.876822 0.500305 -0.084430
C46   C     C_3   0.500034 0.123178 0.499694 -0.084430
C47   C     C_3   0.495654 0.957738 0.634762 -0.223983
C48   C     C_3   0.504346 0.042262 0.365238 -0.223982
H11   H     H_    0.493019 0.922058 0.745045 0.186599
H12   H     H_    0.506981 0.077942 0.254955 0.186599
C49   C     C_3   0.489013 0.608097 0.047680 0.478599
C50   C     C_3   0.510987 0.391903 0.952319 0.478598
C51   C     C_3   0.457783 0.530563 0.947956 -0.211679
C52   C     C_3   0.542217 0.469436 0.052044 -0.211678
H13   H     H_    0.422659 0.558338 0.900833 0.190711
H14   H     H_    0.577341 0.441662 0.099167 0.190711
N3    N     N_3   0.500040 0.499970 0.858290 -0.213622
N4    N     N_3   0.499960 0.500030 0.141710 -0.213623
C53   C     C_3   0.530871 0.579587 0.949711 0.174020
C54   C     C_3   0.469129 0.420412 0.050288 0.174020
I1    I     I_    0.361918 0.301596 0.745917 -0.275275
I2    I     I_    0.638082 0.698404 0.254082 -0.275275
O13   O     O_3   0.574758 0.083832 0.656143 -0.658105
H15   H     H_    0.591632 0.007757 0.692708 0.348400
O14   O     O_3   0.425242 0.916168 0.343857 -0.658105
H16   H     H_    0.408367 0.992243 0.307293 0.348400
O15   O     O_3   0.477243 0.726023 0.102759 -0.634655
H17   H     H_    0.470069 0.780318 0.019597 0.320405
O16   O     O_3   0.522757 0.273977 0.897241 -0.634656
H18   H     H_    0.529931 0.219682 0.980403 0.320405
I3    I     I_    0.580624 0.714759 0.870062 -0.266574
I4    I     I_    0.419376 0.285241 0.129937 -0.266574
I5    I     I_    0.640447 0.323322 0.770610 -0.180741
I6    I     I_    0.359553 0.676678 0.229390 -0.180741
O17   O     O_3   0.874864 0.156780 0.511047 -0.639252
H19   H     H_    0.898353 0.086132 0.510208 0.340579
O18   O     O_3   0.125136 0.843220 0.488953 -0.639252
H20   H     H_    0.101647 0.913868 0.489792 0.340579
I7    I     I_    0.026237 0.122990 0.308981 -0.331135
I8    I     I_    0.973763 0.877010 0.691019 -0.331135

loop_
_geom_bond_atom_site_label_1
_geom_bond_atom_site_label_2
_geom_bond_distance
_ccdc_geom_bond_type
C42   C44   1.536873 S    
O17   H19   0.991809 S    
C13   C15   1.396386 A    
O16   H18   0.991244 S    
Cu2   N4    2.035278 S    
C52   N4    1.488899 S    
N1    C17   1.438209 S    
C8    O11   1.349314 S    
C19   C34   1.420391 A    
C41   O13   1.396058 S    
C20   C33   1.420391 A    
C39   I7    2.143174 S    
C31   C40   1.428230 A    
C48   H12   1.110743 S    
O1    C1    1.296411 A    
C32   C39   1.428230 A    
C21   C23   1.395967 A    
N4    C54   1.488174 S    
C1    C46   1.451282 S    
C50   C52   1.529258 S    
C42   C48   1.535598 S    
C41   C47   1.535598 S    
C14   C28   1.416683 A    
O4    Cu1   1.956013 S    
C4    C28   1.477368 S    
C5    N1    1.367358 A    
C50   N3    1.476989 S    
C9    H6    1.083139 S    
C42   C45   1.522516 S    
C14   C16   1.396389 A    
C41   C43   1.536873 S    
C14   I2    2.123031 S    
C32   C34   1.422033 A    
C43   C45   1.540651 S    
C6    N2    1.367358 A    
C12   I5    2.125546 S    
C29   C35   1.405741 A    
C50   C54   1.522370 S    
C35   C37   1.401123 A    
C49   C53   1.522370 S    
Cu1   Cu2   2.708470 S    
C15   H1    1.082957 S    
C47   H11   1.110742 S    
C16   H2    1.082956 S    
O2    C2    1.296412 A    
O2    Cu2   1.958603 S    
C5    C21   1.402563 A    
C29   C32   1.420711 A    
C49   C51   1.529258 S    
C2    C45   1.451282 S    
C36   C38   1.401123 A    
C52   H14   1.110011 S    
C11   C27   1.418839 A    
O14   H16   0.991289 S    
C45   C47   1.544418 S    
C29   C33   1.417687 A    
C49   N4    1.476991 S    
C31   C33   1.422033 A    
C44   C47   1.555118 S    
C44   C46   1.540654 S    
C43   H9    1.109364 S    
C9    C17   1.395970 A    
C30   C36   1.405742 A    
O5    C3    1.309496 A    
O7    Cu2   1.954454 S    
C10   C18   1.395970 A    
C52   C53   1.543893 S    
C13   C27   1.416683 A    
C11   I6    2.125548 S    
C25   C38   1.409524 A    
C7    C25   1.411495 A    
C30   C34   1.417686 A    
C50   O16   1.397223 S    
O6    C4    1.309495 A    
C26   C37   1.409524 A    
C8    C26   1.411495 A    
C43   C48   1.555118 S    
C19   C25   1.413077 A    
C13   I1    2.123032 S    
O7    C3    1.304028 A    
C23   C39   1.391942 A    
O3    Cu2   1.956012 S    
O8    C4    1.304027 A    
C10   H5    1.083139 S    
C24   C40   1.391942 A    
C46   C48   1.544417 S    
C30   C31   1.420711 A    
N3    C53   1.488172 S    
N2    C8    1.369518 A    
C20   C26   1.413076 A    
O4    C2    1.292768 A    
O1    Cu1   1.958604 S    
C23   H3    1.083465 S    
C40   I8    2.143175 S    
C12   C28   1.418839 A    
C51   H13   1.110011 S    
N2    C18   1.438209 S    
C5    O9    1.350027 S    
C37   O17   1.383147 S    
O6    Cu2   1.952495 S    
N1    C7    1.369517 A    
C38   O18   1.383147 S    
C10   C12   1.393612 A    
O3    C1    1.292769 A    
O8    Cu1   1.954454 S    
C42   O14   1.396059 S    
C41   C46   1.522514 S    
O15   H17   0.991246 S    
Cu1   N3    2.035278 S    
C22   C24   1.395968 A    
C7    O12   1.349314 S    
C15   C17   1.397411 A    
C6    C22   1.402563 A    
C16   C18   1.397410 A    
C35   H7    1.076876 S    
C36   H8    1.076877 S    
C49   O15   1.397222 S    
C19   C21   1.406402 A    
C3    C27   1.477368 S    
C20   C22   1.406402 A    
C9    C11   1.393612 A    
C54   I4    2.139696 S    
C24   H4    1.083464 S    
C53   I3    2.139697 S    
C51   N3    1.488901 S    
O5    Cu1   1.952495 S    
C6    O10   1.350027 S    
O18   H20   0.991809 S    
C44   H10   1.109364 S    
O13   H15   0.991289 S    
C51   C54   1.543894 S    
