data_mof_unit_17210.cif
_audit_creation_date              2012-12-11T15:49:52-0500
_audit_creation_method            fapswitch 2.2
_symmetry_space_group_name_H-M    P1
_symmetry_Int_Tables_number       1
_space_group_crystal_system       triclinic
_cell_length_a                    8.306058
_cell_length_b                    19.146363
_cell_length_c                    26.832348
_cell_angle_alpha                 95.560094
_cell_angle_beta                  93.566177
_cell_angle_gamma                 84.623779
_cell_volume                      4222.32935718

loop_
_atom_site_label
_atom_site_type_symbol
_atom_type_description
_atom_site_fract_x
_atom_site_fract_y
_atom_site_fract_z
_atom_type_partial_charge
Ba1   Ba    Ba6+2 0.854000 0.466860 0.523710 1.683823
Ba2   Ba    Ba6+2 0.335820 0.533080 0.476290 1.705116
C1    C     C_3   0.686511 0.219117 0.662132 -0.377653
C2    C     C_R   0.869465 0.549769 0.168138 0.584171
C3    C     C_2   0.755659 0.541900 0.270659 -0.087328
C4    C     C_3   0.197295 0.308077 0.659441 0.303274
C5    C     C_3   0.739128 0.569815 0.325073 -0.102264
C6    C     C_1   0.983079 0.492262 0.343618 0.038233
C7    C     C_2   0.025402 0.491294 0.296284 -0.091300
C8    C     C_2   0.901694 0.512083 0.255246 0.185511
C9    C     C_R   0.004476 0.482950 0.098190 -0.083827
C10   C     C_R   0.086050 0.438805 0.132298 -0.033463
C11   C     C_R   0.207479 0.387909 0.114647 -0.057559
C12   C     C_3   0.680305 0.289672 0.640254 0.334755
C13   C     C_R   0.892479 0.537719 0.116056 -0.027252
C14   C     C_2   0.850186 0.528326 0.360144 -0.276041
C15   C     C_2   0.374957 0.512695 0.647148 -0.166450
C16   C     C_3   0.194084 0.290654 0.713401 -0.368434
C17   C     C_R   0.216118 0.425650 0.979374 0.029073
C18   C     C_R   0.960706 0.495478 0.958606 -0.045111
C19   C     C_R   0.109570 0.459281 0.943691 0.065002
C20   C     C_R   0.366047 0.393025 0.963306 -0.114394
C21   C     C_R   0.408922 0.393277 0.913796 -0.055301
C22   C     C_R   0.302725 0.424753 0.877890 0.004046
C23   C     C_3   0.649095 0.648220 0.633138 0.214085
C24   C     C_R   0.151114 0.455740 0.892632 -0.073838
C25   C     C_R   0.037928 0.479424 0.855709 -0.049225
C26   C     C_R   0.081000 0.473972 0.805065 0.649630
C27   C     C_R   0.345423 0.425748 0.827543 0.607121
C28   C     C_3   0.185235 0.316701 0.416306 0.315884
C29   C     C_2   0.456164 0.471677 0.731885 -0.101658
C30   C     C_3   0.513802 0.494032 0.683675 -0.051954
C31   C     C_1   0.225179 0.527937 0.661826 -0.116541
C32   C     C_2   0.186922 0.525950 0.709498 -0.051555
C33   C     C_2   0.297404 0.481417 0.744403 0.198332
C34   C     C_3   0.619919 0.660922 0.688775 -0.394546
C35   C     C_R   0.169636 0.426444 0.029823 0.020851
C36   C     C_R   0.037271 0.473254 0.046204 0.062682
C37   C     C_R   0.939377 0.511566 0.011149 0.005376
C38   C     C_R   0.251696 0.383161 0.064846 -0.106235
C39   C     C_R   0.810225 0.581171 0.081600 -0.053182
C40   C     C_3   0.186025 0.237623 0.403129 -0.363692
C41   C     C_R   0.840626 0.512827 0.920188 -0.058383
C42   C     C_R   0.881817 0.505320 0.869670 -0.009508
C43   C     C_R   0.832032 0.567950 0.030211 -0.114168
C44   C     C_R   0.401087 0.298409 0.522747 -0.300950
C45   C     C_3   0.980999 0.698268 0.343660 0.352844
C46   C     C_R   0.536702 0.275639 0.495338 0.021972
C47   C     C_R   0.586223 0.203238 0.488907 -0.108110
C48   C     C_R   0.498978 0.153811 0.509419 -0.007965
C49   C     C_R   0.356071 0.178040 0.534020 -0.134216
C50   C     C_R   0.305422 0.249994 0.539705 -0.010632
C51   C     C_R   0.541962 0.036019 0.544660 -0.072386
C52   C     C_3   0.173589 0.687420 0.619522 0.712379
C53   C     C_R   0.589888 0.963728 0.540192 -0.086145
C54   C     C_R   0.650958 0.930236 0.495397 0.062383
C55   C     C_R   0.664035 0.971265 0.455285 -0.043691
C56   C     C_3   0.974727 0.717849 0.289958 -0.312514
C57   C     C_R   0.616054 0.043749 0.459775 -0.078464
C58   C     C_R   0.553659 0.077009 0.504483 0.057032
C59   C     C_R   0.843426 0.826142 0.466480 -0.137177
C60   C     C_R   0.894805 0.754033 0.464596 0.001059
C61   C     C_R   0.662202 0.733789 0.509942 0.015570
C62   C     C_R   0.611358 0.805844 0.512600 -0.093247
C63   C     C_R   0.701594 0.853036 0.490917 0.010935
C64   C     C_3   0.186777 0.720972 0.673819 -0.390153
C65   C     C_R   0.803131 0.708422 0.485897 -0.241515
C66   C     C_3   0.681596 0.379946 0.376137 0.304535
C67   C     C_3   0.488591 0.710552 0.322189 0.295913
C68   C     C_3   0.680554 0.362652 0.319601 -0.347573
C69   C     C_3   0.033218 0.789212 0.589565 0.199301
C70   C     C_2   0.502047 0.747961 0.374471 0.651265
C71   C     C_2   0.498464 0.817951 0.272703 0.490702
C72   C     C_2   0.666364 0.528261 0.930371 0.483863
C73   C     C_2   0.087164 0.588286 0.731855 0.566154
C74   C     C_2   0.356401 0.373538 0.533058 0.559250
C75   C     C_3   0.402945 0.758587 0.283808 -0.198457
C76   C     C_R   0.043853 0.446130 0.183157 0.595103
H1    H     H_    0.796904 0.293193 0.623139 0.109184
H2    H     H_    0.600426 0.428491 0.384549 0.083980
H3    H     H_    0.787624 0.214865 0.691083 0.142594
H4    H     H_    0.763501 0.314845 0.310318 0.127553
H5    H     H_    0.721175 0.407010 0.301505 0.067853
H6    H     H_    0.556086 0.353150 0.304565 0.142352
H7    H     H_    0.580591 0.291665 0.610915 0.016238
H8    H     H_    0.706040 0.175737 0.631919 0.080328
H9    H     H_    0.634597 0.592127 0.620782 0.053653
H10   H     H_    0.771482 0.661930 0.628297 0.091614
H11   H     H_    0.499491 0.645279 0.695973 0.098539
H12   H     H_    0.261423 0.221114 0.370554 0.130285
H13   H     H_    0.711498 0.628354 0.710344 0.103279
H14   H     H_    0.627677 0.717363 0.701976 0.137961
H15   H     H_    0.570626 0.213901 0.679406 0.117184
H16   H     H_    0.278082 0.322634 0.737596 0.120493
H17   H     H_    0.020625 0.641260 0.343092 0.032734
H18   H     H_    0.857473 0.709252 0.357921 -0.087127
H19   H     H_    0.089146 0.697903 0.272161 0.113385
H20   H     H_    0.873556 0.693417 0.267991 0.126549
H21   H     H_    0.955741 0.775916 0.289191 0.159785
H22   H     H_    0.612020 0.695370 0.308976 -0.058234
H23   H     H_    0.236604 0.209072 0.435351 0.058965
H24   H     H_    0.283901 0.781504 0.297221 0.103288
H25   H     H_    0.153441 0.364570 0.657866 0.083368
H26   H     H_    0.379957 0.726079 0.247907 0.059809
H27   H     H_    0.151509 0.479650 0.287845 0.148139
H28   H     H_    0.272458 0.352706 0.139743 0.122024
H29   H     H_    0.553554 0.452673 0.756691 0.170642
H30   H     H_    0.527106 0.369024 0.903837 0.113763
H31   H     H_    0.455561 0.369331 0.988919 0.068670
H32   H     H_    0.347278 0.343400 0.054162 0.073277
H33   H     H_    0.655018 0.553457 0.244179 0.127050
H34   H     H_    0.060463 0.223355 0.393638 0.123698
H35   H     H_    0.726743 0.625321 0.094199 0.124981
H36   H     H_    0.324391 0.299143 0.648067 0.009249
H37   H     H_    0.790332 0.519166 0.840827 0.157484
H38   H     H_    0.769518 0.604666 0.005897 0.084669
H39   H     H_    0.838090 0.541942 0.400029 0.078866
H40   H     H_    0.407966 0.527252 0.611272 0.078127
H41   H     H_    0.502404 0.824846 0.531644 0.088387
H42   H     H_    0.581318 0.934198 0.572214 0.058035
H43   H     H_    0.497397 0.060102 0.579941 0.064018
H44   H     H_    0.692870 0.185764 0.468302 0.080327
H45   H     H_    0.285163 0.652305 0.613410 0.019622
H46   H     H_    0.708747 0.947070 0.420060 0.099453
H47   H     H_    0.069711 0.302513 0.726793 0.143999
H48   H     H_    0.624753 0.073469 0.427863 0.068831
H49   H     H_    0.916603 0.861218 0.450396 0.081339
H50   H     H_    0.282129 0.141061 0.547670 0.077465
H51   H     H_    0.843954 0.652955 0.484800 0.069334
H52   H     H_    0.233013 0.234000 0.716145 0.120950
H53   H     H_    0.311133 0.329857 0.424845 -0.024806
H54   H     H_    0.110959 0.331351 0.449365 0.031082
H55   H     H_    0.028230 0.822552 0.557911 0.051615
H56   H     H_    0.066028 0.742704 0.686609 0.097436
H57   H     H_    0.917635 0.764025 0.587933 0.018031
H58   H     H_    0.045003 0.825230 0.624331 0.012682
H59   H     H_    0.574149 0.722219 0.403512 -0.115773
H60   H     H_    0.447786 0.853561 0.245561 0.008953
H61   H     H_    0.620125 0.512741 0.964191 -0.006744
H62   H     H_    0.992287 0.614936 0.709341 -0.041645
H63   H     H_    0.297086 0.403640 0.504026 0.022236
H64   H     H_    0.269395 0.763749 0.676818 0.125410
H65   H     H_    0.238352 0.681858 0.699201 0.048654
H66   H     H_    0.806346 0.388700 0.390399 0.013524
N1    N     N_R   0.937647 0.502120 0.201499 -0.419967
N2    N     N_R   0.242297 0.460387 0.792640 -0.409225
O1    O     O_2   0.913240 0.537010 0.617740 -0.485936
O2    O     O_2   0.232855 0.748720 0.462491 -0.429105
O3    O     O_3   0.091697 0.737510 0.373395 -0.567109
O4    O     O_3   0.145240 0.536960 0.557560 -0.444594
O5    O     O_3   0.557280 0.416300 0.475860 -0.506106
O6    O     O_2   0.376710 0.670070 0.522470 -0.392463
O7    O     O_3   0.540820 0.692614 0.606456 -0.644774
O8    O     O_2   0.442243 0.514437 0.325419 -0.484416
O9    O     O_3   0.400757 0.650797 0.322494 -0.602398
O10   O     O_2   0.100919 0.401939 0.210737 -0.599150
O11   O     O_2   0.471025 0.392663 0.814880 -0.609128
O12   O     O_3   0.628244 0.323099 0.397586 -0.633683
O13   O     O_2   0.791243 0.603835 0.183650 -0.615952
O14   O     O_2   0.973623 0.479445 0.772176 -0.591559
O15   O     O_3   0.669960 0.410470 0.588880 -0.454384
O16   O     O_2   0.842368 0.441311 0.672995 -0.446568
O17   O     O_3   0.035882 0.649298 0.610860 -0.678661
O18   O     O_3   0.652397 0.344324 0.678386 -0.596158
O19   O     O_2   0.812980 0.329910 0.477500 -0.465415
O20   O     O_3   0.078660 0.374870 0.564770 -0.464126
O21   O     O_2   0.965546 0.249571 0.537463 -0.496093
O22   O     O_3   0.169616 0.739354 0.584943 -0.613578
O23   O     O_3   0.097195 0.264541 0.628770 -0.608796
O24   O     O_2   0.434636 0.806617 0.384781 -0.567883
O25   O     O_2   0.630933 0.827054 0.293437 -0.587820
O26   O     O_2   0.571431 0.557147 0.900581 -0.561696
O27   O     O_2   0.114689 0.612407 0.775041 -0.567879
O28   O     O_2   0.371151 0.400962 0.575572 -0.629091
O29   O     O_2   0.276450 0.462960 0.382230 -0.450125
O30   O     O_3   0.044470 0.462980 0.442430 -0.512829
O31   O     O_3   0.519740 0.589470 0.411120 -0.471884
O32   O     O_3   0.120840 0.350894 0.374931 -0.619251
O33   O     O_3   0.632420 0.583650 0.524140 -0.480351
O34   O     O_3   0.111040 0.625070 0.435230 -0.484180
P1    P     P_3+3 0.082480 0.557670 0.610090 0.985783
P2    P     P_3+3 0.635220 0.340300 0.462910 0.975254
P3    P     P_3+3 0.109957 0.283088 0.566681 0.950011
P4    P     P_3+3 0.107220 0.442270 0.389900 0.988581
P5    P     P_3+3 0.083056 0.717084 0.435275 1.033558
P6    P     P_3+3 0.667931 0.425530 0.654578 1.034984
P7    P     P_3+3 0.558943 0.671338 0.541896 0.979757
P8    P     P_3+3 0.526487 0.580785 0.345543 0.942570

loop_
_geom_bond_atom_site_label_1
_geom_bond_atom_site_label_2
_ccdc_geom_bond_type
C34   H11   S    
Ba2   O4    S    
C53   C54   A    
Ba1   O30   S    
O3    P5    S    
C73   O27   D    
C2    N1    Am   
C67   C75   S    
C56   H20   S    
C50   P3    S    
C23   H9    S    
C52   H45   S    
C76   O10   D    
C44   C74   S    
C57   H48   S    
C24   C25   A    
C67   O9    S    
C62   H41   S    
Ba2   O34   S    
C60   C65   A    
C49   H50   S    
C17   C19   A    
C22   C24   A    
C32   C33   S    
C35   C38   A    
O18   P6    S    
O9    P8    S    
C16   H47   S    
C69   H57   S    
C36   C37   A    
C55   C57   A    
C2    O13   D    
O33   P7    S    
C71   H60   S    
C47   H44   S    
C7    H27   S    
C54   C63   S    
C44   C50   A    
C26   O14   D    
C54   C55   A    
C34   H14   S    
Ba1   Ba2   S    
C40   H34   S    
C22   C27   A    
C4    H36   S    
C11   C38   A    
C17   C35   A    
C76   N1    Am   
Ba2   O30   S    
C64   H56   S    
C9    C13   A    
C25   C42   A    
O21   P3    D    
C45   O3    S    
C42   H37   S    
C6    C7    D    
C10   C76   A    
C1    H3    S    
C21   C22   A    
O23   P3    S    
Ba2   O31   S    
C52   O17   S    
C71   O25   D    
C68   H6    S    
C7    C8    S    
C72   O26   D    
C32   C73   S    
C37   C43   A    
C74   H63   S    
C6    P4    S    
C41   C72   S    
Ba1   O15   S    
C57   C58   A    
C6    C14   D    
C1    H8    S    
C75   H24   S    
C65   H51   S    
C56   H19   S    
C15   C31   D    
O6    P7    D    
C66   O12   S    
C51   C58   A    
C48   C49   A    
O4    P1    S    
C44   C46   A    
C53   H42   S    
C51   C53   A    
Ba2   O6    S    
C4    C16   S    
C61   C65   A    
O20   P3    S    
C23   O7    S    
C49   C50   A    
C5    P8    S    
C17   C20   A    
O17   P1    S    
C13   C39   A    
C1    H15   S    
C39   H35   S    
C27   N2    Am   
C3    C5    S    
C18   C37   A    
Ba1   P1    S    
C38   H32   S    
C64   H65   S    
O7    P7    S    
O2    P5    D    
C4    H25   S    
O8    P8    D    
C23   H10   S    
C40   H12   S    
C33   N2    S    
C70   O24   D    
C67   C70   S    
C41   C42   A    
C35   C36   A    
Ba2   O29   S    
C29   C30   S    
Ba1   O19   S    
C45   H18   S    
C20   H31   S    
C31   C32   D    
C28   O32   S    
Ba1   O4    S    
C59   H49   S    
Ba2   P4    S    
C12   H1    S    
C18   C19   A    
C68   H5    S    
O12   P2    S    
C1    C12   S    
C15   H40   S    
C60   P5    S    
C64   H64   S    
C34   H13   S    
C70   H59   S    
C61   P7    S    
C69   O22   S    
C31   P1    S    
C16   H16   S    
C29   C33   D    
C16   H52   S    
Ba2   O33   S    
O19   P2    D    
C66   H2    S    
C40   H23   S    
C69   H58   S    
C18   C41   A    
O5    P2    S    
O16   P6    D    
C9    C36   A    
Ba2   O5    S    
O30   P4    S    
C46   C47   A    
C39   C43   A    
C23   C34   S    
C29   H29   S    
C5    C14   S    
C56   H21   S    
C12   H7    S    
C52   O22   S    
C11   H28   S    
C69   H55   S    
C66   H66   S    
C27   O11   D    
C9    C10   A    
C52   C64   S    
C3    H33   S    
C72   H61   S    
C26   N2    Am   
C30   P6    S    
C73   H62   S    
C48   C58   S    
C62   C63   A    
C2    C13   A    
C74   O28   D    
C3    C8    D    
C51   H43   S    
C14   H39   S    
C45   C56   S    
C46   P2    S    
Ba1   O33   S    
C43   H38   S    
O1    P1    D    
Ba1   O20   S    
C28   H54   S    
C21   H30   S    
C19   C24   A    
Ba1   O5    S    
C12   O18   S    
C59   C60   A    
C68   H4    S    
Ba1   P2    S    
Ba1   O1    S    
O34   P5    S    
C8    N1    S    
C61   C62   A    
C67   H22   S    
C59   C63   A    
C10   C11   A    
C71   C75   S    
C66   C68   S    
C47   C48   A    
C25   C26   A    
C15   C30   S    
C45   H17   S    
C20   C21   A    
C28   C40   S    
C75   H26   S    
O31   P8    S    
C4    O23   S    
O32   P4    S    
C28   H53   S    
O29   P4    D    
C55   H46   S    
O15   P6    S    
