data_mof_unit_12888.cif
_audit_creation_date              2012-12-10T18:58:15-0500
_audit_creation_method            fapswitch 2.2
_symmetry_space_group_name_H-M    P1
_symmetry_Int_Tables_number       1
_space_group_crystal_system       triclinic
_cell_length_a                    11.064913
_cell_length_b                    10.86622
_cell_length_c                    9.573806
_cell_angle_alpha                 91.529789
_cell_angle_beta                  103.148593
_cell_angle_gamma                 90.618331
_cell_volume                      1120.34938063

loop_
_atom_site_label
_atom_site_type_symbol
_atom_type_description
_atom_site_fract_x
_atom_site_fract_y
_atom_site_fract_z
_atom_type_partial_charge
C1    C     C_R   0.500095 0.262825 0.498219 0.815945
C2    C     C_R   0.505266 0.130289 0.493993 -0.144828
C3    C     C_R   0.454164 0.062991 0.367182 -0.244894
C4    C     C_R   0.446725 0.933504 0.367103 0.245978
C5    C     C_R   0.495730 0.872086 0.497251 -0.175522
C6    C     C_R   0.560565 0.941554 0.616414 0.082470
C7    C     C_3   0.550521 0.944748 0.769667 -0.487505
C8    C     C_3   0.552155 0.083786 0.766202 -0.435387
C9    C     C_R   0.597745 0.550951 0.101252 0.131567
C10   C     C_R   0.409637 0.438637 0.046358 0.456962
C11   C     C_R   0.409786 0.440546 0.898699 -0.060347
C12   C     C_R   0.262693 0.498773 0.441306 0.861324
C13   C     C_R   0.597073 0.550864 0.953408 0.177312
C14   C     C_3   0.636061 0.681943 0.960809 -0.516963
C15   C     C_3   0.639790 0.683219 0.119846 0.049181
C16   C     C_R   0.496707 0.737822 0.500007 0.793148
C17   C     C_R   0.737586 0.499943 0.559105 0.727773
C18   C     C_2   0.127294 0.494087 0.408096 -0.390333
C19   C     C_2   0.068456 0.491920 0.515487 -0.103472
C20   C     C_2   0.874197 0.501111 0.594566 0.235216
C21   C     C_2   0.933435 0.486208 0.487767 -0.170063
C22   C     C_R   0.563086 0.068086 0.614886 0.126807
Cu1   Cu    Cu3+1 0.499990 0.499980 0.640670 0.941009
Cu2   Cu    Cu3+1 0.500010 0.500020 0.359330 0.951945
H1    H     H_    0.882066 0.470410 0.377653 0.133783
H2    H     H_    0.636806 0.127116 0.836165 0.200156
H3    H     H_    0.336270 0.393216 0.821406 0.164071
H4    H     H_    0.727405 0.695338 0.932764 0.206270
H5    H     H_    0.558901 0.736608 0.901025 0.192285
H6    H     H_    0.571502 0.746551 0.150788 0.202372
H7    H     H_    0.120800 0.495510 0.626339 0.233033
H8    H     H_    0.075889 0.491644 0.296819 0.170611
H9    H     H_    0.411975 0.112095 0.272048 0.171305
H10   H     H_    0.460926 0.905838 0.784148 0.203534
H11   H     H_    0.636153 0.910975 0.841672 0.206324
H12   H     H_    0.462798 0.124974 0.776208 0.207778
N1    N     N_R   0.500780 0.500930 0.148120 -0.245720
N2    N     N_R   0.500790 0.500890 0.852210 -0.217996
O1    O     O_R   0.500000 0.319640 0.618810 -0.578325
O2    O     O_R   0.500010 0.319680 0.381230 -0.613433
O3    O     O_R   0.320680 0.500000 0.575130 -0.591241
O4    O     O_R   0.320690 0.500040 0.337550 -0.563823
O5    O     O_R   0.499990 0.680320 0.618770 -0.572330
O6    O     O_R   0.500000 0.680360 0.381190 -0.566982
O7    O     O_R   0.679310 0.499960 0.662450 -0.575767
O8    O     O_R   0.679320 0.500000 0.424870 -0.588236
O9    O     O_3   0.313798 0.374565 0.081799 -0.737881
H13   H     H_    0.345202 0.340122 0.176672 0.359413
N3    N     N_2   0.766087 0.700063 0.204198 -0.407871
H14   H     H_    0.823071 0.624946 0.211415 0.255100
C23   C     C_3   0.782846 0.777990 0.332112 -0.626688
H15   H     H_    0.883493 0.794753 0.377203 0.220152
H16   H     H_    0.742554 0.733079 0.413994 0.227929
H17   H     H_    0.738079 0.868177 0.306173 0.226082
O10   O     O_3   0.942206 0.519121 0.734403 -0.732907
H18   H     H_    0.884788 0.533409 0.798585 0.335738
N4    N     N_2   0.381638 0.865111 0.242226 -0.411566
H19   H     H_    0.308865 0.810646 0.256878 0.261817
C24   C     C_3   0.365314 0.917487 0.101781 -0.713889
H20   H     H_    0.291705 0.987757 0.086722 0.234859
H21   H     H_    0.336671 0.843510 0.018116 0.230847
H22   H     H_    0.454019 0.958882 0.088052 0.233875

loop_
_geom_bond_atom_site_label_1
_geom_bond_atom_site_label_2
_ccdc_geom_bond_type
C4    N4    S    
C2    C22   A    
C11   N2    A    
C8    C22   S    
Cu1   Cu2   S    
C23   H15   S    
C6    C7    S    
Cu1   O7    S    
Cu1   N2    S    
Cu2   O4    S    
C16   O6    A    
O9    H13   S    
Cu1   O3    S    
C11   H3    S    
O10   H18   S    
C23   H17   S    
Cu2   O8    S    
N3    C23   S    
C9    N1    A    
C2    C3    A    
N4    H19   S    
C19   H7    S    
C7    C8    S    
C13   C14   S    
C20   C21   D    
C15   N3    S    
C16   O5    A    
C13   N2    A    
C12   O3    A    
C12   O4    A    
C10   N1    A    
Cu1   O1    S    
C19   C21   S    
C17   O7    A    
C18   C19   D    
C20   O10   S    
C9    C15   S    
C5    C6    A    
Cu2   O6    S    
C7    H10   S    
N4    C24   S    
C18   H8    S    
C10   C11   A    
C1    O1    A    
C14   H5    S    
C9    C13   A    
C3    C4    A    
C6    C22   A    
C24   H20   S    
C17   C20   S    
C8    H2    S    
C17   O8    A    
C15   H6    S    
Cu2   N1    S    
C1    C2    S    
C8    H12   S    
C24   H21   S    
C12   C18   S    
C10   O9    S    
N3    H14   S    
C3    H9    S    
C14   C15   S    
Cu2   O2    S    
C5    C16   S    
C21   H1    S    
C1    O2    A    
C14   H4    S    
Cu1   O5    S    
C7    H11   S    
C23   H16   S    
C4    C5    A    
C24   H22   S    
