data_mof_unit_35510.cif
_audit_creation_date              2012-12-11T14:54:35-0500
_audit_creation_method            fapswitch 2.2
_symmetry_space_group_name_H-M    P1
_symmetry_Int_Tables_number       1
_space_group_crystal_system       triclinic
_cell_length_a                    18.962394
_cell_length_b                    10.924331
_cell_length_c                    18.787845
_cell_angle_alpha                 90.218029
_cell_angle_beta                  90.240257
_cell_angle_gamma                 89.819964
_cell_volume                      3891.84826932

loop_
_atom_site_label
_atom_site_type_symbol
_atom_type_description
_atom_site_fract_x
_atom_site_fract_y
_atom_site_fract_z
_atom_type_partial_charge
C1    C     C_R   0.730761 0.378746 0.646701 0.538883
C2    C     C_R   0.301570 0.866710 0.463178 -0.148953
C3    C     C_R   0.943199 0.551497 0.478815 -0.151877
C4    C     C_3   0.527876 0.386402 0.080452 -0.273770
C5    C     C_3   0.588340 0.354036 0.131240 -0.414431
C6    C     C_3   0.490762 0.405388 0.923721 -0.275636
C7    C     C_3   0.429961 0.405671 0.869892 -0.409808
C8    C     C_3   0.027876 0.886401 0.080452 -0.273770
C9    C     C_3   0.088341 0.854035 0.131240 -0.414430
C10   C     C_3   0.990762 0.905388 0.923721 -0.275636
C11   C     C_3   0.929961 0.905672 0.869892 -0.409809
C12   C     C_R   0.180166 0.419504 0.529626 -0.135022
C13   C     C_R   0.801570 0.366710 0.463178 -0.148953
C14   C     C_R   0.689114 0.888056 0.458214 -0.137273
C15   C     C_R   0.301369 0.857848 0.537008 -0.140799
C16   C     C_R   0.189114 0.388056 0.458214 -0.137273
C17   C     C_R   0.801369 0.357848 0.537008 -0.140799
C18   C     C_R   0.747499 0.932891 0.420993 0.032647
C19   C     C_R   0.250520 0.921552 0.576595 0.032861
C20   C     C_R   0.247499 0.432891 0.420993 0.032647
C21   C     C_R   0.269453 0.379128 0.353483 0.541473
C22   C     C_R   0.750520 0.421552 0.576595 0.032861
C23   C     C_R   0.793401 0.016104 0.454124 -0.130665
C24   C     C_R   0.206078 0.005881 0.543087 -0.140464
C25   C     C_R   0.293401 0.516104 0.454124 -0.130665
C26   C     C_R   0.706078 0.505881 0.543087 -0.140464
C27   C     C_R   0.786189 0.042724 0.525286 -0.133427
C28   C     C_R   0.206442 0.015438 0.470230 -0.134587
C29   C     C_R   0.286189 0.542724 0.525286 -0.133427
C30   C     C_R   0.706442 0.515438 0.470230 -0.134587
C31   C     C_R   0.730830 0.992698 0.564161 0.028614
C32   C     C_R   0.230761 0.878746 0.646701 0.538883
C33   C     C_R   0.253271 0.944410 0.429396 0.032334
C34   C     C_R   0.230830 0.492698 0.564161 0.028614
C35   C     C_R   0.753271 0.444410 0.429396 0.032334
C36   C     C_R   0.481276 0.061235 0.956759 -0.155154
C37   C     C_R   0.474469 0.058552 0.029091 -0.149977
C38   C     C_R   0.981276 0.561235 0.956759 -0.155154
C39   C     C_R   0.974468 0.558552 0.029091 -0.149977
C40   C     C_R   0.485976 0.164030 0.070157 0.032251
C41   C     C_R   0.497891 0.170249 0.922493 0.028670
C42   C     C_R   0.985976 0.664030 0.070157 0.032251
C43   C     C_R   0.769453 0.879127 0.353483 0.541473
C44   C     C_R   0.997890 0.670249 0.922493 0.028670
C45   C     C_R   0.502827 0.276500 0.036770 0.022110
C46   C     C_R   0.499098 0.282273 0.961359 0.026665
C47   C     C_R   0.002827 0.776500 0.036770 0.022110
C48   C     C_R   0.999098 0.782273 0.961359 0.026665
C49   C     C_R   0.530889 0.155007 0.646739 0.535772
C50   C     C_R   0.435002 0.151031 0.360709 0.566851
C51   C     C_R   0.030889 0.655007 0.646739 0.535772
C52   C     C_R   0.935002 0.651031 0.360709 0.566851
C53   C     C_R   0.791512 0.021169 0.973245 -0.136818
C54   C     C_3   0.508683 0.370911 0.453999 -0.265074
C55   C     C_R   0.207053 0.019019 0.027427 -0.135221
C56   C     C_R   0.291512 0.521169 0.973245 -0.136818
C57   C     C_R   0.707053 0.519019 0.027427 -0.135221
C58   C     C_R   0.792674 0.009619 0.045954 -0.134203
C59   C     C_R   0.205949 0.008561 0.954690 -0.136421
C60   C     C_R   0.292674 0.509619 0.045954 -0.134202
C61   C     C_R   0.705949 0.508561 0.954690 -0.136421
C62   C     C_R   0.749067 0.923885 0.078647 0.032270
C63   C     C_R   0.250935 0.925117 0.921163 0.034550
C64   C     C_R   0.249067 0.423885 0.078647 0.032270
C65   C     C_3   0.531914 0.372201 0.531409 -0.267465
C66   C     C_R   0.750935 0.425117 0.921163 0.034550
C67   C     C_R   0.698285 0.860303 0.038565 -0.132014
C68   C     C_R   0.303130 0.863486 0.960452 -0.138091
C69   C     C_R   0.198285 0.360303 0.038565 -0.132014
C70   C     C_R   0.803130 0.363486 0.960452 -0.138091
C71   C     C_R   0.696280 0.873547 0.965098 -0.134485
C72   C     C_R   0.305246 0.876105 0.033983 -0.143513
C73   C     C_R   0.196280 0.373547 0.965098 -0.134485
C74   C     C_R   0.805246 0.376105 0.033983 -0.143513
C75   C     C_R   0.744839 0.950833 0.931998 0.026342
C76   C     C_3   0.008683 0.870912 0.453999 -0.265075
C77   C     C_R   0.255427 0.950848 0.067854 0.029273
C78   C     C_R   0.244839 0.450833 0.931998 0.026342
C79   C     C_R   0.755427 0.450848 0.067854 0.029273
C80   C     C_R   0.727291 0.019507 0.640124 0.567666
C81   C     C_R   0.259584 0.973503 0.354403 0.541529
C82   C     C_R   0.227291 0.519507 0.640124 0.567666
C83   C     C_R   0.759584 0.473503 0.354403 0.541529
C84   C     C_R   0.730701 0.380735 0.851420 0.551549
C85   C     C_R   0.269363 0.380166 0.148447 0.549522
C86   C     C_R   0.230701 0.880735 0.851420 0.551549
C87   C     C_3   0.031914 0.872201 0.531409 -0.267465
C88   C     C_R   0.769363 0.880166 0.148447 0.549522
C89   C     C_R   0.530557 0.158230 0.852500 0.547201
C90   C     C_R   0.464969 0.156505 0.144705 0.552164
C91   C     C_R   0.030557 0.658230 0.852500 0.547201
C92   C     C_R   0.964969 0.656505 0.144705 0.552163
C93   C     C_R   0.739720 0.977567 0.856723 0.553544
C94   C     C_R   0.260379 0.977357 0.143202 0.545360
C95   C     C_R   0.239720 0.477567 0.856723 0.553544
C96   C     C_R   0.760379 0.477357 0.143202 0.545360
C97   C     C_R   0.446921 0.158159 0.437616 0.015267
C98   C     C_R   0.680166 0.919504 0.529626 -0.135022
C99   C     C_R   0.487829 0.162410 0.582011 0.017967
C100  C     C_R   0.946921 0.658159 0.437616 0.015267
C101  C     C_R   0.987829 0.662410 0.582011 0.017967
C102  C     C_R   0.459525 0.269438 0.472763 0.028900
C103  C     C_R   0.480523 0.271291 0.543591 0.020203
C104  C     C_R   0.959526 0.769438 0.472763 0.028900
C105  C     C_R   0.980523 0.771291 0.543591 0.020203
C106  C     C_R   0.462176 0.053806 0.550689 -0.150268
C107  C     C_R   0.443199 0.051497 0.478815 -0.151877
C108  C     C_R   0.962176 0.553806 0.550689 -0.150268
Cr1   Cr    Cr6+3 0.771950 0.169480 0.750100 0.994325
Cr2   Cr    Cr6+3 0.383410 0.010620 0.249390 1.004100
Cr3   Cr    Cr6+3 0.116590 0.510620 0.750610 1.008185
Cr4   Cr    Cr6+3 0.883410 0.510620 0.249390 1.004100
Cr5   Cr    Cr6+3 0.228050 0.169480 0.249900 0.996845
Cr6   Cr    Cr6+3 0.271950 0.669480 0.750100 0.994325
Cr7   Cr    Cr6+3 0.728050 0.669480 0.249900 0.996845
Cr8   Cr    Cr6+3 0.614930 0.323340 0.749170 0.994543
Cr9   Cr    Cr6+3 0.385070 0.323340 0.250830 0.998334
Cr10  Cr    Cr6+3 0.114930 0.823340 0.749170 0.994543
Cr11  Cr    Cr6+3 0.885070 0.823340 0.250830 0.998334
Cr12  Cr    Cr6+3 0.616590 0.010620 0.750610 1.008185
H1    H     H_    0.463852 0.967787 0.579139 0.133857
H2    H     H_    0.166076 0.059039 0.925401 0.117828
H3    H     H_    0.331391 0.561614 0.075895 0.122287
H4    H     H_    0.666076 0.559039 0.925401 0.117828
H5    H     H_    0.663038 0.795678 0.063361 0.118565
H6    H     H_    0.339412 0.800634 0.934986 0.113960
H7    H     H_    0.163038 0.295678 0.063361 0.118565
H8    H     H_    0.839412 0.300634 0.934986 0.113960
H9    H     H_    0.657738 0.822704 0.934324 0.117602
H10   H     H_    0.344857 0.826740 0.064191 0.111741
H11   H     H_    0.157738 0.322704 0.934324 0.117602
H12   H     H_    0.431250 0.964425 0.454246 0.132842
H13   H     H_    0.844857 0.326740 0.064191 0.111741
H14   H     H_    0.979898 0.955341 0.438057 0.135493
H15   H     H_    0.087485 0.842130 0.538996 0.160985
H16   H     H_    0.479898 0.455341 0.438057 0.135493
H17   H     H_    0.587485 0.342130 0.538996 0.160985
H18   H     H_    0.551127 0.341449 0.416942 0.152595
H19   H     H_    0.516974 0.457650 0.559969 0.135729
H20   H     H_    0.051127 0.841449 0.416942 0.152595
H21   H     H_    0.016974 0.957650 0.559969 0.135729
H22   H     H_    0.635807 0.882154 0.558346 0.131695
H23   H     H_    0.963852 0.467787 0.579139 0.133857
H24   H     H_    0.339798 0.814699 0.432769 0.110310
H25   H     H_    0.135807 0.382154 0.558346 0.131695
H26   H     H_    0.839798 0.314699 0.432769 0.110310
H27   H     H_    0.652776 0.824400 0.433445 0.120970
H28   H     H_    0.338746 0.797807 0.562909 0.112357
H29   H     H_    0.152776 0.324400 0.433445 0.120971
H30   H     H_    0.838746 0.297807 0.562909 0.112357
H31   H     H_    0.838559 0.053715 0.426760 0.127415
H32   H     H_    0.167435 0.058596 0.572623 0.131017
H33   H     H_    0.338559 0.553715 0.426760 0.127415
H34   H     H_    0.931250 0.464425 0.454246 0.132842
H35   H     H_    0.667435 0.558596 0.572623 0.131017
H36   H     H_    0.826168 0.098038 0.550598 0.123077
H37   H     H_    0.170266 0.080369 0.446255 0.134820
H38   H     H_    0.326168 0.598039 0.550598 0.123077
H39   H     H_    0.670266 0.580369 0.446255 0.134820
H40   H     H_    0.476264 0.975596 0.927871 0.134293
H41   H     H_    0.460133 0.971853 0.052702 0.139420
H42   H     H_    0.976264 0.475596 0.927871 0.134293
H43   H     H_    0.960132 0.471853 0.052702 0.139420
H44   H     H_    0.574712 0.283154 0.170556 0.160527
H45   H     H_    0.827677 0.085394 0.949485 0.126088
H46   H     H_    0.634598 0.321169 0.100616 0.155078
H47   H     H_    0.602129 0.436926 0.162123 0.167572
H48   H     H_    0.549677 0.459294 0.046270 0.120409
H49   H     H_    0.483237 0.427992 0.109999 0.171010
H50   H     H_    0.441714 0.350988 0.821692 0.167428
H51   H     H_    0.381737 0.368181 0.894728 0.160894
H52   H     H_    0.419812 0.501084 0.852459 0.150309
H53   H     H_    0.476643 0.478898 0.961922 0.115698
H54   H     H_    0.540757 0.433087 0.898059 0.179949
H55   H     H_    0.074712 0.783153 0.170556 0.160526
H56   H     H_    0.169476 0.080713 0.051846 0.124913
H57   H     H_    0.134599 0.821168 0.100616 0.155078
H58   H     H_    0.102129 0.936924 0.162124 0.167572
H59   H     H_    0.049678 0.959293 0.046270 0.120409
H60   H     H_    0.983238 0.927991 0.109999 0.171010
H61   H     H_    0.941714 0.850989 0.821692 0.167428
H62   H     H_    0.881737 0.868182 0.894728 0.160894
H63   H     H_    0.919813 0.001084 0.852459 0.150309
H64   H     H_    0.976643 0.978898 0.961922 0.115698
H65   H     H_    0.040757 0.933087 0.898059 0.179949
H66   H     H_    0.327677 0.585394 0.949485 0.126088
H67   H     H_    0.669476 0.580712 0.051846 0.124913
H68   H     H_    0.831391 0.061614 0.075895 0.122287
O1    O     O_R   0.787510 0.042610 0.670410 -0.519611
O2    O     O_R   0.454250 0.051070 0.169440 -0.525072
O3    O     O_R   0.045750 0.551070 0.830560 -0.523843
O4    O     O_R   0.954250 0.551070 0.169440 -0.525072
O5    O     O_R   0.681210 0.959150 0.825320 -0.494210
O6    O     O_R   0.318790 0.959150 0.174680 -0.502270
O7    O     O_R   0.181210 0.459150 0.825320 -0.494210
O8    O     O_R   0.818790 0.459150 0.174680 -0.502270
O9    O     O_3   0.667820 0.167810 0.749960 -0.258503
O10   O     O_3   0.332180 0.167810 0.250040 -0.261365
O11   O     O_3   0.167820 0.667810 0.749960 -0.258503
O12   O     O_R   0.212490 0.042610 0.329590 -0.527910
O13   O     O_3   0.832180 0.667810 0.250040 -0.261365
O14   O     O_R   0.765670 0.292090 0.675090 -0.523426
O15   O     O_R   0.234330 0.292090 0.324910 -0.506912
O16   O     O_R   0.265670 0.792090 0.675090 -0.523426
O17   O     O_R   0.734330 0.792090 0.324910 -0.506912
O18   O     O_R   0.670220 0.409020 0.668560 -0.527713
O19   O     O_R   0.329780 0.409020 0.331440 -0.533619
O20   O     O_R   0.170220 0.909020 0.668560 -0.527713
O21   O     O_R   0.829780 0.909020 0.331440 -0.533619
O22   O     O_R   0.556580 0.251590 0.674980 -0.502323
O23   O     O_R   0.287510 0.542610 0.670410 -0.519611
O24   O     O_R   0.443420 0.251590 0.325020 -0.501188
O25   O     O_R   0.056580 0.751590 0.674980 -0.502323
O26   O     O_R   0.943420 0.751590 0.325020 -0.501188
O27   O     O_R   0.545890 0.049670 0.670030 -0.535853
O28   O     O_R   0.454110 0.049670 0.329970 -0.519556
O29   O     O_R   0.045890 0.549670 0.670030 -0.535853
O30   O     O_R   0.954110 0.549670 0.329970 -0.519556
O31   O     O_R   0.681340 0.957860 0.676500 -0.502893
O32   O     O_R   0.318660 0.957860 0.323500 -0.520366
O33   O     O_R   0.181340 0.457860 0.676500 -0.502893
O34   O     O_R   0.712490 0.542610 0.329590 -0.527909
O35   O     O_R   0.818660 0.457860 0.323500 -0.520366
O36   O     O_R   0.787380 0.044010 0.830940 -0.536680
O37   O     O_R   0.212620 0.044010 0.169060 -0.540799
O38   O     O_R   0.287380 0.544010 0.830940 -0.536680
O39   O     O_R   0.712620 0.544010 0.169060 -0.540798
O40   O     O_R   0.765540 0.293390 0.823910 -0.506608
O41   O     O_R   0.234460 0.293390 0.176090 -0.504332
O42   O     O_R   0.265540 0.793390 0.823910 -0.506608
O43   O     O_R   0.734460 0.793390 0.176090 -0.504332
O44   O     O_R   0.670090 0.410410 0.829090 -0.530743
O45   O     O_R   0.556450 0.252890 0.823790 -0.506297
O46   O     O_R   0.329910 0.410410 0.170910 -0.528997
O47   O     O_R   0.170090 0.910410 0.829090 -0.530743
O48   O     O_R   0.829910 0.910410 0.170910 -0.528997
O49   O     O_R   0.443550 0.252890 0.176210 -0.501001
O50   O     O_R   0.056450 0.752890 0.823790 -0.506297
O51   O     O_R   0.943550 0.752890 0.176210 -0.501000
O52   O     O_R   0.545750 0.051070 0.830560 -0.523843

loop_
_geom_bond_atom_site_label_1
_geom_bond_atom_site_label_2
_ccdc_geom_bond_type
C58   C62   A    
C41   C89   S    
C73   H11   S    
C92   O51   A    
Cr3   O3    S    
C74   C79   A    
C55   C59   A    
C43   O17   A    
C10   H64   S    
C80   O1    A    
C21   O15   A    
Cr7   O34   S    
C99   C103  A    
C17   H30   S    
C11   H61   S    
C1    O14   A    
C80   O31   A    
C36   C41   A    
C56   C78   A    
C31   C80   S    
C82   O33   A    
C54   H18   S    
C45   C46   A    
C51   O29   A    
Cr12  O27   S    
C15   C19   A    
C62   C67   A    
C61   H4    S    
C13   H26   S    
Cr1   O14   S    
C13   C35   A    
C37   C40   A    
C7    H51   S    
C67   H5    S    
C38   C39   A    
C55   C77   A    
C67   C71   A    
Cr2   O10   S    
C106  C107  A    
Cr10  O11   S    
C74   H13   S    
C77   C94   S    
C100  C104  A    
C10   H65   S    
C2    H24   S    
C91   O50   A    
Cr3   O33   S    
C31   C98   A    
C89   O45   A    
C57   C79   A    
Cr4   O8    S    
Cr8   O22   S    
C24   H32   S    
C94   O37   A    
Cr3   O11   S    
C33   C81   S    
C83   O34   A    
Cr1   O9    S    
C3    C100  A    
C12   C16   A    
Cr1   O1    S    
C8    C9    S    
C20   C25   A    
Cr11  O13   S    
Cr8   O45   S    
C70   C74   A    
C95   O7    A    
C41   C46   A    
C9    H58   S    
C69   C73   A    
C16   H29   S    
C23   C27   A    
C32   O20   A    
Cr2   O32   S    
Cr10  O25   S    
Cr7   O43   S    
C97   C102  A    
C68   C72   A    
Cr10  O20   S    
C65   H17   S    
C92   O4    A    
Cr10  O50   S    
C101  C108  A    
Cr5   O15   S    
Cr9   O49   S    
C1    C22   S    
C7    H52   S    
Cr8   O44   S    
C25   C29   A    
C89   O52   A    
C26   H35   S    
C53   C75   A    
C11   H62   S    
Cr4   O13   S    
C81   O12   A    
Cr5   O41   S    
C19   C32   S    
C61   C66   A    
C104  C105  A    
Cr1   O40   S    
C38   C44   A    
C14   C98   A    
C39   C42   A    
C4    C45   S    
C76   H20   S    
C101  C105  A    
C30   H39   S    
C88   O48   A    
Cr11  O21   S    
C4    H49   S    
C58   H68   S    
C18   C23   A    
C86   O42   A    
C96   O39   A    
C87   H15   S    
Cr2   O6    S    
C11   H63   S    
C54   C65   S    
C76   H14   S    
C107  H12   S    
C6    H54   S    
C5    H46   S    
C73   C78   A    
C91   O3    A    
C29   C34   A    
Cr2   O2    S    
C3    H34   S    
C85   O46   A    
C65   H19   S    
C71   H9    S    
C49   O22   A    
C60   H3    S    
Cr2   O28   S    
C76   C104  S    
C5    H44   S    
Cr7   O39   S    
C72   C77   A    
C2    C15   A    
Cr6   O38   S    
C32   O16   A    
C49   C99   S    
C14   H27   S    
C8    H60   S    
Cr5   O37   S    
C47   C48   A    
C87   C105  S    
C50   O28   A    
C78   C95   S    
C16   C20   A    
C86   O47   A    
C54   H16   S    
C20   C21   S    
C12   H25   S    
C52   O26   A    
Cr12  O9    S    
C84   O44   A    
C85   O41   A    
C64   C69   A    
C87   H21   S    
C57   C61   A    
C1    O18   A    
C44   C91   S    
C76   C87   S    
C6    C7    S    
Cr1   O36   S    
Cr4   O4    S    
C50   O24   A    
C30   C35   A    
C2    C33   A    
C53   H45   S    
Cr12  O52   S    
C28   C33   A    
C15   H28   S    
Cr6   O11   S    
Cr7   O17   S    
C27   C31   A    
C10   C48   S    
Cr4   O35   S    
Cr6   O16   S    
C7    H50   S    
C65   C103  S    
C12   C34   A    
C84   O40   A    
C68   H6    S    
C64   C85   S    
C9    H57   S    
C75   C93   S    
C37   H41   S    
C82   O23   A    
C90   O2    A    
Cr5   O10   S    
C70   H8    S    
C27   H36   S    
C99   C106  A    
C23   H31   S    
C63   C68   A    
C36   C37   A    
C50   C97   S    
C35   C83   S    
C6    C46   S    
C90   O49   A    
C94   O6    A    
C4    H48   S    
C52   O30   A    
C14   C18   A    
C54   C102  S    
Cr9   O24   S    
C93   O5    A    
C24   C28   A    
Cr12  O5    S    
C56   H66   S    
C4    C5    S    
Cr9   O19   S    
Cr6   O42   S    
C53   C58   A    
C72   H10   S    
C29   H38   S    
C6    H53   S    
C3    C108  A    
C51   C101  S    
Cr3   O29   S    
C49   O27   A    
C59   C63   A    
C17   C22   A    
C13   C17   A    
C60   C64   A    
C21   O19   A    
Cr6   O23   S    
C19   C24   A    
C8    C47   S    
C83   O35   A    
C79   C96   S    
C63   C86   S    
C25   H33   S    
C18   C43   S    
C71   C75   A    
Cr8   O9    S    
C81   O32   A    
C8    H59   S    
Cr11  O51   S    
C66   C70   A    
C62   C88   S    
Cr9   O46   S    
C59   H2    S    
Cr12  O31   S    
Cr7   O13   S    
C106  H1    S    
C28   H37   S    
Cr5   O12   S    
C52   C100  S    
C9    H55   S    
C93   O36   A    
C42   C92   S    
C42   C47   A    
C5    H47   S    
C102  C103  A    
C43   O21   A    
Cr8   O18   S    
C55   H56   S    
C57   H67   S    
C10   C11   S    
C36   H40   S    
C66   C84   S    
C97   C107  A    
C56   C60   A    
Cr11  O48   S    
C38   H42   S    
C88   O43   A    
C96   O8    A    
C40   C45   A    
C69   H7    S    
Cr11  O26   S    
C22   C26   A    
C95   O38   A    
Cr4   O30   S    
C51   O25   A    
C34   C82   S    
C40   C90   S    
Cr10  O47   S    
C39   H43   S    
C108  H23   S    
C98   H22   S    
Cr9   O10   S    
C44   C48   A    
Cr3   O7    S    
C26   C30   A    
