data_mof_unit_5714.cif
_audit_creation_date              2012-12-10T17:27:49-0500
_audit_creation_method            fapswitch 2.2
_symmetry_space_group_name_H-M    P1
_symmetry_Int_Tables_number       1
_space_group_crystal_system       triclinic
_cell_length_a                    10.648765
_cell_length_b                    12.024752
_cell_length_c                    12.900791
_cell_angle_alpha                 93.061009
_cell_angle_beta                  91.306746
_cell_angle_gamma                 87.700279
_cell_volume                      1647.89132317

loop_
_atom_site_label
_atom_site_type_symbol
_atom_type_description
_atom_site_fract_x
_atom_site_fract_y
_atom_site_fract_z
_atom_type_partial_charge
C1    C     C_R   0.494988 0.521522 0.700143 0.940524
C2    C     C_R   0.476280 0.640475 0.860665 -0.128735
C3    C     C_R   0.499469 0.439040 0.867932 -0.299816
C4    C     C_R   0.739517 0.503001 0.507397 1.023580
C5    C     C_R   0.497574 0.448399 0.974422 0.159012
C6    C     C_R   0.485300 0.555283 0.025536 0.129975
C7    C     C_R   0.485878 0.562479 0.132613 -0.251296
C8    C     C_R   0.509857 0.360675 0.137444 -0.165082
C9    C     C_R   0.509017 0.351855 0.030233 -0.190096
C10   C     C_R   0.376905 0.955831 0.408643 -0.289143
C11   C     C_R   0.385506 0.840583 0.417804 0.251038
C12   C     C_R   0.941879 0.519833 0.604822 -0.048631
C13   C     C_R   0.557647 0.858596 0.537375 -0.060333
C14   C     C_R   0.548511 0.976189 0.532332 0.079618
C15   C     C_R   0.457061 0.024459 0.466349 0.048053
C16   C     C_R   0.500759 0.478351 0.299675 0.923451
C17   C     C_R   0.446183 0.141055 0.460682 -0.031963
C18   C     C_R   0.612459 0.163008 0.584103 0.031619
C19   C     C_R   0.627078 0.046936 0.591673 -0.296805
C20   C     C_R   0.260733 0.497907 0.497526 0.866393
C21   C     C_R   0.889085 0.551581 0.702801 0.305101
C22   C     C_R   0.959660 0.539028 0.794379 -0.111475
C23   C     C_R   0.872460 0.509893 0.509533 -0.180758
C24   C     C_R   0.085724 0.504894 0.790710 0.086124
C25   C     C_R   0.143229 0.489279 0.694576 -0.224075
C26   C     C_R   0.072344 0.499528 0.601289 0.049795
C27   C     C_R   0.931774 0.497975 0.413483 0.374686
C28   C     C_R   0.060611 0.494251 0.411312 -0.263315
C29   C     C_R   0.129189 0.494057 0.503974 -0.114013
C30   C     C_R   0.498933 0.466087 0.188307 -0.025500
C31   C     C_R   0.489994 0.534481 0.811230 -0.089198
C32   C     C_R   0.473759 0.651972 0.967911 0.072431
Cl1   Cl    Cl    0.847191 0.489579 0.294121 -0.618837
Cl2   Cl    Cl    0.753510 0.637484 0.715880 -0.680274
H1    H     H_    0.518150 0.269999 0.991040 0.143376
H2    H     H_    0.242824 0.468463 0.693732 0.141709
H3    H     H_    0.107658 0.489782 0.337399 0.168075
H4    H     H_    0.477010 0.643355 0.173147 0.157258
H5    H     H_    0.519570 0.285601 0.180226 0.165233
H6    H     H_    0.226473 0.753250 0.416447 0.221159
H7    H     H_    0.331120 0.709795 0.321440 0.215476
H8    H     H_    0.227830 0.551073 0.887228 0.196389
H9    H     H_    0.199270 0.413728 0.883614 0.196724
H10   H     H_    0.538373 0.777108 0.063792 0.205262
H11   H     H_    0.379166 0.766697 0.060498 0.185525
H12   H     H_    0.468014 0.714507 0.816239 0.190052
H13   H     H_    0.509411 0.356785 0.829481 0.172932
H14   H     H_    0.376444 0.178924 0.409755 0.125111
H15   H     H_    0.673130 0.217535 0.629813 0.136513
H16   H     H_    0.304478 0.991670 0.358678 0.161140
H17   H     H_    0.698599 0.013121 0.643495 0.162091
H18   H     H_    0.627927 0.820255 0.587374 0.184530
H19   H     H_    0.918183 0.561979 0.868804 0.191323
N1    N     N_R   0.523130 0.207800 0.519340 -0.104784
N2    N     N_R   0.476870 0.792180 0.480660 -0.117116
N3    N     N_3   0.291259 0.777677 0.363559 -0.465474
N4    N     N_3   0.156661 0.493657 0.885289 -0.442132
N5    N     N_3   0.459923 0.762113 0.015630 -0.457738
O1    O     O_R   0.506170 0.421690 0.658830 -0.643970
O2    O     O_R   0.491330 0.609320 0.646410 -0.592542
O3    O     O_R   0.690660 0.406170 0.506210 -0.616725
O4    O     O_R   0.675810 0.593790 0.493790 -0.564383
O5    O     O_R   0.508670 0.390680 0.353590 -0.620379
O6    O     O_R   0.493830 0.578310 0.341170 -0.640066
O7    O     O_R   0.324190 0.406210 0.506210 -0.626298
O8    O     O_R   0.309340 0.593830 0.493790 -0.641279
Zn1   Zn    Zn3+2 0.509910 0.374720 0.508290 0.961802
Zn2   Zn    Zn3+2 0.490090 0.625280 0.491710 0.979154

loop_
_geom_bond_atom_site_label_1
_geom_bond_atom_site_label_2
_ccdc_geom_bond_type
C6    C32   A    
H7    N3    S    
C5    C9    A    
C6    C7    A    
C21   Cl2   S    
C16   O5    A    
C23   C27   A    
C13   H18   S    
O3    Zn1   S    
O1    Zn1   S    
O8    Zn2   S    
C17   H14   S    
C32   N5    S    
C10   C15   A    
C4    O4    A    
C8    C30   A    
C3    C5    A    
N2    Zn2   S    
C7    C30   A    
C21   C22   A    
C2    H12   S    
C3    C31   A    
C17   N1    A    
C12   C23   A    
C28   H3    S    
O4    Zn2   S    
C15   C17   A    
C4    O3    A    
H8    N4    S    
C3    H13   S    
C28   C29   A    
C8    H5    S    
C7    H4    S    
C22   H19   S    
C22   C24   A    
C20   C29   S    
C1    O1    A    
C12   C26   A    
C5    C6    A    
O5    Zn1   S    
H11   N5    S    
O7    Zn1   S    
C10   C11   A    
C18   N1    A    
C25   H2    S    
C16   C30   S    
C12   C21   A    
O6    Zn2   S    
C19   H17   S    
C20   O7    A    
C1    C31   S    
C11   N2    A    
C24   C25   A    
O2    Zn2   S    
C26   C29   A    
C2    C32   A    
C18   C19   A    
C24   N4    S    
C1    O2    A    
C20   O8    A    
C27   C28   A    
C9    H1    S    
C4    C23   S    
H9    N4    S    
C14   C15   A    
C2    C31   A    
N1    Zn1   S    
C16   O6    A    
H6    N3    S    
C25   C26   A    
C13   C14   A    
C14   C19   A    
C27   Cl1   S    
C11   N3    S    
C18   H15   S    
H10   N5    S    
C8    C9    A    
C13   N2    A    
C10   H16   S    
