data_mof_unit_63561.cif
_audit_creation_date              2012-12-10T21:01:44-0500
_audit_creation_method            fapswitch 2.2
_symmetry_space_group_name_H-M    P1
_symmetry_Int_Tables_number       1
_space_group_crystal_system       triclinic
_cell_length_a                    15.779277
_cell_length_b                    15.8502
_cell_length_c                    15.080268
_cell_angle_alpha                 90.001668
_cell_angle_beta                  90.024967
_cell_angle_gamma                 89.992858
_cell_volume                      3771.64545936

loop_
_atom_site_label
_atom_site_type_symbol
_atom_type_description
_atom_site_fract_x
_atom_site_fract_y
_atom_site_fract_z
_atom_type_partial_charge
C1    C     C_R   0.500027 0.338873 0.499984 0.912479
C2    C     C_R   0.499972 0.661127 0.500016 0.912478
C3    C     C_R   0.499984 0.913148 0.500008 0.156393
C4    C     C_R   0.500016 0.086852 0.499992 0.156393
C5    C     C_R   0.498248 0.956248 0.419302 -0.150237
C6    C     C_R   0.501752 0.043752 0.580698 -0.150237
C7    C     C_1   0.499974 0.824364 0.500015 -0.037736
C8    C     C_1   0.500026 0.175635 0.499985 -0.037736
C9    C     C_1   0.500030 0.250473 0.499982 -0.139623
C10   C     C_1   0.499970 0.749527 0.500018 -0.139623
C11   C     C_R   0.447884 0.444283 0.953112 -0.130359
C12   C     C_R   0.552116 0.555717 0.046888 -0.130359
C13   C     C_R   0.500013 0.499989 0.905038 0.060011
C14   C     C_R   0.499987 0.500011 0.094962 0.060011
C15   C     C_R   0.552128 0.555706 0.953164 -0.131860
C16   C     C_R   0.447872 0.444294 0.046836 -0.131860
C17   C     C_1   0.500020 0.499982 0.807156 0.093614
C18   C     C_1   0.499980 0.500018 0.192844 0.093615
C19   C     C_R   0.337561 0.499985 0.499956 0.887943
C20   C     C_R   0.662439 0.500015 0.500044 0.887942
C21   C     C_3   0.972104 0.431113 0.542044 0.474872
C22   C     C_3   0.027896 0.568887 0.457956 0.474872
C23   C     C_3   0.027901 0.430925 0.458284 0.474273
C24   C     C_3   0.972099 0.569075 0.541716 0.474273
C25   C     C_1   0.248972 0.499982 0.499899 -0.118765
C26   C     C_1   0.751028 0.500018 0.500101 -0.118765
C27   C     C_3   0.028036 0.500180 0.583696 0.476406
C28   C     C_3   0.971964 0.499820 0.416304 0.476406
C29   C     C_3   0.083470 0.499992 0.499935 -0.468727
C30   C     C_3   0.916530 0.500008 0.500064 -0.468727
C31   C     C_1   0.173958 0.499984 0.499893 0.280781
C32   C     C_1   0.826041 0.500016 0.500107 0.280781
C33   C     C_R   0.501737 0.956264 0.580706 -0.150225
C34   C     C_R   0.498263 0.043735 0.419294 -0.150225
N1    N     N_1   0.499980 0.500020 0.270550 -0.077396
N2    N     N_1   0.500020 0.499980 0.729450 -0.077396
O1    O     O_R   0.500000 0.378020 0.573650 -0.607499
O2    O     O_R   0.500000 0.621980 0.426350 -0.607499
O3    O     O_R   0.500040 0.378020 0.426320 -0.607465
O4    O     O_R   0.499960 0.621980 0.573680 -0.607465
O5    O     O_R   0.376760 0.499990 0.573650 -0.600407
O6    O     O_R   0.623240 0.500010 0.426350 -0.600407
O7    O     O_R   0.376800 0.499990 0.426320 -0.600746
O8    O     O_R   0.623200 0.500010 0.573680 -0.600746
Zn1   Zn    Zn3+2 0.499970 0.500000 0.598370 1.025806
Zn2   Zn    Zn3+2 0.500030 0.500000 0.401630 1.025806
F1    F     F_    0.057806 0.359841 0.415352 -0.548899
F2    F     F_    0.942194 0.640159 0.584648 -0.548899
F3    F     F_    0.942205 0.360224 0.585314 -0.548176
F4    F     F_    0.057794 0.639776 0.414685 -0.548176
F5    F     F_    0.941918 0.499636 0.330172 -0.547273
F6    F     F_    0.058082 0.500364 0.669828 -0.547273
H1    H     H_    0.503106 0.077668 0.643091 0.157022
H2    H     H_    0.496894 0.922332 0.356909 0.157022
H3    H     H_    0.503080 0.922361 0.643105 0.156995
H4    H     H_    0.496920 0.077639 0.356895 0.156996
H5    H     H_    0.407006 0.400620 0.081779 0.154267
H6    H     H_    0.592994 0.599380 0.918221 0.154267
H7    H     H_    0.407026 0.400603 0.918128 0.154531
H8    H     H_    0.592974 0.599397 0.081872 0.154531

loop_
_geom_bond_atom_site_label_1
_geom_bond_atom_site_label_2
_ccdc_geom_bond_type
C33   H3    S    
C7    C10   T    
C20   O6    A    
C6    C33   A    
C26   C32   T    
C22   C29   S    
C1    O1    A    
C27   C29   S    
C18   N1    T    
C14   C18   S    
C3    C7    S    
C28   F5    S    
C12   C15   A    
C13   C17   S    
C22   F4    S    
C24   C27   S    
C5    C34   A    
C21   F3    S    
C21   C27   S    
N2    Zn1   S    
C29   C31   S    
C3    C33   A    
C22   C28   S    
C23   C28   S    
O8    Zn1   S    
C34   H4    S    
C11   C13   A    
C20   C26   S    
O3    Zn2   S    
C11   H7    S    
C23   C29   S    
C12   H8    S    
C28   C30   S    
C15   H6    S    
C12   C14   A    
C22   C24   S    
C16   H5    S    
C13   C15   A    
C17   N2    T    
O6    Zn2   S    
O4    Zn1   S    
C19   C25   S    
O7    Zn2   S    
C4    C34   A    
O2    Zn2   S    
C24   C30   S    
C23   F1    S    
C1    O3    A    
C6    H1    S    
O1    Zn1   S    
C24   F2    S    
C2    O4    A    
C5    H2    S    
C1    C9    S    
C27   F6    S    
C4    C6    A    
C21   C30   S    
C4    C8    S    
C21   C23   S    
C2    O2    A    
C30   C32   S    
O5    Zn1   S    
C20   O8    A    
C14   C16   A    
N1    Zn2   S    
C25   C31   T    
C11   C16   A    
C19   O5    A    
C19   O7    A    
C8    C9    T    
C3    C5    A    
C2    C10   S    
