data_mof_unit_17707.cif
_audit_creation_date              2013-03-05T15:43:48-0500
_audit_creation_method            fapswitch 2.2
_symmetry_space_group_name_H-M    P1
_symmetry_Int_Tables_number       1
_space_group_crystal_system       triclinic
_cell_length_a                    21.496592
_cell_length_b                    21.465311
_cell_length_c                    22.427467
_cell_angle_alpha                 90.556179
_cell_angle_beta                  90.741931
_cell_angle_gamma                 89.667499
_cell_volume                      10347.2072887

loop_
_atom_site_label
_atom_site_type_symbol
_atom_site_description
_atom_site_fract_x
_atom_site_fract_y
_atom_site_fract_z
_atom_type_partial_charge
C1    C     C_R   0.914373 0.158478 0.079454 -0.121549
C2    C     C_R   0.060765 0.865125 0.887162 -0.099141
C3    C     C_R   0.135665 0.061907 0.112410 -0.108397
C4    C     C_R   0.841607 0.914547 0.920333 -0.126250
C5    C     C_R   0.085083 0.841745 0.079723 -0.122195
C6    C     C_R   0.938128 0.134236 0.887537 -0.109648
C7    C     C_R   0.863303 0.936974 0.110898 -0.104788
C8    C     C_R   0.157233 0.083851 0.919074 -0.149210
C9    C     C_R   0.914864 0.841487 0.920412 -0.140255
C10   C     C_R   0.061854 0.135635 0.112301 -0.116566
C11   C     C_R   0.134492 0.938204 0.887926 -0.100752
C12   C     C_R   0.841876 0.085210 0.079483 -0.130837
C13   C     C_R   0.083930 0.157608 0.919423 -0.127386
C14   C     C_R   0.937225 0.863122 0.110924 -0.101487
C15   C     C_R   0.864797 0.060783 0.887356 -0.110167
C16   C     C_R   0.158332 0.914232 0.079910 -0.131733
C17   C     C_R   0.414567 0.658475 0.579420 -0.123008
C18   C     C_R   0.560790 0.364922 0.387340 -0.108173
C19   C     C_R   0.635608 0.561838 0.612436 -0.106678
C20   C     C_R   0.341583 0.414556 0.420385 -0.134722
C21   C     C_R   0.585531 0.341604 0.578998 -0.127238
C22   C     C_R   0.437551 0.635102 0.388028 -0.110873
C23   C     C_R   0.366355 0.439747 0.612380 -0.098660
C24   C     C_R   0.657805 0.584812 0.419948 -0.128491
C25   C     C_R   0.414803 0.341459 0.420546 -0.144171
C26   C     C_R   0.561821 0.635588 0.612323 -0.103857
C27   C     C_R   0.634364 0.438219 0.387780 -0.103315
C28   C     C_R   0.341919 0.585327 0.579594 -0.118763
C29   C     C_R   0.584543 0.657997 0.419982 -0.125514
C30   C     C_R   0.441305 0.366998 0.612509 -0.128161
C31   C     C_R   0.364119 0.561624 0.387708 -0.109430
C32   C     C_R   0.658525 0.414314 0.579260 -0.134058
H1    H     H_    0.936391 0.203293 0.075321 0.098946
H2    H     H_    0.029491 0.828253 0.874024 0.105118
H3    H     H_    0.172853 0.030638 0.125013 0.101154
H4    H     H_    0.796880 0.937167 0.924697 0.106330
H5    H     H_    0.062326 0.797250 0.074919 0.114203
H6    H     H_    0.968777 0.171237 0.875089 0.101959
H7    H     H_    0.825641 0.967791 0.122894 0.109745
H8    H     H_    0.202317 0.061215 0.918726 0.125878
H9    H     H_    0.937689 0.796833 0.925124 0.114872
H10   H     H_    0.030453 0.172704 0.124701 0.108789
H11   H     H_    0.171870 0.968601 0.876055 0.113955
H12   H     H_    0.797467 0.062271 0.075290 0.109177
H13   H     H_    0.061246 0.202719 0.919021 0.108420
H14   H     H_    0.968206 0.825519 0.122954 0.111555
H15   H     H_    0.827756 0.029558 0.874656 0.115523
H16   H     H_    0.203135 0.936183 0.075902 0.100257
H17   H     H_    0.436679 0.703208 0.575027 0.103114
H18   H     H_    0.529482 0.328008 0.374439 0.104303
H19   H     H_    0.672760 0.530530 0.625052 0.108979
H20   H     H_    0.296875 0.437219 0.424722 0.100339
H21   H     H_    0.562829 0.297052 0.574441 0.099586
H22   H     H_    0.468455 0.672035 0.375824 0.110734
H23   H     H_    0.325704 0.466923 0.623903 0.130527
H24   H     H_    0.702652 0.562210 0.423895 0.108570
H25   H     H_    0.437601 0.296801 0.425337 0.109742
H26   H     H_    0.530437 0.672666 0.624730 0.109169
H27   H     H_    0.671435 0.468967 0.375643 0.116728
H28   H     H_    0.297438 0.562444 0.575797 0.109365
H29   H     H_    0.561934 0.702842 0.424240 0.111651
H30   H     H_    0.469436 0.326909 0.624057 0.117674
H31   H     H_    0.327079 0.530415 0.374947 0.102047
H32   H     H_    0.703141 0.436615 0.575187 0.111719
N1    N     N_R   0.940200 0.105310 0.059970 -0.044422
N2    N     N_R   0.059800 0.894690 0.940030 -0.045351
N3    N     N_R   0.105310 0.059800 0.059970 -0.043817
N4    N     N_R   0.894690 0.940200 0.940030 -0.045391
N5    N     N_R   0.059800 0.894690 0.059970 -0.045470
N6    N     N_R   0.940200 0.105310 0.940030 -0.045936
N7    N     N_R   0.894690 0.940200 0.059970 -0.045761
N8    N     N_R   0.105310 0.059800 0.940030 -0.043072
N9    N     N_R   0.940200 0.894690 0.940030 -0.044376
N10   N     N_R   0.059800 0.105310 0.059970 -0.044764
N11   N     N_R   0.105310 0.940200 0.940030 -0.046379
N12   N     N_R   0.894690 0.059800 0.059970 -0.044470
N13   N     N_R   0.059800 0.105310 0.940030 -0.043123
N14   N     N_R   0.940200 0.894690 0.059970 -0.044830
N15   N     N_R   0.894690 0.059800 0.940030 -0.045887
N16   N     N_R   0.105310 0.940200 0.059970 -0.043869
N17   N     N_R   0.440200 0.605310 0.559970 -0.045275
N18   N     N_R   0.559800 0.394690 0.440030 -0.044759
N19   N     N_R   0.605310 0.559800 0.559970 -0.045503
N20   N     N_R   0.394690 0.440200 0.440030 -0.042619
N21   N     N_R   0.559800 0.394690 0.559970 -0.041953
N22   N     N_R   0.440200 0.605310 0.440030 -0.045796
N23   N     N_R   0.394690 0.440200 0.559970 -0.048014
N24   N     N_R   0.605310 0.559800 0.440030 -0.045703
N25   N     N_R   0.440200 0.394690 0.440030 -0.042412
N26   N     N_R   0.559800 0.605310 0.559970 -0.045371
N27   N     N_R   0.605310 0.440200 0.440030 -0.045995
N28   N     N_R   0.394690 0.559800 0.559970 -0.045904
N29   N     N_R   0.559800 0.605310 0.440030 -0.045028
N30   N     N_R   0.440200 0.394690 0.559970 -0.045039
N31   N     N_R   0.394690 0.559800 0.440030 -0.045787
N32   N     N_R   0.605310 0.440200 0.559970 -0.044090
C33   C     C_R   0.101426 0.262900 0.310040 0.333210
C34   C     C_R   0.800223 0.637350 0.845783 0.328803
C35   C     C_R   0.197599 0.638204 0.156186 0.341865
C36   C     C_R   0.732464 0.103812 0.695354 0.345427
C37   C     C_R   0.893667 0.731813 0.302931 0.332969
C38   C     C_R   0.240775 0.175536 0.717299 0.355250
C39   C     C_R   0.641009 0.196131 0.160371 0.343859
C40   C     C_R   0.268336 0.893726 0.703093 0.359089
C41   C     C_R   0.601447 0.762881 0.809911 0.333256
C42   C     C_R   0.300088 0.137287 0.346137 0.331904
C43   C     C_R   0.859825 0.299557 0.660517 0.342097
C44   C     C_R   0.397723 0.760132 0.191401 0.333600
C45   C     C_R   0.286704 0.375850 0.835274 0.342946
C46   C     C_R   0.695659 0.858320 0.337446 0.336796
C47   C     C_R   0.140741 0.698743 0.657782 0.344475
C48   C     C_R   0.764257 0.395229 0.198263 0.344722
C49   C     C_R   0.781211 0.698775 0.860645 -0.027054
C50   C     C_R   0.125403 0.206562 0.286073 -0.029917
C51   C     C_R   0.790079 0.126021 0.717889 -0.042292
C52   C     C_R   0.217295 0.698797 0.141046 -0.029840
C53   C     C_R   0.227961 0.196875 0.775601 -0.041107
C54   C     C_R   0.869622 0.788065 0.279271 -0.030472
C55   C     C_R   0.209661 0.871998 0.721806 -0.043306
C56   C     C_R   0.701162 0.216235 0.144574 -0.040115
C57   C     C_R   0.281081 0.198711 0.361005 -0.026093
C58   C     C_R   0.625373 0.706489 0.786015 -0.030017
C59   C     C_R   0.373405 0.704627 0.215227 -0.028958
C60   C     C_R   0.798911 0.280815 0.644003 -0.040831
C61   C     C_R   0.715215 0.797469 0.353132 -0.029649
C62   C     C_R   0.305212 0.352028 0.779189 -0.037159
C63   C     C_R   0.707268 0.372085 0.219626 -0.043840
C64   C     C_R   0.201624 0.717889 0.643447 -0.037556
C65   C     C_R   0.720781 0.719626 0.844621 0.017624
C66   C     C_R   0.183179 0.183008 0.307070 0.016269
C67   C     C_R   0.814108 0.183006 0.696975 0.019600
C68   C     C_R   0.277906 0.718740 0.156990 0.019053
C69   C     C_R   0.248135 0.256354 0.795919 0.021363
C70   C     C_R   0.812025 0.811863 0.299548 0.018288
C71   C     C_R   0.186039 0.814956 0.698939 0.020575
C72   C     C_R   0.721349 0.276692 0.161189 0.020728
C73   C     C_R   0.220692 0.219595 0.344888 0.018715
C74   C     C_R   0.683194 0.682973 0.806940 0.017374
C75   C     C_R   0.315245 0.682012 0.194544 0.018375
C76   C     C_R   0.777718 0.220847 0.659610 0.021297
C77   C     C_R   0.775167 0.776070 0.337119 0.016944
C78   C     C_R   0.284728 0.292328 0.759521 0.025736
C79   C     C_R   0.684513 0.314109 0.198328 0.021722
C80   C     C_R   0.222802 0.777514 0.661776 0.023418
H33   H     H_    0.871178 0.728561 0.890928 0.158733
H34   H     H_    0.057161 0.198934 0.215927 0.157808
H35   H     H_    0.803874 0.053048 0.781713 0.164351
H36   H     H_    0.127784 0.729497 0.110380 0.161890
H37   H     H_    0.183961 0.112519 0.802745 0.171924
H38   H     H_    0.938191 0.796024 0.211240 0.161087
H39   H     H_    0.192478 0.946931 0.783499 0.162929
H40   H     H_    0.728553 0.130187 0.103252 0.164201
H41   H     H_    0.371029 0.228456 0.391390 0.157717
H42   H     H_    0.557012 0.698750 0.715997 0.157794
H43   H     H_    0.442342 0.696287 0.284579 0.159810
H44   H     H_    0.772156 0.367681 0.604361 0.165874
H45   H     H_    0.626528 0.768992 0.385348 0.162245
H46   H     H_    0.362798 0.430331 0.755044 0.177986
H47   H     H_    0.691545 0.446522 0.282359 0.162691
H48   H     H_    0.228109 0.632236 0.600491 0.163528
C81   C     C_R   0.640082 0.799660 0.846379 -0.267504
C82   C     C_R   0.262779 0.101863 0.307232 -0.290753
C83   C     C_R   0.896277 0.260658 0.696467 -0.276419
C84   C     C_R   0.359299 0.797065 0.155128 -0.284892
C85   C     C_R   0.251162 0.338443 0.872150 -0.281934
C86   C     C_R   0.732369 0.892984 0.298984 -0.273079
C87   C     C_R   0.104179 0.736943 0.694113 -0.272436
C88   C     C_R   0.800050 0.357869 0.160459 -0.255991
C89   C     C_R   0.139992 0.299617 0.346639 -0.286549
C90   C     C_R   0.762826 0.601851 0.807031 -0.283059
C91   C     C_R   0.234757 0.602663 0.194762 -0.284176
C92   C     C_R   0.697325 0.141315 0.656952 -0.277179
C93   C     C_R   0.855801 0.695952 0.339343 -0.262241
C94   C     C_R   0.279268 0.211047 0.682232 -0.278154
C95   C     C_R   0.604307 0.234374 0.196504 -0.280561
C96   C     C_R   0.303760 0.856478 0.664923 -0.254068
H49   H     H_    0.623760 0.844877 0.861647 0.194157
H50   H     H_    0.278922 0.056465 0.292281 0.187186
H51   H     H_    0.941515 0.276694 0.711856 0.181955
H52   H     H_    0.375994 0.841642 0.139871 0.190056
H53   H     H_    0.237426 0.355977 0.915560 0.185770
H54   H     H_    0.715978 0.938118 0.283972 0.195074
H55   H     H_    0.058997 0.720547 0.707863 0.182914
H56   H     H_    0.845296 0.374230 0.146860 0.188692
H57   H     H_    0.123639 0.344803 0.361960 0.191993
H58   H     H_    0.778958 0.556444 0.792090 0.194220
H59   H     H_    0.218154 0.557950 0.209774 0.184294
H60   H     H_    0.651643 0.125725 0.642410 0.184884
H61   H     H_    0.872459 0.651096 0.354830 0.195735
H62   H     H_    0.290745 0.194805 0.637744 0.188669
H63   H     H_    0.559773 0.217344 0.211382 0.182878
H64   H     H_    0.350013 0.871571 0.653087 0.190141
H65   H     H_    0.727195 0.868625 0.895835 0.130314
H66   H     H_    0.197364 0.055208 0.218068 0.121180
H67   H     H_    0.944936 0.193706 0.782351 0.123030
H68   H     H_    0.272701 0.866784 0.105394 0.123258
H69   H     H_    0.183993 0.258761 0.933895 0.134940
H70   H     H_    0.798291 0.940044 0.212996 0.130660
H71   H     H_    0.055253 0.802711 0.781089 0.122827
H72   H     H_    0.868753 0.272119 0.109129 0.125959
H73   H     H_    0.227079 0.368553 0.396235 0.124152
H74   H     H_    0.697232 0.555047 0.718094 0.128717
H75   H     H_    0.300424 0.555873 0.283070 0.120482
H76   H     H_    0.630085 0.227664 0.605298 0.123669
H77   H     H_    0.770764 0.629269 0.391450 0.132990
H78   H     H_    0.351972 0.283982 0.624237 0.135929
H79   H     H_    0.555562 0.300965 0.282755 0.121768
H80   H     H_    0.371071 0.771027 0.612498 0.127646
Ni1   Ni    Ni4+2 0.000000 0.104370 0.000000 0.221525
Ni2   Ni    Ni4+2 0.000000 0.895630 0.000000 0.235699
Ni3   Ni    Ni4+2 0.104370 0.000000 0.000000 0.227911
Ni4   Ni    Ni4+2 0.895630 0.000000 0.000000 0.226730
Ni5   Ni    Ni4+2 0.500000 0.604370 0.500000 0.229376
Ni6   Ni    Ni4+2 0.500000 0.395630 0.500000 0.224669
Ni7   Ni    Ni4+2 0.604370 0.500000 0.500000 0.229484
Ni8   Ni    Ni4+2 0.395630 0.500000 0.500000 0.224053
C97   C     C_R   0.852315 0.147626 0.091707 0.084011
C98   C     C_R   0.106335 0.892629 0.852681 0.061031
C99   C     C_R   0.108305 0.108341 0.147230 0.062276
C100  C     C_R   0.852444 0.852057 0.908010 0.079282
C101  C     C_R   0.147389 0.852056 0.092394 0.079953
C102  C     C_R   0.892227 0.106088 0.852518 0.063755
C103  C     C_R   0.889794 0.889427 0.144818 0.062119
C104  C     C_R   0.144352 0.144590 0.905922 0.072842
C105  C     C_R   0.352564 0.647737 0.591759 0.086978
C106  C     C_R   0.606279 0.392325 0.352726 0.061474
C107  C     C_R   0.608217 0.608235 0.647266 0.060562
C108  C     C_R   0.352366 0.352020 0.408212 0.077075
C109  C     C_R   0.647934 0.352021 0.591064 0.078271
C110  C     C_R   0.391009 0.607665 0.353200 0.063083
C111  C     C_R   0.395014 0.394110 0.645958 0.057867
C112  C     C_R   0.646420 0.646828 0.406703 0.085004
C113  C     C_R   0.823191 0.742076 0.884749 -0.147510
C114  C     C_R   0.097474 0.177604 0.236449 -0.149244
C115  C     C_R   0.822043 0.095589 0.763971 -0.164622
C116  C     C_R   0.175814 0.742310 0.116629 -0.131405
C117  C     C_R   0.197175 0.159601 0.814999 -0.141015
C118  C     C_R   0.897804 0.817244 0.231113 -0.138206
C119  C     C_R   0.176013 0.903093 0.765988 -0.130001
C120  C     C_R   0.743013 0.176467 0.115692 -0.166295
C121  C     C_R   0.323052 0.241993 0.385169 -0.157952
C122  C     C_R   0.597359 0.677453 0.736486 -0.137784
C123  C     C_R   0.401526 0.675668 0.264387 -0.146136
C124  C     C_R   0.757293 0.321490 0.615534 -0.162235
C125  C     C_R   0.674270 0.755269 0.378792 -0.129696
C126  C     C_R   0.344619 0.385165 0.742317 -0.153925
C127  C     C_R   0.674706 0.402771 0.264892 -0.158288
C128  C     C_R   0.243200 0.677904 0.614371 -0.153893
C129  C     C_R   0.805206 0.804340 0.894374 0.072355
C130  C     C_R   0.126173 0.126294 0.208626 0.078341
C131  C     C_R   0.873853 0.123556 0.791513 0.082069
C132  C     C_R   0.194313 0.803966 0.106702 0.073087
C133  C     C_R   0.182197 0.182597 0.870948 0.070644
C134  C     C_R   0.869874 0.869326 0.204176 0.073895
C135  C     C_R   0.124668 0.874527 0.792011 0.077143
C136  C     C_R   0.804834 0.194578 0.106946 0.077784
C137  C     C_R   0.305091 0.304276 0.394737 0.073969
C138  C     C_R   0.626043 0.626136 0.708670 0.075382
C139  C     C_R   0.372587 0.625338 0.292155 0.076649
C140  C     C_R   0.695083 0.304396 0.605693 0.079570
C141  C     C_R   0.692832 0.693641 0.390151 0.067830
C142  C     C_R   0.361601 0.359242 0.687903 0.069284
C143  C     C_R   0.624198 0.373821 0.292014 0.083975
C144  C     C_R   0.305532 0.694996 0.607119 0.075448
C145  C     C_R   0.742616 0.821533 0.886597 -0.162578
C146  C     C_R   0.176868 0.097020 0.236816 -0.176791
C147  C     C_R   0.902431 0.174125 0.764176 -0.166403
C148  C     C_R   0.256962 0.820188 0.114756 -0.173180
C149  C     C_R   0.197850 0.242168 0.890152 -0.190209
C150  C     C_R   0.818558 0.897986 0.231173 -0.166149
C151  C     C_R   0.097241 0.822962 0.763826 -0.170773
C152  C     C_R   0.821997 0.256560 0.117725 -0.161835
C153  C     C_R   0.242496 0.321464 0.386978 -0.179106
C154  C     C_R   0.676759 0.596877 0.736830 -0.173164
C155  C     C_R   0.321246 0.596903 0.264329 -0.175179
C156  C     C_R   0.677102 0.242617 0.614931 -0.176198
C157  C     C_R   0.754938 0.675917 0.381312 -0.160712
C158  C     C_R   0.340021 0.301741 0.668186 -0.178974
C159  C     C_R   0.596955 0.321620 0.264699 -0.177878
C160  C     C_R   0.323781 0.756263 0.619679 -0.155465
C161  C     C_R   0.700557 0.779934 0.860742 0.099106
C162  C     C_R   0.206621 0.125996 0.284978 0.105606
C163  C     C_R   0.872270 0.204781 0.717667 0.102114
C164  C     C_R   0.298640 0.778309 0.140804 0.106622
C165  C     C_R   0.232437 0.279212 0.853071 0.106852
C166  C     C_R   0.788481 0.868731 0.277694 0.100564
C167  C     C_R   0.127816 0.792754 0.717417 0.104679
C168  C     C_R   0.780658 0.297739 0.144830 0.096880
C169  C     C_R   0.200451 0.279882 0.361056 0.104644
C170  C     C_R   0.706599 0.625926 0.784890 0.102483
C171  C     C_R   0.291378 0.625863 0.216592 0.107115
C172  C     C_R   0.717861 0.200854 0.642147 0.102291
C173  C     C_R   0.795879 0.716304 0.353901 0.098690
C174  C     C_R   0.301651 0.268040 0.703412 0.098227
C175  C     C_R   0.627219 0.291108 0.218318 0.103955
C176  C     C_R   0.282915 0.797564 0.647063 0.095754
N33   N     N_R   0.039550 0.284552 0.295882 0.239816
O1    O     O_R   0.027783 0.343986 0.292816 -0.339668
O2    O     O_R   0.993260 0.245729 0.294845 -0.377264
N34   N     N_R   0.857874 0.611343 0.867677 0.240160
O3    O     O_R   0.888989 0.571883 0.835066 -0.337074
O4    O     O_R   0.874459 0.619482 0.923209 -0.358488
N35   N     N_R   0.139426 0.613184 0.134830 0.244356
O5    O     O_R   0.107430 0.576312 0.168306 -0.319515
O6    O     O_R   0.123002 0.619461 0.079150 -0.356071
N36   N     N_R   0.706624 0.045800 0.714054 0.237500
O7    O     O_R   0.684290 0.007237 0.674231 -0.342026
O8    O     O_R   0.692538 0.038049 0.769733 -0.388952
N37   N     N_R   0.955120 0.709570 0.289070 0.242329
O9    O     O_R   0.966122 0.650029 0.284662 -0.313493
O10   O     O_R   0.001887 0.747815 0.289940 -0.382985
N38   N     N_R   0.213787 0.119645 0.692435 0.241335
O11   O     O_R   0.244546 0.086627 0.653671 -0.320861
O12   O     O_R   0.154654 0.109075 0.698458 -0.395670
N39   N     N_R   0.618070 0.135563 0.144140 0.240123
O13   O     O_R   0.561930 0.130106 0.122426 -0.346728
O14   O     O_R   0.646834 0.085994 0.163289 -0.376717
N40   N     N_R   0.295551 0.950082 0.726359 0.248186
O15   O     O_R   0.326349 0.985904 0.690922 -0.308092
O16   O     O_R   0.303348 0.957232 0.783649 -0.384927
N41   N     N_R   0.539559 0.784531 0.795797 0.239947
O17   O     O_R   0.527820 0.843962 0.792599 -0.333200
O18   O     O_R   0.493248 0.745733 0.794916 -0.372496
N42   N     N_R   0.357639 0.111208 0.368196 0.240839
O19   O     O_R   0.388783 0.071667 0.335700 -0.337016
O20   O     O_R   0.374090 0.119381 0.423760 -0.365336
N43   N     N_R   0.883967 0.359383 0.645085 0.240862
O21   O     O_R   0.939757 0.363220 0.623668 -0.333354
O22   O     O_R   0.856938 0.409812 0.664713 -0.379293
N44   N     N_R   0.459855 0.780754 0.205336 0.241370
O23   O     O_R   0.472098 0.839997 0.208790 -0.327403
O24   O     O_R   0.505847 0.741059 0.205710 -0.377077
N45   N     N_R   0.302766 0.437581 0.855242 0.241568
O25   O     O_R   0.317576 0.447546 0.910950 -0.353529
O26   O     O_R   0.291359 0.485114 0.821145 -0.358621
N46   N     N_R   0.638293 0.884775 0.358566 0.244579
O27   O     O_R   0.605888 0.922139 0.324798 -0.305235
O28   O     O_R   0.623378 0.879519 0.414339 -0.366549
N47   N     N_R   0.116782 0.639091 0.639807 0.239844
O29   O     O_R   0.060849 0.635349 0.617249 -0.339081
O30   O     O_R   0.144263 0.588447 0.658059 -0.361104
N48   N     N_R   0.788944 0.454095 0.217717 0.240491
O31   O     O_R   0.810636 0.492349 0.178542 -0.333018
O32   O     O_R   0.802680 0.463204 0.273790 -0.373049

loop_
_geom_bond_atom_site_label_1
_geom_bond_atom_site_label_2
_geom_bond_distance
_ccdc_geom_bond_type
H34   C114  1.077776 S    
C5    H5    1.079442 S    
C62   C126  1.394249 A    
C53   C69   1.419782 A    
C114  C130  1.404195 A    
C4    H4    1.079747 S    
C145  C161  1.391682 A    
N35   O6    1.301358 A    
N45   O25   1.301303 A    
C44   C84   1.400030 A    
C118  C134  1.403994 A    
N21   N32   1.386539 A    
N23   N30   1.378515 A    
N27   Ni7   1.850393 S    
C67   C76   1.401005 A    
N42   O19   1.301456 A    
H37   C117  1.083290 S    
N3    Ni3   1.850172 S    
C60   C124  1.399054 A    
C2    H2    1.077819 S    
N37   O10   1.301443 A    
C53   C117  1.376173 A    
C50   C66   1.414944 A    
C36   C51   1.415137 A    
C153  C169  1.391837 A    
C43   C60   1.415755 A    
C150  C166  1.391332 A    
C75   C171  1.409154 A    
C13   N13   1.328870 A    
N15   Ni4   1.868040 S    
N30   Ni6   1.872824 S    
N44   O23   1.301475 A    
C50   C114  1.399660 A    
C35   C52   1.415964 A    
N48   O31   1.301021 A    
N18   N27   1.386539 A    
C16   N16   1.339443 A    
C48   N48   1.435168 S    
C7    C103  1.393489 A    
N35   O5    1.301678 A    
C22   C110  1.391287 A    
C26   C107  1.391225 A    
C38   N38   1.439992 S    
N36   O7    1.300974 A    
N3    N10   1.378515 A    
C63   C79   1.416202 A    
C64   C80   1.416316 A    
C11   C98   1.388416 A    
C9    C100  1.384674 A    
C111  C142  1.413678 S    
C119  C135  1.402253 A    
C26   N26   1.336821 A    
C13   C104  1.364242 A    
C81   H49   1.084042 S    
C131  C147  1.400687 A    
N34   O3    1.301461 A    
H71   C151  1.081867 S    
H72   C152  1.081246 S    
N6    N15   1.386539 A    
C29   C112  1.385854 A    
N46   O27   1.301417 A    
C23   H23   1.080592 S    
C24   H24   1.079725 S    
C130  C146  1.401474 A    
C9    H9    1.079733 S    
C30   N30   1.324769 A    
C70   C77   1.401800 A    
C13   H13   1.081712 S    
C79   C175  1.409715 A    
C80   C176  1.408635 A    
C159  C175  1.390536 A    
C18   N18   1.338273 A    
N48   O32   1.301240 A    
N22   N31   1.386539 A    
C110  C139  1.472893 S    
C12   H12   1.079297 S    
C8    C104  1.365532 A    
H77   C157  1.080992 S    
C2    C98   1.393358 A    
C7    H7    1.077660 S    
C44   N44   1.439042 S    
C8    H8    1.081702 S    
C129  C145  1.402256 A    
C106  C143  1.470197 S    
C23   C111  1.378985 A    
H73   C153  1.080948 S    
N25   Ni6   1.848478 S    
C6    C102  1.390376 A    
H41   C121  1.077565 S    
C36   C92   1.396404 A    
C37   C93   1.399514 A    
C86   H54   1.084161 S    
C125  C141  1.404232 A    
C67   C163  1.408760 A    
C40   C96   1.395882 A    
C68   C75   1.401146 A    
C57   C121  1.399352 A    
C69   C78   1.384688 A    
N8    N13   1.378515 A    
C37   C54   1.415926 A    
C72   C79   1.400947 A    
C143  C159  1.399559 A    
C158  C174  1.364808 A    
C59   C75   1.414768 A    
C39   N39   1.435122 S    
N38   O11   1.301088 A    
C84   C164  1.399402 A    
C57   C73   1.414601 A    
C19   C107  1.392376 A    
C48   C63   1.415627 A    
C46   N46   1.438517 S    
H44   C124  1.076355 S    
C70   C166  1.408708 A    
N17   N28   1.386539 A    
C17   C105  1.385845 A    
C15   N15   1.337757 A    
C88   H56   1.084488 S    
C61   C77   1.415199 A    
C99   C130  1.473018 S    
C1    N1    1.338255 A    
N23   Ni8   1.868578 S    
C6    H6    1.076094 S    
C27   N27   1.335199 A    
N2    Ni2   1.872382 S    
N14   Ni2   1.872824 S    
C54   C70   1.415454 A    
C40   C55   1.417362 A    
N12   Ni4   1.850389 S    
C22   N22   1.335928 A    
N31   Ni8   1.868040 S    
N33   O2    1.301469 A    
C25   H25   1.079726 S    
C116  C132  1.404778 A    
C19   N19   1.337977 A    
H74   C154  1.081362 S    
C10   C99   1.391345 A    
C28   H28   1.079515 S    
C29   H29   1.079787 S    
C120  C136  1.403530 A    
N10   Ni1   1.848475 S    
C31   H31   1.077605 S    
C14   C103  1.393314 A    
C32   H32   1.079737 S    
C17   H17   1.079807 S    
C4    N4    1.337902 A    
C92   C172  1.398951 A    
C93   C173  1.399376 A    
C97   C136  1.471322 S    
C30   C111  1.376888 A    
C43   N43   1.435007 S    
C89   C169  1.399463 A    
C52   C68   1.414272 A    
C101  C132  1.473767 S    
C3    H3    1.077520 S    
C154  C170  1.391331 A    
C38   C53   1.411265 A    
C43   C83   1.396564 A    
N41   O17   1.301468 A    
C20   N20   1.337907 A    
C83   H51   1.084517 S    
C41   C81   1.399795 A    
H68   C148  1.081108 S    
N41   O18   1.301472 A    
N4    Ni4   1.850175 S    
C37   N37   1.438808 S    
C32   N32   1.337529 A    
C2    N2    1.339739 A    
C126  C142  1.388586 A    
C28   C105  1.384291 A    
C20   C108  1.386034 A    
C15   C102  1.391845 A    
C11   N11   1.333637 A    
N21   Ni6   1.848597 S    
C55   C119  1.396668 A    
C160  C176  1.388960 A    
C41   C58   1.415732 A    
C127  C143  1.402620 A    
C82   H50   1.084072 S    
C140  C156  1.401507 A    
C109  C140  1.471689 S    
C45   C62   1.414228 A    
C141  C157  1.402129 A    
H76   C156  1.080727 S    
N42   O20   1.301458 A    
C47   C64   1.415928 A    
N5    Ni2   1.848597 S    
C128  C144  1.403180 A    
C33   C50   1.415757 A    
H45   C125  1.077599 S    
H43   C123  1.077575 S    
N24   Ni7   1.868578 S    
H33   C113  1.077543 S    
C10   H10   1.077253 S    
C122  C138  1.404106 A    
C61   C125  1.399634 A    
C39   C56   1.416012 A    
C51   C115  1.398749 A    
C113  C129  1.404586 A    
C14   H14   1.077580 S    
C49   C113  1.399249 A    
N11   Ni3   1.850393 S    
N1    N12   1.386539 A    
N44   O24   1.301445 A    
C117  C133  1.385079 A    
H48   C128  1.076224 S    
C81   C161  1.399452 A    
N8    Ni3   1.868578 S    
C138  C154  1.401349 A    
H78   C158  1.086730 S    
C5    N5    1.334015 A    
C107  C138  1.472687 S    
C87   C167  1.398059 A    
C132  C148  1.401967 A    
C133  C149  1.387227 A    
C4    C100  1.385934 A    
H66   C146  1.081359 S    
N36   O8    1.301206 A    
C139  C155  1.400950 A    
C10   N10   1.336893 A    
C115  C131  1.401835 A    
H67   C147  1.081280 S    
C84   H52   1.083976 S    
C54   C118  1.400102 A    
C88   C168  1.398645 A    
N39   O13   1.301008 A    
C100  C129  1.473682 S    
C41   N41   1.439046 S    
C16   C101  1.388370 A    
C59   C123  1.399664 A    
N34   O4    1.301445 A    
C104  C133  1.406885 S    
N45   O26   1.301282 A    
C21   N21   1.335119 A    
C8    N8    1.325982 A    
N29   Ni5   1.872824 S    
C33   N33   1.439022 S    
C86   C166  1.398864 A    
C22   H22   1.076924 S    
C34   C49   1.416095 A    
C135  C151  1.398827 A    
C62   C78   1.421702 A    
C55   C71   1.417162 A    
C56   C72   1.415707 A    
C76   C172  1.408296 A    
C77   C173  1.408583 A    
N47   O29   1.301024 A    
C147  C163  1.390054 A    
C21   C109  1.384045 A    
C90   H58   1.084097 S    
C39   C95   1.396123 A    
C123  C139  1.404592 A    
C73   C169  1.408497 A    
C26   H26   1.077201 S    
C58   C74   1.414982 A    
C45   C85   1.396017 A    
C94   H62   1.084705 S    
N46   O28   1.301429 A    
C68   C164  1.408983 A    
C69   C165  1.412322 A    
C30   H30   1.080504 S    
C63   C127  1.398042 A    
C44   C59   1.416041 A    
C12   C97   1.383928 A    
C18   H18   1.077593 S    
C6    N6    1.336414 A    
C32   C109  1.386305 A    
C94   C174  1.394076 A    
C60   C76   1.416573 A    
C24   C112  1.386446 A    
N19   Ni7   1.850172 S    
C90   C170  1.398835 A    
C151  C167  1.391196 A    
C38   C94   1.385666 A    
H39   C119  1.076145 S    
C25   N25   1.336407 A    
C78   C174  1.408734 A    
C40   N40   1.437359 S    
H65   C145  1.080939 S    
N43   O21   1.301007 A    
C74   C170  1.408802 A    
C155  C171  1.391183 A    
C29   N29   1.336850 A    
C103  C134  1.473025 S    
C31   N31   1.338285 A    
N2    N11   1.386539 A    
N38   O12   1.301509 A    
N28   Ni8   1.850389 S    
C17   N17   1.336239 A    
C42   C82   1.399568 A    
C124  C140  1.402913 A    
C3    C99   1.392532 A    
N7    Ni4   1.868578 S    
C1    C97   1.386993 A    
C66   C73   1.401111 A    
N26   Ni5   1.848475 S    
H35   C115  1.076994 S    
C5    C101  1.384195 A    
H42   C122  1.077753 S    
C95   C175  1.397912 A    
N33   O1    1.301469 A    
C96   C176  1.397337 A    
C15   H15   1.077520 S    
C34   N34   1.438801 S    
C16   H16   1.079820 S    
C1    H1    1.079886 S    
C58   C122  1.399512 A    
C51   C67   1.416967 A    
N37   O9    1.301474 A    
C136  C152  1.400652 A    
N32   Ni7   1.868040 S    
C49   C65   1.414657 A    
C148  C164  1.392622 A    
C149  C165  1.382883 A    
C95   H63   1.084514 S    
C96   H64   1.084543 S    
C35   C91   1.398712 A    
C85   C165  1.397323 A    
C48   C88   1.396615 A    
C31   C110  1.393881 A    
C33   C89   1.399884 A    
C18   C106  1.392864 A    
N18   Ni6   1.872382 S    
C87   H55   1.084504 S    
C65   C74   1.400996 A    
H38   C118  1.077669 S    
N40   O16   1.301310 A    
C98   C135  1.469531 S    
C11   H11   1.075732 S    
C7    N7    1.336661 A    
N1    Ni1   1.872382 S    
N13   Ni1   1.872824 S    
C36   N36   1.435015 S    
C102  C131  1.470630 S    
C23   N23   1.331009 A    
C52   C116  1.398221 A    
C9    N9    1.336304 A    
C82   C162  1.398919 A    
N17   Ni5   1.872382 S    
N39   O14   1.301262 A    
H70   C150  1.081198 S    
C112  C141  1.473564 S    
C64   C128  1.398595 A    
N9    Ni2   1.848478 S    
C108  C137  1.473941 S    
H75   C155  1.081342 S    
N4    N9    1.378515 A    
C121  C137  1.404657 A    
C134  C150  1.401485 A    
H36   C116  1.077095 S    
C34   C90   1.399444 A    
N40   O15   1.301018 A    
C24   N24   1.337696 A    
H40   C120  1.075764 S    
C142  C158  1.387412 A    
C157  C173  1.391858 A    
C28   N28   1.334855 A    
C65   C161  1.408529 A    
H47   C127  1.076835 S    
N16   Ni3   1.868040 S    
C71   C80   1.400668 A    
N47   O30   1.301234 A    
C83   C163  1.398428 A    
C56   C120  1.397543 A    
C47   N47   1.435128 S    
C71   C167  1.410501 A    
N20   N25   1.378515 A    
C72   C168  1.409325 A    
C35   N35   1.438376 S    
H79   C159  1.081525 S    
H80   C160  1.081083 S    
N19   N26   1.378515 A    
N24   N29   1.378515 A    
C42   N42   1.438824 S    
C3    N3    1.338097 A    
C27   C106  1.390175 A    
C152  C168  1.391032 A    
C25   C108  1.384709 A    
C137  C153  1.402297 A    
C91   H59   1.084097 S    
C20   H20   1.079735 S    
C85   H53   1.084316 S    
C12   N12   1.333806 A    
N22   Ni5   1.848600 S    
C89   H57   1.084024 S    
C66   C162  1.408773 A    
C27   H27   1.077030 S    
C21   H21   1.079543 S    
C46   C86   1.399055 A    
C146  C162  1.391514 A    
N43   O22   1.301233 A    
C92   H60   1.084482 S    
C42   C57   1.416063 A    
C93   H61   1.084087 S    
C144  C160  1.399542 A    
C14   N14   1.336648 A    
C45   N45   1.437140 S    
C46   C61   1.416081 A    
C156  C172  1.389814 A    
C19   H19   1.077550 S    
C47   C87   1.396490 A    
N6    Ni1   1.848600 S    
N5    N16   1.386539 A    
H46   C126  1.081788 S    
C105  C144  1.469785 S    
H69   C149  1.085170 S    
N7    N14   1.378515 A    
N20   Ni8   1.850175 S    
C91   C171  1.398576 A    
