data_mof_unit_40706.cif
_audit_creation_date              2012-12-10T17:59:36-0500
_audit_creation_method            fapswitch 2.2
_symmetry_space_group_name_H-M    P1
_symmetry_Int_Tables_number       1
_space_group_crystal_system       triclinic
_cell_length_a                    18.348982
_cell_length_b                    18.348982
_cell_length_c                    34.252722
_cell_angle_alpha                 89.999062
_cell_angle_beta                  89.999062
_cell_angle_gamma                 90.002956
_cell_volume                      11532.3824985

loop_
_atom_site_label
_atom_site_type_symbol
_atom_type_description
_atom_site_fract_x
_atom_site_fract_y
_atom_site_fract_z
_atom_type_partial_charge
C1    C     C_R   0.993964 0.565531 0.417951 -0.247313
C2    C     C_R   0.994042 0.434463 0.582052 -0.247346
C3    C     C_R   0.434461 0.994044 0.417950 -0.247357
C4    C     C_R   0.565534 0.993968 0.582048 -0.247329
C5    C     C_R   0.006032 0.434466 0.417952 -0.247330
C6    C     C_R   0.005956 0.565539 0.582050 -0.247357
C7    C     C_R   0.565537 0.005958 0.417948 -0.247346
C8    C     C_R   0.434469 0.006036 0.582049 -0.247313
C9    C     C_R   0.493964 0.065531 0.917951 -0.247313
C10   C     C_R   0.494042 0.934463 0.082052 -0.247346
C11   C     C_R   0.934461 0.494044 0.917950 -0.247357
C12   C     C_R   0.065534 0.493968 0.082047 -0.247329
C13   C     C_R   0.506032 0.934466 0.917952 -0.247330
C14   C     C_R   0.505956 0.065539 0.082050 -0.247357
C15   C     C_R   0.065537 0.505958 0.917948 -0.247346
C16   C     C_R   0.934469 0.506036 0.082049 -0.247313
C17   C     C_R   0.999998 0.499998 0.397993 -0.012118
C18   C     C_R   0.000000 0.500001 0.602009 -0.012106
C19   C     C_R   0.499999 0.999999 0.397991 -0.012106
C20   C     C_R   0.500002 0.000001 0.602007 -0.012118
C21   C     C_R   0.499998 0.999998 0.897993 -0.012118
C22   C     C_R   0.500000 0.000001 0.102009 -0.012106
C23   C     C_R   0.999999 0.500000 0.897991 -0.012106
C24   C     C_R   0.000002 0.500002 0.102007 -0.012118
C25   C     C_R   0.003115 0.365884 0.479451 -0.069845
C26   C     C_R   0.002988 0.634121 0.520552 -0.069839
C27   C     C_R   0.634121 0.002999 0.479444 -0.069850
C28   C     C_R   0.365887 0.003125 0.520553 -0.069848
C29   C     C_R   0.996875 0.634113 0.479447 -0.069848
C30   C     C_R   0.997001 0.365879 0.520556 -0.069850
C31   C     C_R   0.365879 0.997012 0.479447 -0.069839
C32   C     C_R   0.634116 0.996885 0.520549 -0.069845
C33   C     C_R   0.503115 0.865884 0.979451 -0.069845
C34   C     C_R   0.502988 0.134121 0.020553 -0.069839
C35   C     C_R   0.134121 0.502999 0.979444 -0.069850
C36   C     C_R   0.865887 0.503125 0.020553 -0.069848
C37   C     C_R   0.496875 0.134113 0.979447 -0.069848
C38   C     C_R   0.497001 0.865879 0.020556 -0.069850
C39   C     C_R   0.865879 0.497012 0.979447 -0.069839
C40   C     C_R   0.134116 0.496885 0.020549 -0.069845
C41   C     C_R   0.499999 1.000000 0.355783 0.798665
C42   C     C_R   0.500001 0.000000 0.644216 0.798657
C43   C     C_R   1.000000 0.499999 0.355784 0.798657
C44   C     C_R   0.000000 0.500001 0.644217 0.798665
C45   C     C_R   0.999999 0.500000 0.855783 0.798665
C46   C     C_R   0.000001 0.500000 0.144216 0.798657
C47   C     C_R   0.499999 0.999999 0.855784 0.798657
C48   C     C_R   0.500000 0.000001 0.144217 0.798665
C49   C     C_R   0.359839 0.140160 0.250000 0.783327
C50   C     C_R   0.640161 0.859839 0.750000 0.784772
C51   C     C_R   0.859840 0.359840 0.250000 0.783334
C52   C     C_R   0.140160 0.640160 0.750000 0.784783
C53   C     C_R   0.640161 0.859839 0.250000 0.783340
C54   C     C_R   0.359839 0.140161 0.750000 0.784789
C55   C     C_R   0.140160 0.640160 0.250000 0.783334
C56   C     C_R   0.859840 0.359840 0.750000 0.784783
C57   C     C_R   0.359840 0.859840 0.750000 0.783334
C58   C     C_R   0.640160 0.140160 0.250000 0.784783
C59   C     C_R   0.859839 0.640160 0.750000 0.783327
C60   C     C_R   0.140161 0.359839 0.250000 0.784772
C61   C     C_R   0.640160 0.140160 0.750000 0.783334
C62   C     C_R   0.359840 0.859840 0.250000 0.784783
C63   C     C_R   0.140161 0.359839 0.750000 0.783340
C64   C     C_R   0.859839 0.640161 0.250000 0.784789
C65   C     C_R   0.244166 0.809269 0.224537 -0.192643
C66   C     C_R   0.755832 0.190730 0.775463 -0.194535
C67   C     C_R   0.190735 0.244167 0.224535 -0.192636
C68   C     C_R   0.809265 0.755831 0.775465 -0.194535
C69   C     C_R   0.755836 0.190732 0.224537 -0.192652
C70   C     C_R   0.244166 0.809268 0.775463 -0.194545
C71   C     C_R   0.809266 0.755833 0.224534 -0.192635
C72   C     C_R   0.190734 0.244168 0.775466 -0.194534
C73   C     C_R   0.244167 0.190734 0.775466 -0.192635
C74   C     C_R   0.755832 0.809266 0.224534 -0.194534
C75   C     C_R   0.190731 0.755834 0.775463 -0.192643
C76   C     C_R   0.809269 0.244168 0.224537 -0.194535
C77   C     C_R   0.755833 0.809265 0.775465 -0.192637
C78   C     C_R   0.244168 0.190735 0.224534 -0.194534
C79   C     C_R   0.809268 0.244164 0.775463 -0.192652
C80   C     C_R   0.190732 0.755834 0.224536 -0.194545
C81   C     C_R   0.744166 0.309269 0.724537 -0.192643
C82   C     C_R   0.255832 0.690731 0.275463 -0.194535
C83   C     C_R   0.690735 0.744167 0.724535 -0.192636
C84   C     C_R   0.309265 0.255831 0.275465 -0.194535
C85   C     C_R   0.255836 0.690732 0.724537 -0.192652
C86   C     C_R   0.744166 0.309268 0.275463 -0.194545
C87   C     C_R   0.309266 0.255833 0.724534 -0.192635
C88   C     C_R   0.690734 0.744168 0.275466 -0.194534
C89   C     C_R   0.744166 0.690734 0.275466 -0.192635
C90   C     C_R   0.255832 0.309266 0.724534 -0.194534
C91   C     C_R   0.690731 0.255834 0.275463 -0.192643
C92   C     C_R   0.309269 0.744168 0.724537 -0.194535
C93   C     C_R   0.255833 0.309265 0.275465 -0.192637
C94   C     C_R   0.744169 0.690734 0.724534 -0.194534
C95   C     C_R   0.309268 0.744164 0.275463 -0.192652
C96   C     C_R   0.690732 0.255834 0.724536 -0.194545
C97   C     C_R   0.002925 0.432840 0.458875 0.066256
C98   C     C_R   0.002857 0.567164 0.541128 0.066263
C99   C     C_R   0.567162 0.002864 0.458871 0.066263
C100  C     C_R   0.432842 0.002931 0.541127 0.066252
C101  C     C_R   0.997069 0.567157 0.458873 0.066252
C102  C     C_R   0.997136 0.432837 0.541129 0.066263
C103  C     C_R   0.432836 0.997143 0.458872 0.066263
C104  C     C_R   0.567160 0.997075 0.541125 0.066256
C105  C     C_R   0.502925 0.932840 0.958875 0.066256
C106  C     C_R   0.502857 0.067164 0.041128 0.066263
C107  C     C_R   0.067162 0.502864 0.958871 0.066263
C108  C     C_R   0.932842 0.502931 0.041127 0.066252
C109  C     C_R   0.497069 0.067157 0.958873 0.066252
C110  C     C_R   0.497136 0.932837 0.041129 0.066263
C111  C     C_R   0.932836 0.497143 0.958872 0.066263
C112  C     C_R   0.067160 0.497075 0.041125 0.066256
C113  C     C_R   0.196283 0.696283 0.250000 0.008735
C114  C     C_R   0.803717 0.303716 0.750000 0.009391
C115  C     C_R   0.303716 0.196283 0.250000 0.008709
C116  C     C_R   0.696284 0.803716 0.750000 0.009366
C117  C     C_R   0.803717 0.303717 0.250000 0.008735
C118  C     C_R   0.196284 0.696283 0.750000 0.009391
C119  C     C_R   0.696284 0.803716 0.250000 0.008705
C120  C     C_R   0.303716 0.196284 0.750000 0.009362
C121  C     C_R   0.196284 0.303716 0.750000 0.008705
C122  C     C_R   0.803716 0.696284 0.250000 0.009362
C123  C     C_R   0.303717 0.803717 0.750000 0.008735
C124  C     C_R   0.696284 0.196283 0.250000 0.009391
C125  C     C_R   0.803716 0.696284 0.750000 0.008709
C126  C     C_R   0.196284 0.303716 0.250000 0.009366
C127  C     C_R   0.696283 0.196283 0.750000 0.008735
C128  C     C_R   0.303717 0.803716 0.250000 0.009391
C129  C     C_R   0.999997 0.499999 0.479486 0.023366
C130  C     C_R   0.999997 0.500000 0.520517 0.023371
C131  C     C_R   0.500000 0.000003 0.479483 0.023371
C132  C     C_R   0.500001 0.000003 0.520514 0.023366
C133  C     C_R   0.499997 0.999999 0.979486 0.023366
C134  C     C_R   0.499997 0.000000 0.020517 0.023371
C135  C     C_R   1.000000 0.500003 0.979483 0.023371
C136  C     C_R   0.000001 0.500003 0.020514 0.023366
H1    H     H_    0.238803 0.854788 0.204610 0.162314
H2    H     H_    0.761195 0.145212 0.795391 0.161998
H3    H     H_    0.145219 0.238804 0.204606 0.162304
H4    H     H_    0.854780 0.761194 0.795395 0.161985
H5    H     H_    0.761201 0.145215 0.204610 0.162312
H6    H     H_    0.238801 0.854784 0.795391 0.161995
H7    H     H_    0.854782 0.761197 0.204605 0.162302
H8    H     H_    0.145219 0.238805 0.795396 0.161984
H9    H     H_    0.238803 0.145218 0.795395 0.162302
H10   H     H_    0.761195 0.854781 0.204604 0.161984
H11   H     H_    0.145212 0.761197 0.795390 0.162314
H12   H     H_    0.854787 0.238805 0.204609 0.161998
H13   H     H_    0.761196 0.854781 0.795394 0.162304
H14   H     H_    0.238806 0.145220 0.204605 0.161985
H15   H     H_    0.854785 0.238799 0.795390 0.162312
H16   H     H_    0.145215 0.761198 0.204609 0.161995
H17   H     H_    0.738803 0.354788 0.704610 0.162314
H18   H     H_    0.261195 0.645212 0.295391 0.161998
H19   H     H_    0.645219 0.738804 0.704606 0.162304
H20   H     H_    0.354780 0.261194 0.295395 0.161985
H21   H     H_    0.261201 0.645215 0.704610 0.162312
H22   H     H_    0.738801 0.354784 0.295391 0.161995
H23   H     H_    0.354782 0.261197 0.704605 0.162302
H24   H     H_    0.645219 0.738805 0.295396 0.161984
H25   H     H_    0.738803 0.645218 0.295395 0.162302
H26   H     H_    0.261195 0.354781 0.704604 0.161984
H27   H     H_    0.645212 0.261197 0.295390 0.162314
H28   H     H_    0.354787 0.738805 0.704609 0.161998
H29   H     H_    0.261196 0.354780 0.295394 0.162304
H30   H     H_    0.738806 0.645220 0.704605 0.161985
H31   H     H_    0.354785 0.738799 0.295390 0.162312
H32   H     H_    0.645215 0.261198 0.704609 0.161995
H33   H     H_    0.988295 0.614862 0.400934 0.143919
H34   H     H_    0.988429 0.385133 0.599071 0.143927
H35   H     H_    0.385132 0.988429 0.400932 0.143924
H36   H     H_    0.614865 0.988297 0.599063 0.143915
H37   H     H_    0.011703 0.385135 0.400937 0.143915
H38   H     H_    0.011571 0.614868 0.599068 0.143924
H39   H     H_    0.614867 0.011571 0.400929 0.143927
H40   H     H_    0.385138 0.011705 0.599066 0.143918
H41   H     H_    0.488295 0.114862 0.900934 0.143918
H42   H     H_    0.488429 0.885133 0.099071 0.143927
H43   H     H_    0.885131 0.488429 0.900932 0.143924
H44   H     H_    0.114865 0.488297 0.099063 0.143915
H45   H     H_    0.511703 0.885135 0.900937 0.143915
H46   H     H_    0.511571 0.114868 0.099068 0.143924
H47   H     H_    0.114867 0.511571 0.900929 0.143927
H48   H     H_    0.885138 0.511705 0.099066 0.143918
O1    O     O_3   0.500000 1.000000 0.250000 -0.477798
O2    O     O_3   0.500000 0.000000 0.750000 -0.477798
O3    O     O_3   1.000000 0.500000 0.250000 -0.477798
O4    O     O_3   1.000000 0.500000 0.750000 -0.477798
O5    O     O_R   0.500000 0.939270 0.337550 -0.638750
O6    O     O_R   0.500000 0.060730 0.662450 -0.638747
O7    O     O_R   0.060730 0.500000 0.337550 -0.638741
O8    O     O_R   0.939270 0.500000 0.662450 -0.638746
O9    O     O_R   0.500000 0.060730 0.337550 -0.638746
O10   O     O_R   0.500000 0.939270 0.662450 -0.638741
O11   O     O_R   0.939270 0.500000 0.337550 -0.638747
O12   O     O_R   0.060730 0.500000 0.662450 -0.638750
O13   O     O_R   1.000000 0.439270 0.837550 -0.638750
O14   O     O_R   1.000000 0.560730 0.162450 -0.638747
O15   O     O_R   0.560730 0.000000 0.837550 -0.638741
O16   O     O_R   0.439270 1.000000 0.162450 -0.638746
O17   O     O_R   1.000000 0.560730 0.837550 -0.638746
O18   O     O_R   1.000000 0.439270 0.162450 -0.638741
O19   O     O_R   0.439270 0.000000 0.837550 -0.638747
O20   O     O_R   0.560730 1.000000 0.162450 -0.638750
O21   O     O_R   0.414490 0.146150 0.273020 -0.649026
O22   O     O_R   0.585510 0.853850 0.726980 -0.648635
O23   O     O_R   0.853850 0.414490 0.273020 -0.649032
O24   O     O_R   0.146150 0.585510 0.726980 -0.648641
O25   O     O_R   0.585510 0.853850 0.273020 -0.649026
O26   O     O_R   0.414490 0.146150 0.726980 -0.648635
O27   O     O_R   0.146150 0.585510 0.273020 -0.649028
O28   O     O_R   0.853850 0.414490 0.726980 -0.648638
O29   O     O_R   0.414490 0.853850 0.726980 -0.649028
O30   O     O_R   0.585510 0.146150 0.273020 -0.648638
O31   O     O_R   0.853850 0.585510 0.726980 -0.649026
O32   O     O_R   0.146150 0.414490 0.273020 -0.648636
O33   O     O_R   0.585510 0.146150 0.726980 -0.649032
O34   O     O_R   0.414490 0.853850 0.273020 -0.648641
O35   O     O_R   0.146150 0.414490 0.726980 -0.649026
O36   O     O_R   0.853850 0.585510 0.273020 -0.648635
O37   O     O_R   0.914490 0.646150 0.773020 -0.649026
O38   O     O_R   0.085510 0.353850 0.226980 -0.648635
O39   O     O_R   0.353850 0.914490 0.773020 -0.649032
O40   O     O_R   0.646150 0.085510 0.226980 -0.648641
O41   O     O_R   0.085510 0.353850 0.773020 -0.649026
O42   O     O_R   0.914490 0.646150 0.226980 -0.648635
O43   O     O_R   0.646150 0.085510 0.773020 -0.649028
O44   O     O_R   0.353850 0.914490 0.226980 -0.648638
O45   O     O_R   0.914490 0.353850 0.226980 -0.649028
O46   O     O_R   0.085510 0.646150 0.773020 -0.648638
O47   O     O_R   0.353850 0.085510 0.226980 -0.649026
O48   O     O_R   0.646150 0.914490 0.773020 -0.648636
O49   O     O_R   0.085510 0.646150 0.226980 -0.649032
O50   O     O_R   0.914490 0.353850 0.773020 -0.648641
O51   O     O_R   0.646150 0.914490 0.226980 -0.649026
O52   O     O_R   0.353850 0.085510 0.773020 -0.648635
Zn1   Zn    Zn3+2 0.413190 1.000000 0.217350 0.964982
Zn2   Zn    Zn3+2 0.586810 1.000000 0.782650 0.964984
Zn3   Zn    Zn3+2 0.000000 0.413190 0.217350 0.964984
Zn4   Zn    Zn3+2 1.000000 0.586810 0.782650 0.964982
Zn5   Zn    Zn3+2 0.586810 1.000000 0.217350 0.964984
Zn6   Zn    Zn3+2 0.413190 1.000000 0.782650 0.964985
Zn7   Zn    Zn3+2 1.000000 0.586810 0.217350 0.964985
Zn8   Zn    Zn3+2 0.000000 0.413190 0.782650 0.964983
Zn9   Zn    Zn3+2 0.913190 0.500000 0.717350 0.964982
Zn10  Zn    Zn3+2 0.086810 0.500000 0.282650 0.964984
Zn11  Zn    Zn3+2 0.500000 0.913190 0.717350 0.964984
Zn12  Zn    Zn3+2 0.500000 0.086810 0.282650 0.964982
Zn13  Zn    Zn3+2 0.086810 0.500000 0.717350 0.964984
Zn14  Zn    Zn3+2 0.913190 0.500000 0.282650 0.964985
Zn15  Zn    Zn3+2 0.500000 0.086810 0.717350 0.964985
Zn16  Zn    Zn3+2 0.500000 0.913190 0.282650 0.964983
C137  C     C_R   0.011997 0.295137 0.458665 0.141095
C138  C     C_R   0.956812 0.268162 0.434169 -0.189502
C139  C     C_R   0.965415 0.200856 0.415566 -0.156665
C140  C     C_R   0.027934 0.159123 0.422220 -0.104124
C141  C     C_R   0.082479 0.185170 0.447041 -0.136520
C142  C     C_R   0.074924 0.253132 0.464927 -0.128208
H49   H     H_    0.907488 0.299359 0.429451 0.132799
H50   H     H_    0.923257 0.180700 0.396290 0.130534
H51   H     H_    0.034003 0.106577 0.408233 0.114120
H52   H     H_    0.130622 0.152817 0.452575 0.138157
H53   H     H_    0.117676 0.272733 0.484040 0.121107
C143  C     C_R   0.011777 0.704891 0.541342 0.141141
C144  C     C_R   0.956571 0.731746 0.565872 -0.189522
C145  C     C_R   0.965096 0.799026 0.584511 -0.156754
C146  C     C_R   0.027549 0.840872 0.577851 -0.104206
C147  C     C_R   0.082112 0.814957 0.552992 -0.136518
C148  C     C_R   0.074643 0.747009 0.535077 -0.128091
H54   H     H_    0.907291 0.700461 0.570596 0.132811
H55   H     H_    0.922922 0.819073 0.603818 0.130600
H56   H     H_    0.033556 0.893401 0.591864 0.114054
H57   H     H_    0.130203 0.847395 0.547455 0.138012
H58   H     H_    0.117414 0.727499 0.515943 0.121084
C149  C     C_R   0.704885 0.011803 0.458653 0.141152
C150  C     C_R   0.731754 0.956603 0.434128 -0.189543
C151  C     C_R   0.799026 0.965144 0.415486 -0.156755
C152  C     C_R   0.840846 0.027608 0.422137 -0.104205
C153  C     C_R   0.814915 0.082165 0.446991 -0.136519
C154  C     C_R   0.746978 0.074679 0.464909 -0.128104
H59   H     H_    0.700488 0.907317 0.429410 0.132810
H60   H     H_    0.819085 0.922975 0.396183 0.130591
H61   H     H_    0.893366 0.033627 0.408121 0.114066
H62   H     H_    0.847333 0.130266 0.452518 0.138028
H63   H     H_    0.727456 0.117445 0.484039 0.121095
C155  C     C_R   0.295143 0.012016 0.541341 0.141087
C156  C     C_R   0.268153 0.956827 0.565830 -0.189499
C157  C     C_R   0.200850 0.965437 0.584436 -0.156659
C158  C     C_R   0.159136 0.027969 0.577793 -0.104134
C159  C     C_R   0.185199 0.082520 0.552980 -0.136524
C160  C     C_R   0.253157 0.074956 0.535091 -0.128225
H64   H     H_    0.299336 0.907492 0.570540 0.132799
H65   H     H_    0.180682 0.923274 0.603705 0.130547
H66   H     H_    0.106592 0.034044 0.591781 0.114127
H67   H     H_    0.152863 0.130676 0.547455 0.138123
H68   H     H_    0.272771 0.117712 0.515984 0.121114
C161  C     C_R   0.987984 0.704857 0.458659 0.141087
C162  C     C_R   0.043173 0.731847 0.434170 -0.189499
C163  C     C_R   0.034563 0.799150 0.415564 -0.156659
C164  C     C_R   0.972031 0.840864 0.422207 -0.104134
C165  C     C_R   0.917480 0.814801 0.447020 -0.136524
C166  C     C_R   0.925044 0.746843 0.464909 -0.128225
H69   H     H_    0.092508 0.700664 0.429460 0.132799
H70   H     H_    0.076726 0.819318 0.396295 0.130547
H71   H     H_    0.965956 0.893408 0.408219 0.114127
H72   H     H_    0.869324 0.847137 0.452545 0.138123
H73   H     H_    0.882288 0.727229 0.484016 0.121114
C167  C     C_R   0.988197 0.295115 0.541347 0.141152
C168  C     C_R   0.043397 0.268246 0.565871 -0.189543
C169  C     C_R   0.034856 0.200974 0.584514 -0.156755
C170  C     C_R   0.972392 0.159154 0.577863 -0.104205
C171  C     C_R   0.917835 0.185085 0.553009 -0.136519
C172  C     C_R   0.925321 0.253021 0.535091 -0.128104
H74   H     H_    0.092683 0.299512 0.570590 0.132810
H75   H     H_    0.077025 0.180915 0.603817 0.130591
H76   H     H_    0.966373 0.106634 0.591879 0.114066
H77   H     H_    0.869734 0.152667 0.547481 0.138028
H78   H     H_    0.882555 0.272543 0.515961 0.121095
C173  C     C_R   0.295108 0.988223 0.458658 0.141141
C174  C     C_R   0.268254 0.043429 0.434128 -0.189522
C175  C     C_R   0.200974 0.034904 0.415488 -0.156754
C176  C     C_R   0.159128 0.972451 0.422149 -0.104206
C177  C     C_R   0.185043 0.917888 0.447008 -0.136518
C178  C     C_R   0.252991 0.925357 0.464923 -0.128091
H79   H     H_    0.299539 0.092709 0.429404 0.132811
H80   H     H_    0.180927 0.077078 0.396181 0.130600
H81   H     H_    0.106599 0.966444 0.408136 0.114054
H82   H     H_    0.152605 0.869796 0.452544 0.138012
H83   H     H_    0.272501 0.882586 0.484057 0.121084
C179  C     C_R   0.704863 0.988002 0.541335 0.141095
C180  C     C_R   0.731838 0.043187 0.565831 -0.189502
C181  C     C_R   0.799144 0.034585 0.584434 -0.156665
C182  C     C_R   0.840877 0.972066 0.577780 -0.104124
C183  C     C_R   0.814830 0.917521 0.552959 -0.136520
C184  C     C_R   0.746868 0.925076 0.535073 -0.128208
H84   H     H_    0.700641 0.092512 0.570549 0.132799
H85   H     H_    0.819299 0.076743 0.603710 0.130534
H86   H     H_    0.893423 0.965997 0.591767 0.114120
H87   H     H_    0.847183 0.869378 0.547425 0.138157
H88   H     H_    0.727267 0.882324 0.515960 0.121107
C185  C     C_R   0.511997 0.795137 0.958665 0.141095
C186  C     C_R   0.456812 0.768162 0.934169 -0.189502
C187  C     C_R   0.465415 0.700856 0.915566 -0.156664
C188  C     C_R   0.527933 0.659123 0.922220 -0.104124
C189  C     C_R   0.582478 0.685169 0.947041 -0.136520
C190  C     C_R   0.574923 0.753132 0.964927 -0.128209
H89   H     H_    0.407488 0.799359 0.929451 0.132799
H90   H     H_    0.423256 0.680701 0.896290 0.130534
H91   H     H_    0.534002 0.606577 0.908233 0.114119
H92   H     H_    0.630621 0.652817 0.952575 0.138157
H93   H     H_    0.617675 0.772733 0.984040 0.121107
C191  C     C_R   0.511777 0.204891 0.041342 0.141141
C192  C     C_R   0.456571 0.231746 0.065872 -0.189522
C193  C     C_R   0.465096 0.299026 0.084512 -0.156754
C194  C     C_R   0.527549 0.340872 0.077851 -0.104206
C195  C     C_R   0.582112 0.314957 0.052992 -0.136518
C196  C     C_R   0.574642 0.247009 0.035077 -0.128091
H94   H     H_    0.407291 0.200461 0.070596 0.132811
H95   H     H_    0.422922 0.319073 0.103818 0.130600
H96   H     H_    0.533555 0.393401 0.091864 0.114054
H97   H     H_    0.630203 0.347395 0.047455 0.138012
H98   H     H_    0.617414 0.227499 0.015943 0.121084
C197  C     C_R   0.204885 0.511803 0.958653 0.141153
C198  C     C_R   0.231754 0.456603 0.934128 -0.189543
C199  C     C_R   0.299026 0.465143 0.915486 -0.156755
C200  C     C_R   0.340846 0.527608 0.922137 -0.104204
C201  C     C_R   0.314916 0.582165 0.946991 -0.136520
C202  C     C_R   0.246979 0.574678 0.964909 -0.128104
H99   H     H_    0.200488 0.407317 0.929410 0.132810
H100  H     H_    0.319084 0.422975 0.896183 0.130591
H101  H     H_    0.393366 0.533626 0.908121 0.114066
H102  H     H_    0.347333 0.630265 0.952519 0.138028
H103  H     H_    0.227457 0.617445 0.984039 0.121095
C203  C     C_R   0.795143 0.512016 0.041341 0.141087
C204  C     C_R   0.768153 0.456826 0.065830 -0.189499
C205  C     C_R   0.700850 0.465436 0.084436 -0.156661
C206  C     C_R   0.659136 0.527969 0.077793 -0.104134
C207  C     C_R   0.685199 0.582520 0.052980 -0.136524
C208  C     C_R   0.753157 0.574956 0.035090 -0.128225
H104  H     H_    0.799336 0.407492 0.070540 0.132800
H105  H     H_    0.680682 0.423273 0.103705 0.130548
H106  H     H_    0.606592 0.534043 0.091781 0.114127
H107  H     H_    0.652863 0.630675 0.047455 0.138124
H108  H     H_    0.772771 0.617712 0.015984 0.121115
C209  C     C_R   0.487984 0.204857 0.958658 0.141087
C210  C     C_R   0.543174 0.231846 0.934170 -0.189499
C211  C     C_R   0.534564 0.299150 0.915564 -0.156661
C212  C     C_R   0.472031 0.340864 0.922207 -0.104134
C213  C     C_R   0.417480 0.314801 0.947020 -0.136524
C214  C     C_R   0.425044 0.246843 0.964909 -0.128225
H109  H     H_    0.592508 0.200663 0.929459 0.132800
H110  H     H_    0.576727 0.319318 0.896295 0.130548
H111  H     H_    0.465957 0.393408 0.908219 0.114127
H112  H     H_    0.369325 0.347137 0.952545 0.138124
H113  H     H_    0.382288 0.227229 0.984016 0.121115
C215  C     C_R   0.488197 0.795115 0.041347 0.141153
C216  C     C_R   0.543397 0.768246 0.065871 -0.189544
C217  C     C_R   0.534857 0.700974 0.084514 -0.156755
C218  C     C_R   0.472392 0.659154 0.077863 -0.104205
C219  C     C_R   0.417835 0.685084 0.053009 -0.136520
C220  C     C_R   0.425321 0.753021 0.035091 -0.128104
H114  H     H_    0.592683 0.799512 0.070590 0.132810
H115  H     H_    0.577025 0.680916 0.103817 0.130591
H116  H     H_    0.466374 0.606634 0.091879 0.114066
H117  H     H_    0.369735 0.652667 0.047481 0.138028
H118  H     H_    0.382555 0.772543 0.015961 0.121095
C221  C     C_R   0.795108 0.488223 0.958658 0.141141
C222  C     C_R   0.768254 0.543429 0.934128 -0.189522
C223  C     C_R   0.700974 0.534904 0.915488 -0.156754
C224  C     C_R   0.659127 0.472451 0.922149 -0.104206
C225  C     C_R   0.685043 0.417888 0.947008 -0.136518
C226  C     C_R   0.752991 0.425357 0.964923 -0.128091
H119  H     H_    0.799539 0.592709 0.929404 0.132811
H120  H     H_    0.680927 0.577078 0.896181 0.130600
H121  H     H_    0.606599 0.466445 0.908136 0.114054
H122  H     H_    0.652605 0.369797 0.952545 0.138012
H123  H     H_    0.772501 0.382586 0.984057 0.121084
C227  C     C_R   0.204863 0.488002 0.041335 0.141095
C228  C     C_R   0.231838 0.543188 0.065831 -0.189502
C229  C     C_R   0.299144 0.534585 0.084434 -0.156664
C230  C     C_R   0.340877 0.472067 0.077780 -0.104124
C231  C     C_R   0.314831 0.417521 0.052959 -0.136520
C232  C     C_R   0.246868 0.425076 0.035073 -0.128208
H124  H     H_    0.200641 0.592512 0.070549 0.132799
H125  H     H_    0.319299 0.576743 0.103710 0.130534
H126  H     H_    0.393423 0.465998 0.091767 0.114119
H127  H     H_    0.347183 0.369379 0.047425 0.138157
H128  H     H_    0.227267 0.382325 0.015960 0.121107

loop_
_geom_bond_atom_site_label_1
_geom_bond_atom_site_label_2
_ccdc_geom_bond_type
C143  C148  A    
O36   Zn14  S    
C71   C122  A    
C210  H109  S    
C56   O50   A    
O20   Zn5   S    
C172  H78   S    
C165  C166  A    
C66   C79   A    
C27   C99   A    
C61   O43   A    
C7    C99   A    
C155  C160  A    
O27   Zn10  S    
C27   C149  S    
C229  C230  A    
C61   O33   A    
O3    Zn10  S    
C186  H89   S    
C59   O31   A    
C46   O14   A    
O32   Zn10  S    
C68   C77   A    
C63   O35   A    
C30   C167  S    
C154  H63   S    
C41   O9    A    
C29   C161  S    
C173  C178  A    
C137  C142  A    
O49   Zn7   S    
C78   C115  A    
C57   O29   A    
C161  C166  A    
C32   C104  A    
C3    C19   A    
C201  H102  S    
C37   C109  A    
C65   H1    S    
C39   C111  A    
C213  H112  S    
C210  C211  A    
C14   H46   S    
C167  C168  A    
C44   O12   A    
C179  C180  A    
C109  C133  A    
C177  C178  A    
C34   C106  A    
C92   C123  A    
O2    Zn6   S    
C186  C187  A    
C6    H38   S    
C182  C183  A    
C96   C127  A    
C144  H54   S    
C17   C43   S    
C219  H117  S    
O4    Zn4   S    
C18   C44   S    
C57   C123  S    
C146  H56   S    
C42   O6    A    
C194  C195  A    
C185  C190  A    
C191  C192  A    
C30   C102  A    
C100  C132  A    
C13   C21   A    
C61   C127  S    
C88   C119  A    
O2    Zn15  S    
C216  H114  S    
C58   O30   A    
C49   C115  S    
O31   Zn9   S    
C7    C19   A    
C213  C214  A    
C68   H4    S    
C11   H43   S    
C162  C163  A    
C211  C212  A    
O15   Zn2   S    
C1    C101  A    
C9    H41   S    
C164  C165  A    
C105  C133  A    
C57   O39   A    
C3    C103  A    
C230  H126  S    
C72   H8    S    
C188  H91   S    
C102  C130  A    
C72   C73   A    
C20   C42   S    
C204  C205  A    
C16   H48   S    
C55   C113  S    
C33   C38   A    
C41   O5    A    
C24   C46   S    
C149  C154  A    
C206  H106  S    
C199  C200  A    
C44   O8    A    
C84   H20   S    
C9    C21   A    
C208  H108  S    
C138  H49   S    
C4    C104  A    
C11   C23   A    
C87   H23   S    
C35   C40   A    
C86   C117  A    
C84   C93   A    
C88   H24   S    
O23   Zn14  S    
C35   C107  A    
C167  C172  A    
C227  C232  A    
C4    C20   A    
C224  H121  S    
C88   C89   A    
C76   H12   S    
C175  C176  A    
C207  C208  A    
C200  H101  S    
O50   Zn8   S    
C164  H71   S    
C151  H60   S    
O13   Zn8   S    
C230  C231  A    
C36   C108  A    
C197  C202  A    
C228  C229  A    
C54   O52   A    
C52   O46   A    
C190  H93   S    
C40   C112  A    
C204  H104  S    
O41   Zn8   S    
C195  H97   S    
C148  H58   S    
C90   H26   S    
O5    Zn16  S    
C182  H86   S    
C145  H55   S    
C137  C138  A    
C51   O23   A    
O40   Zn5   S    
C83   H19   S    
C89   C122  A    
C2    C102  A    
C45   O13   A    
C218  C219  A    
O38   Zn3   S    
C223  H120  S    
C81   H17   S    
C198  C199  A    
C69   C76   A    
C43   O11   A    
C141  C142  A    
C189  H92   S    
C203  C204  A    
O51   Zn5   S    
O16   Zn1   S    
C95   C128  A    
O1    Zn1   S    
C143  C144  A    
C81   C114  A    
C50   O48   A    
O45   Zn3   S    
C67   H3    S    
C180  H84   S    
C203  C208  A    
C28   C155  S    
C231  H127  S    
C151  C152  A    
C47   O15   A    
C229  H125  S    
C112  C136  A    
C183  H87   S    
C85   C92   A    
C181  C182  A    
C25   C137  S    
C183  C184  A    
C80   C113  A    
C178  H83   S    
O43   Zn2   S    
C73   H9    S    
C198  H99   S    
C66   H2    S    
C14   C106  A    
C153  C154  A    
C96   H32   S    
C158  C159  A    
O4    Zn9   S    
C222  C223  A    
C224  C225  A    
C50   O22   A    
C25   C97   A    
C12   H44   S    
C34   C191  S    
C13   H45   S    
C152  H61   S    
C104  C132  A    
C231  C232  A    
C90   C121  A    
C110  C134  A    
C12   C112  A    
C129  C130  A    
C94   C125  A    
C139  H50   S    
C82   C95   A    
C4    H36   S    
C225  H122  S    
C5    H37   S    
C36   C39   A    
C82   C113  A    
C5    C97   A    
C219  C220  A    
C95   H31   S    
C181  H85   S    
O22   Zn11  S    
C146  C147  A    
C8    H40   S    
O14   Zn7   S    
C59   C125  S    
C12   C24   A    
C1    C17   A    
C179  C184  A    
C14   C22   A    
C8    C100  A    
C216  C217  A    
C217  C218  A    
C62   O44   A    
O6    Zn15  S    
C51   C117  S    
O9    Zn12  S    
C162  H69   S    
O4    Zn13  S    
O25   Zn16  S    
C54   O26   A    
C150  C151  A    
C193  C194  A    
C70   C75   A    
C156  H64   S    
O33   Zn15  S    
C103  C131  A    
C68   C125  A    
C21   C47   S    
C101  C129  A    
C22   C48   S    
C23   C45   S    
C72   C121  A    
C51   O45   A    
C34   C37   A    
C149  C150  A    
C187  C188  A    
C94   H30   S    
C192  C193  A    
C135  C136  A    
O19   Zn6   S    
C10   C22   A    
C48   O16   A    
C6    C98   A    
C86   C91   A    
C184  H88   S    
C5    C17   A    
C69   H5    S    
C175  H80   S    
O11   Zn14  S    
C159  C160  A    
C15   C107  A    
C207  H107  S    
O29   Zn11  S    
C200  C201  A    
C107  C135  A    
C222  H119  S    
C142  H53   S    
C15   H47   S    
C197  C198  A    
C38   C110  A    
C220  H118  S    
C176  C177  A    
C73   C120  A    
C52   O24   A    
C140  H51   S    
C91   H27   S    
C75   C118  A    
C85   H21   S    
C89   H25   S    
C169  H75   S    
C9    C109  A    
C218  H116  S    
C35   C197  S    
C11   C111  A    
C141  H52   S    
C65   C128  A    
C33   C105  A    
C215  C216  A    
O3    Zn7   S    
C67   C126  A    
C77   H13   S    
C214  H113  S    
C81   C96   A    
C58   O40   A    
C205  H105  S    
O1    Zn5   S    
C69   C124  A    
C75   H11   S    
C212  H111  S    
C185  C186  A    
C83   C94   A    
C166  H73   S    
C180  C181  A    
C138  C139  A    
C156  C157  A    
C98   C130  A    
C29   C101  A    
C174  H79   S    
C28   C100  A    
C2    H34   S    
O1    Zn12  S    
C13   C105  A    
C49   O21   A    
O10   Zn11  S    
C133  C134  A    
O4    Zn8   S    
C131  C132  A    
O17   Zn4   S    
C209  C210  A    
C25   C30   A    
C33   C185  S    
C169  C170  A    
C38   C215  S    
C27   C32   A    
C217  H115  S    
C74   H10   S    
C28   C31   A    
O28   Zn9   S    
C60   O38   A    
C215  C220  A    
C71   C74   A    
O3    Zn3   S    
C168  H74   S    
C108  C136  A    
C158  H66   S    
C160  H68   S    
O44   Zn1   S    
C157  C158  A    
C111  C135  A    
O42   Zn7   S    
C202  H103  S    
C165  H72   S    
C10   C110  A    
O24   Zn13  S    
C60   O32   A    
C85   C118  A    
C76   C117  A    
C173  C174  A    
C46   O18   A    
C147  C148  A    
C53   O25   A    
O35   Zn13  S    
C87   C90   A    
C225  C226  A    
O7    Zn10  S    
O30   Zn12  S    
C19   C41   S    
C52   C118  S    
C170  C171  A    
C40   C227  S    
C54   C120  S    
C2    C18   A    
C161  C162  A    
O46   Zn4   S    
C201  C202  A    
C163  C164  A    
O21   Zn12  S    
C64   O42   A    
C168  C169  A    
C171  C172  A    
C74   C119  A    
C8    C20   A    
C62   O34   A    
C56   O28   A    
C155  C156  A    
C26   C143  S    
C150  H59   S    
O39   Zn6   S    
C193  H95   S    
C66   C127  A    
C177  H82   S    
O52   Zn6   S    
C42   O10   A    
C59   O37   A    
C93   C126  A    
C70   C123  A    
C223  C224  A    
C48   O20   A    
C7    H39   S    
O12   Zn13  S    
C221  C222  A    
C77   C116  A    
C144  C145  A    
C53   O51   A    
C192  H94   S    
C92   H28   S    
C15   C23   A    
C194  H96   S    
C93   H29   S    
C16   C24   A    
C65   C80   A    
O2    Zn2   S    
C170  H76   S    
O48   Zn2   S    
C67   C78   A    
C55   O49   A    
O2    Zn11  S    
C63   C121  S    
C37   C209  S    
C6    C18   A    
C70   H6    S    
C64   O36   A    
O37   Zn4   S    
C47   O19   A    
C159  H67   S    
C10   H42   S    
C211  H110  S    
O18   Zn3   S    
C212  C213  A    
C63   O41   A    
C157  H65   S    
C55   O27   A    
O8    Zn9   S    
C31   C103  A    
C49   O47   A    
C176  H81   S    
C106  C134  A    
C140  C141  A    
C153  H62   S    
C221  C226  A    
C188  C189  A    
C187  H90   S    
C86   H22   S    
C206  C207  A    
C199  H100  S    
C26   C98   A    
C226  H123  S    
C84   C115  A    
C91   C124  A    
C32   C179  S    
C139  C140  A    
C39   C221  S    
O26   Zn15  S    
C205  C206  A    
C78   H14   S    
C79   H15   S    
C227  C228  A    
C163  H70   S    
C196  H98   S    
C80   H16   S    
C152  C153  A    
O34   Zn16  S    
C83   C116  A    
C147  H57   S    
C53   C119  S    
C232  H128  S    
C36   C203  S    
C58   C124  S    
C99   C131  A    
O47   Zn1   S    
C174  C175  A    
O3    Zn14  S    
C60   C126  S    
C228  H124  S    
C97   C129  A    
C87   C120  A    
O1    Zn16  S    
C62   C128  S    
C3    H35   S    
C71   H7    S    
C64   C122  S    
C1    H33   S    
C195  C196  A    
C50   C116  S    
C145  C146  A    
C16   C108  A    
C43   O7    A    
C209  C214  A    
C82   H18   S    
C31   C173  S    
C26   C29   A    
C45   O17   A    
C79   C114  A    
C56   C114  S    
C171  H77   S    
C189  C190  A    
C191  C196  A    
