data_mof_unit_21321.cif
_audit_creation_date              2012-12-11T16:26:15-0500
_audit_creation_method            fapswitch 2.2
_symmetry_space_group_name_H-M    P1
_symmetry_Int_Tables_number       1
_space_group_crystal_system       triclinic
_cell_length_a                    14.003306
_cell_length_b                    14.003328
_cell_length_c                    31.994447
_cell_angle_alpha                 90.00088
_cell_angle_beta                  90.000161
_cell_angle_gamma                 120.000285
_cell_volume                      5433.32686946

loop_
_atom_site_label
_atom_site_type_symbol
_atom_type_description
_atom_site_fract_x
_atom_site_fract_y
_atom_site_fract_z
_atom_type_partial_charge
C1    C     C_R   0.567809 0.443945 0.810568 0.576412
C2    C     C_R   0.876129 0.432186 0.689429 0.576335
C3    C     C_R   0.556055 0.123865 0.810569 0.576351
C4    C     C_R   0.567815 0.443938 0.689428 0.576412
C5    C     C_R   0.876151 0.432199 0.810565 0.576319
C6    C     C_R   0.556058 0.123872 0.689428 0.576329
C7    C     C_R   0.443940 0.567817 0.310572 0.576415
C8    C     C_R   0.432179 0.876116 0.189426 0.576383
C9    C     C_R   0.123875 0.556061 0.310572 0.576347
C10   C     C_R   0.443934 0.567821 0.189425 0.576403
C11   C     C_R   0.432186 0.876130 0.310572 0.576322
C12   C     C_R   0.123884 0.556061 0.189424 0.576322
C13   C     C_1   0.004178 0.519816 0.018608 0.075239
C14   C     C_1   0.516060 0.996520 0.481309 0.075345
C15   C     C_1   0.480432 0.484231 0.018652 0.075389
C16   C     C_1   0.003465 0.519506 0.481308 0.075331
C17   C     C_1   0.515877 0.996349 0.018669 0.075446
C18   C     C_1   0.480551 0.484034 0.481309 0.075403
C19   C     C_1   0.519509 0.003408 0.518698 0.075332
C20   C     C_1   0.997283 0.516432 0.981219 0.075258
C21   C     C_1   0.484002 0.480575 0.518697 0.075402
C22   C     C_1   0.519340 0.003259 0.981282 0.075382
C23   C     C_1   0.996566 0.516054 0.518697 0.075341
C24   C     C_1   0.483875 0.480750 0.981266 0.075328
C25   C     C_R   0.929624 0.470200 0.851781 -0.014985
C26   C     C_R   0.540653 0.070552 0.648183 -0.014983
C27   C     C_R   0.529871 0.459362 0.851803 -0.014950
C28   C     C_R   0.929454 0.470096 0.648184 -0.014958
C29   C     C_R   0.540633 0.070517 0.851807 -0.014974
C30   C     C_R   0.529913 0.459324 0.648180 -0.014944
C31   C     C_R   0.470097 0.929458 0.351817 -0.014979
C32   C     C_R   0.070699 0.540697 0.148152 -0.014969
C33   C     C_R   0.459332 0.529924 0.351822 -0.014940
C34   C     C_R   0.470048 0.929359 0.148168 -0.014937
C35   C     C_R   0.070577 0.540667 0.351821 -0.014973
C36   C     C_R   0.459288 0.529972 0.148161 -0.014951
C37   C     C_R   0.906269 0.541088 0.875029 -0.187590
C38   C     C_R   0.634937 0.093980 0.624949 -0.187589
C39   C     C_R   0.459186 0.365088 0.875073 -0.187587
C40   C     C_R   0.906048 0.540967 0.624950 -0.187583
C41   C     C_R   0.634905 0.094015 0.875062 -0.187577
C42   C     C_R   0.459224 0.365030 0.624917 -0.187585
C43   C     C_R   0.541034 0.906119 0.375041 -0.187584
C44   C     C_R   0.094160 0.635002 0.124927 -0.187579
C45   C     C_R   0.365040 0.459203 0.375078 -0.187583
C46   C     C_R   0.540747 0.905756 0.124912 -0.187595
C47   C     C_R   0.094076 0.634957 0.375066 -0.187588
C48   C     C_R   0.364974 0.459343 0.124897 -0.187598
C49   C     C_R   0.933561 0.560621 0.917399 0.226277
C50   C     C_R   0.627268 0.066899 0.582560 0.226172
C51   C     C_R   0.439764 0.372829 0.917454 0.226202
C52   C     C_R   0.933115 0.560361 0.582560 0.226163
C53   C     C_R   0.627191 0.066894 0.917448 0.226227
C54   C     C_R   0.439845 0.372726 0.582528 0.226144
C55   C     C_R   0.560431 0.933175 0.417432 0.226162
C56   C     C_R   0.067329 0.627409 0.082514 0.226169
C57   C     C_R   0.372726 0.439835 0.417469 0.226134
C58   C     C_R   0.560084 0.932760 0.082516 0.226133
C59   C     C_R   0.067012 0.627285 0.417456 0.226167
C60   C     C_R   0.372633 0.440049 0.082496 0.226119
C61   C     C_R   0.986710 0.509989 0.936562 0.038640
C62   C     C_R   0.523537 0.013889 0.563358 0.038629
C63   C     C_R   0.490299 0.476619 0.936609 0.038628
C64   C     C_R   0.986088 0.509604 0.563357 0.038636
C65   C     C_R   0.523426 0.013777 0.936623 0.038635
C66   C     C_R   0.490421 0.476491 0.563356 0.038641
C67   C     C_R   0.509606 0.986064 0.436648 0.038629
C68   C     C_R   0.014565 0.523722 0.063272 0.038627
C69   C     C_R   0.476482 0.490458 0.436650 0.038634
C70   C     C_R   0.509448 0.985873 0.063329 0.038700
C71   C     C_R   0.013950 0.523544 0.436648 0.038632
C72   C     C_R   0.476384 0.490654 0.063312 0.038678
C73   C     C_R   0.020276 0.446253 0.912872 0.201106
C74   C     C_R   0.426185 0.980267 0.587024 0.201128
C75   C     C_R   0.553838 0.573936 0.912903 0.201211
C76   C     C_R   0.019693 0.445861 0.587023 0.201176
C77   C     C_R   0.426097 0.980083 0.912933 0.201136
C78   C     C_R   0.553967 0.573832 0.587051 0.201216
C79   C     C_R   0.445797 0.019608 0.412994 0.201148
C80   C     C_R   0.980928 0.426322 0.086917 0.201199
C81   C     C_R   0.573828 0.554044 0.412963 0.201239
C82   C     C_R   0.445871 0.019650 0.087013 0.201268
C83   C     C_R   0.980267 0.426192 0.412973 0.201160
C84   C     C_R   0.573748 0.554166 0.087001 0.201235
C85   C     C_R   0.990806 0.425974 0.870121 0.282229
C86   C     C_R   0.435286 0.009510 0.629798 0.282147
C87   C     C_R   0.574005 0.564764 0.870138 0.282253
C88   C     C_R   0.990465 0.425739 0.629798 0.282186
C89   C     C_R   0.435244 0.009369 0.870163 0.282178
C90   C     C_R   0.574097 0.564706 0.629823 0.282205
C91   C     C_R   0.425679 0.990400 0.370217 0.282168
C92   C     C_R   0.009854 0.435363 0.129724 0.282135
C93   C     C_R   0.564710 0.574161 0.370189 0.282226
C94   C     C_R   0.425797 0.990476 0.129794 0.282199
C95   C     C_R   0.009491 0.435298 0.370197 0.282168
C96   C     C_R   0.564655 0.574196 0.129788 0.282170
Cr1   Cr    Cr6+3 0.504240 0.249200 0.750000 1.086535
Cr2   Cr    Cr6+3 0.744960 0.495760 0.750000 1.086452
Cr3   Cr    Cr6+3 0.750800 0.255040 0.750000 1.086502
Cr4   Cr    Cr6+3 0.249200 0.504240 0.250000 1.086531
Cr5   Cr    Cr6+3 0.495760 0.744960 0.250000 1.086447
Cr6   Cr    Cr6+3 0.255040 0.750800 0.250000 1.086478
H1    H     H_    0.860179 0.576030 0.860974 0.155104
H2    H     H_    0.715937 0.139965 0.639037 0.155212
H3    H     H_    0.424325 0.284061 0.861020 0.155130
H4    H     H_    0.860090 0.576007 0.639040 0.155170
H5    H     H_    0.715921 0.140084 0.860995 0.155158
H6    H     H_    0.424328 0.284018 0.638985 0.155185
H7    H     H_    0.576128 0.860221 0.360941 0.155186
H8    H     H_    0.139980 0.715973 0.139046 0.155216
H9    H     H_    0.284031 0.424268 0.361004 0.155179
H10   H     H_    0.575689 0.859695 0.138991 0.155145
H11   H     H_    0.140101 0.715958 0.360983 0.155226
H12   H     H_    0.283972 0.424426 0.138975 0.155223
O1    O     O_R   0.480350 0.140770 0.796330 -0.442783
O2    O     O_R   0.660420 0.519650 0.703670 -0.442788
O3    O     O_R   0.859230 0.339580 0.796330 -0.442745
O4    O     O_R   0.480350 0.140770 0.703670 -0.442740
O5    O     O_R   0.660420 0.519650 0.796330 -0.442793
O6    O     O_R   0.859230 0.339580 0.703670 -0.442723
O7    O     O_R   0.140770 0.480350 0.296330 -0.442770
O8    O     O_R   0.519650 0.660420 0.203670 -0.442825
O9    O     O_R   0.339580 0.859230 0.296330 -0.442694
O10   O     O_R   0.140770 0.480350 0.203670 -0.442735
O11   O     O_R   0.519650 0.660420 0.296330 -0.442775
O12   O     O_R   0.339580 0.859230 0.203670 -0.442798
O13   O     O_R   0.514930 0.348530 0.793250 -0.514947
O14   O     O_R   0.833600 0.485070 0.706750 -0.514995
O15   O     O_R   0.651470 0.166400 0.793250 -0.514952
O16   O     O_R   0.514930 0.348530 0.706750 -0.514949
O17   O     O_R   0.833600 0.485070 0.793250 -0.514973
O18   O     O_R   0.651470 0.166400 0.706750 -0.514971
O19   O     O_R   0.348530 0.514930 0.293250 -0.514948
O20   O     O_R   0.485070 0.833600 0.206750 -0.514973
O21   O     O_R   0.166400 0.651470 0.293250 -0.514948
O22   O     O_R   0.348530 0.514930 0.206750 -0.514935
O23   O     O_R   0.485070 0.833600 0.293250 -0.514984
O24   O     O_R   0.166400 0.651470 0.206750 -0.514986
O25   O     O_3   0.666667 0.333333 0.750000 -0.286970
O26   O     O_3   0.333333 0.666667 0.250000 -0.286992
O27   O     O_3   0.096454 0.720585 0.058778 -0.636994
H13   H     H_    0.134070 0.786793 0.076871 0.345823
O28   O     O_3   0.624536 0.904142 0.441178 -0.636903
H14   H     H_    0.653047 0.866415 0.423104 0.345803
O29   O     O_3   0.279477 0.376255 0.058715 -0.637131
H15   H     H_    0.213215 0.347897 0.076768 0.345845
O30   O     O_3   0.096200 0.720426 0.441222 -0.636942
H16   H     H_    0.134066 0.786683 0.423166 0.345835
O31   O     O_3   0.623945 0.903475 0.058740 -0.637091
H17   H     H_    0.652320 0.865588 0.076794 0.345767
O32   O     O_3   0.279589 0.375958 0.441247 -0.637046
H18   H     H_    0.213320 0.347596 0.423197 0.345793
O33   O     O_3   0.720408 0.096021 0.558803 -0.636911
H19   H     H_    0.786659 0.133846 0.576865 0.345816
O34   O     O_3   0.904504 0.624655 0.941178 -0.636844
H20   H     H_    0.866565 0.653010 0.923143 0.345729
O35   O     O_3   0.376004 0.279591 0.558743 -0.637041
H21   H     H_    0.347671 0.213316 0.576788 0.345802
O36   O     O_3   0.720310 0.096080 0.941227 -0.636987
H22   H     H_    0.786586 0.133974 0.923181 0.345734
O37   O     O_3   0.904016 0.624396 0.558803 -0.636939
H23   H     H_    0.866220 0.652848 0.576868 0.345790
O38   O     O_3   0.375926 0.279718 0.941250 -0.637020
H24   H     H_    0.347620 0.213423 0.923217 0.345758
O39   O     O_3   0.981450 0.343399 0.154169 -0.645863
H25   H     H_    0.938352 0.275299 0.137616 0.384778
O40   O     O_3   0.362012 0.018665 0.345773 -0.645858
H26   H     H_    0.337042 0.061814 0.362312 0.384733
O41   O     O_3   0.656589 0.637582 0.154269 -0.645826
H27   H     H_    0.724714 0.662469 0.137742 0.384744
O42   O     O_3   0.981099 0.343371 0.345732 -0.645859
H28   H     H_    0.937826 0.275244 0.362254 0.384734
O43   O     O_3   0.362344 0.018954 0.154269 -0.645845
H29   H     H_    0.337488 0.062226 0.137746 0.384739
O44   O     O_3   0.656630 0.637636 0.345714 -0.645846
H30   H     H_    0.724763 0.662515 0.362236 0.384720
O45   O     O_3   0.343356 0.981177 0.654253 -0.645849
H31   H     H_    0.275233 0.937945 0.637723 0.384736
O46   O     O_3   0.019056 0.362342 0.845648 -0.645820
H32   H     H_    0.062397 0.337526 0.862147 0.384728
O47   O     O_3   0.637532 0.656623 0.654306 -0.645836
H33   H     H_    0.662298 0.724758 0.637798 0.384725
O48   O     O_3   0.343338 0.980972 0.845685 -0.645831
H34   H     H_    0.275196 0.937672 0.862196 0.384734
O49   O     O_3   0.018782 0.362131 0.654253 -0.645850
H35   H     H_    0.061946 0.337173 0.637716 0.384731
O50   O     O_3   0.637431 0.656656 0.845644 -0.645814
H36   H     H_    0.662174 0.724809 0.862139 0.384727
O51   O     O_3   0.924116 0.322247 0.069210 -0.683496
H37   H     H_    0.898417 0.326372 0.040831 0.345677
O52   O     O_3   0.398693 0.076587 0.430678 -0.683501
H38   H     H_    0.429279 0.103120 0.458908 0.345604
O53   O     O_3   0.677850 0.601046 0.069347 -0.683483
H39   H     H_    0.673751 0.570611 0.041085 0.345602
O54   O     O_3   0.923131 0.322094 0.430635 -0.683496
H40   H     H_    0.896656 0.326168 0.458874 0.345581
O55   O     O_3   0.398956 0.076837 0.069357 -0.683463
H41   H     H_    0.429486 0.103281 0.041113 0.345603
O56   O     O_3   0.677934 0.600922 0.430614 -0.683466
H42   H     H_    0.673857 0.570281 0.458836 0.345577
O57   O     O_3   0.322093 0.923178 0.569353 -0.683497
H43   H     H_    0.326155 0.896630 0.541126 0.345585
O58   O     O_3   0.077515 0.399364 0.930503 -0.683590
H44   H     H_    0.104316 0.430181 0.958687 0.345482
O59   O     O_3   0.600800 0.677943 0.569408 -0.683468
H45   H     H_    0.570125 0.673863 0.541192 0.345556
O60   O     O_3   0.321980 0.922880 0.930577 -0.683498
H46   H     H_    0.326031 0.896322 0.958802 0.345588
O61   O     O_3   0.076755 0.398830 0.569352 -0.683512
H47   H     H_    0.103276 0.429407 0.541119 0.345584
O62   O     O_3   0.600631 0.678068 0.930527 -0.683512
H48   H     H_    0.569979 0.674012 0.958745 0.345552

loop_
_geom_bond_atom_site_label_1
_geom_bond_atom_site_label_2
_ccdc_geom_bond_type
C76   O61   S    
C68   C80   A    
C39   C51   A    
O58   H44   S    
O35   H21   S    
C82   C94   A    
C46   H10   S    
C21   C66   S    
C18   C21   T    
C33   C45   A    
C80   O51   S    
O30   H16   S    
Cr1   O13   S    
C35   C47   A    
C29   C89   A    
O37   H23   S    
Cr2   O5    S    
C32   C92   A    
Cr5   O20   S    
C78   C90   A    
C15   C72   S    
C73   O58   S    
C45   C57   A    
O39   H25   S    
C31   C43   A    
Cr3   O18   S    
C89   O48   S    
C91   O40   S    
C10   O22   A    
Cr1   O16   S    
C7    O19   A    
C77   O60   S    
Cr6   O24   S    
C75   C87   A    
C9    C35   S    
C60   C72   A    
C19   C62   S    
O28   H14   S    
O47   H33   S    
C9    O7    A    
Cr1   O4    S    
C81   C93   A    
C39   H3    S    
Cr4   O7    S    
O57   H43   S    
C20   C61   S    
C3    C29   S    
C36   C96   A    
Cr6   O21   S    
C38   H2    S    
Cr4   O26   S    
C25   C37   A    
Cr3   O6    S    
C92   O39   S    
O36   H22   S    
C27   C39   A    
C85   O46   S    
Cr2   O17   S    
C28   C88   A    
Cr5   O11   S    
O32   H18   S    
C51   O38   S    
C34   C46   A    
Cr1   O1    S    
C53   C65   A    
C76   C88   A    
C79   C91   A    
C58   O31   S    
C30   C90   A    
C52   O37   S    
C42   H6    S    
C18   C69   S    
Cr2   O14   S    
C11   C31   S    
O56   H42   S    
C79   O52   S    
C12   C32   S    
Cr5   O8    S    
C7    C33   S    
Cr3   O25   S    
O55   H41   S    
C16   C71   S    
Cr5   O26   S    
C49   O34   S    
C48   C60   A    
C40   H4    S    
C71   C83   A    
C64   C76   A    
C66   C78   A    
C11   O9    A    
C53   O36   S    
C55   O28   S    
C38   C50   A    
Cr3   O15   S    
C8    O20   A    
O60   H46   S    
O41   H27   S    
C1    O13   A    
C65   C77   A    
C82   O55   S    
C6    O18   A    
C52   C64   A    
O40   H26   S    
C37   H1    S    
Cr5   O23   S    
C58   C70   A    
C4    O16   A    
C87   O50   S    
C61   C73   A    
C6    O4    A    
O43   H29   S    
C93   O44   S    
C86   O45   S    
C7    O11   A    
O52   H38   S    
C5    O3    A    
Cr4   O10   S    
C80   C92   A    
O48   H34   S    
C3    O1    A    
C22   C65   S    
C1    O5    A    
Cr3   O3    S    
C77   C89   A    
C37   C49   A    
C44   C56   A    
Cr2   O2    S    
O62   H48   S    
C12   O10   A    
C90   O47   S    
C84   O53   S    
C26   C86   A    
C62   C74   A    
C75   O62   S    
C25   C85   A    
O61   H47   S    
C32   C44   A    
C67   C79   A    
C8    C34   S    
C83   C95   A    
C74   C86   A    
C27   C87   A    
O42   H28   S    
C41   C53   A    
C72   C84   A    
O45   H31   S    
C5    C25   S    
C56   O27   S    
C9    O21   A    
C43   C55   A    
C88   O49   S    
Cr6   O26   S    
C24   C63   S    
C31   C91   A    
C96   O41   S    
C17   C70   S    
C50   C62   A    
C12   O24   A    
C60   O29   S    
Cr6   O9    S    
C84   C96   A    
O29   H15   S    
Cr4   O19   S    
C48   H12   S    
C73   C85   A    
C8    O12   A    
C47   H11   S    
C51   C63   A    
O59   H45   S    
C23   C64   S    
C2    O6    A    
C41   H5    S    
C13   C20   T    
C29   C41   A    
C3    O15   A    
C14   C19   T    
C4    O2    A    
C26   C38   A    
C34   C94   A    
Cr6   O12   S    
C33   C93   A    
C81   O56   S    
C55   C67   A    
C45   H9    S    
C54   C66   A    
C74   O57   S    
C35   C95   A    
O46   H32   S    
C16   C23   T    
C17   C22   T    
C2    O14   A    
Cr2   O25   S    
C56   C68   A    
C11   O23   A    
C78   O59   S    
O50   H36   S    
O44   H30   S    
C40   C52   A    
O27   H13   S    
C42   C54   A    
C15   C24   T    
C49   C61   A    
O49   H35   S    
C6    C26   S    
C63   C75   A    
C14   C67   S    
C57   O32   S    
C10   C36   S    
C36   C48   A    
C50   O33   S    
C83   O54   S    
O51   H37   S    
C70   C82   A    
C4    C30   S    
O38   H24   S    
C69   C81   A    
C94   O43   S    
C47   C59   A    
O54   H40   S    
C10   O8    A    
C5    O17   A    
O53   H39   S    
C44   H8    S    
O34   H20   S    
C1    C27   S    
C28   C40   A    
C30   C42   A    
C2    C28   S    
C43   H7    S    
C57   C69   A    
O33   H19   S    
O31   H17   S    
C95   O42   S    
Cr1   O25   S    
C46   C58   A    
Cr4   O22   S    
C59   C71   A    
C54   O35   S    
C13   C68   S    
C59   O30   S    
