data_mof_unit_66422.cif
_audit_creation_date              2013-03-05T16:42:32-0500
_audit_creation_method            fapswitch 2.2
_symmetry_space_group_name_H-M    P1
_symmetry_Int_Tables_number       1
_space_group_crystal_system       triclinic
_cell_length_a                    17.771725
_cell_length_b                    16.566719
_cell_length_c                    19.37433
_cell_angle_alpha                 89.997568
_cell_angle_beta                  93.535062
_cell_angle_gamma                 89.997053
_cell_volume                      5693.32062601

loop_
_atom_site_label
_atom_site_type_symbol
_atom_site_description
_atom_site_fract_x
_atom_site_fract_y
_atom_site_fract_z
_atom_type_partial_charge
O1    O     O_R   0.391260 0.567930 0.500000 -0.518763
O2    O     O_R   0.608740 0.432070 0.500000 -0.518763
O3    O     O_R   0.608740 0.567930 0.500000 -0.518755
O4    O     O_R   0.391260 0.432070 0.500000 -0.518757
C1    C     C_R   0.355640 0.500002 0.504764 0.873512
C2    C     C_R   0.644358 0.499998 0.495229 0.873529
O5    O     O_R   0.499990 0.567930 0.400140 -0.565349
O6    O     O_R   0.500010 0.432070 0.599860 -0.565394
O7    O     O_R   0.500010 0.567930 0.599860 -0.565417
O8    O     O_R   0.499990 0.432070 0.400140 -0.565434
C3    C     C_R   0.502091 0.500001 0.367376 0.819140
C4    C     C_R   0.497904 0.499999 0.632623 0.819129
Cu1   Cu    Cu3+1 0.500000 0.580420 0.500000 1.121147
Cu2   Cu    Cu3+1 0.500000 0.419580 0.500000 1.121092
C5    C     C_R   0.509453 0.572925 0.255119 -0.104848
C6    C     C_R   0.490531 0.427079 0.744880 -0.105007
C7    C     C_R   0.490444 0.572918 0.744867 -0.104861
C8    C     C_R   0.509500 0.427086 0.255126 -0.104999
H1    H     H_    0.511807 0.629923 0.282013 0.215207
H2    H     H_    0.488199 0.370080 0.717989 0.215184
H3    H     H_    0.488039 0.629914 0.717965 0.215142
H4    H     H_    0.511892 0.370089 0.282025 0.215137
C9    C     C_R   0.509527 0.573071 0.183197 -0.124451
C10   C     C_R   0.490437 0.426936 0.816801 -0.124434
C11   C     C_R   0.490350 0.573064 0.816789 -0.124443
C12   C     C_R   0.509575 0.426943 0.183203 -0.124419
H5    H     H_    0.510187 0.630492 0.156546 0.177896
H6    H     H_    0.489786 0.369516 0.843453 0.177900
H7    H     H_    0.489628 0.630484 0.843432 0.177879
H8    H     H_    0.510273 0.369523 0.156558 0.177891
C13   C     C_R   0.508156 0.500007 0.146400 0.027619
C14   C     C_R   0.491780 0.500002 0.853595 0.027625
C15   C     C_R   0.506783 0.500004 0.291653 -0.060953
C16   C     C_R   0.493193 0.499999 0.708345 -0.060947
N1    N     N_R   0.502202 0.429523 0.034390 -0.214878
N2    N     N_R   0.497722 0.570488 0.965605 -0.214872
N3    N     N_R   0.497788 0.429521 0.965613 -0.214878
N4    N     N_R   0.502137 0.570489 0.034382 -0.214871
C17   C     C_R   0.495349 0.500004 0.929833 0.429094
C18   C     C_R   0.504577 0.500007 0.070162 0.429096
C19   C     C_R   0.846924 0.572860 0.491128 -0.182392
C20   C     C_R   0.153023 0.427233 0.508654 -0.182416
C21   C     C_R   0.153058 0.572867 0.508762 -0.182395
C22   C     C_R   0.846984 0.427226 0.491368 -0.182419
H9    H     H_    0.878055 0.629107 0.490268 0.190278
H10   H     H_    0.121854 0.371002 0.509372 0.190264
H11   H     H_    0.121917 0.629115 0.509565 0.190274
H12   H     H_    0.878162 0.370994 0.490696 0.190267
C23   C     C_R   0.768145 0.573992 0.485623 0.319812
C24   C     C_R   0.231800 0.426036 0.514165 0.319722
C25   C     C_R   0.231836 0.574008 0.514276 0.319786
C26   C     C_R   0.768207 0.426021 0.485868 0.319696
C27   C     C_R   0.727320 0.499998 0.487638 -0.278720
C28   C     C_R   0.272676 0.500012 0.512338 -0.278721
C29   C     C_R   0.885818 0.500063 0.495017 -0.004272
C30   C     C_R   0.114176 0.500065 0.504936 -0.004269
C31   C     C_1   0.966239 0.500088 0.498577 0.037108
C32   C     C_1   0.033755 0.500087 0.501372 0.037107
C33   C     C_R   0.536717 0.830468 0.553348 -0.242266
C34   C     C_R   0.463323 0.169520 0.446643 -0.242240
C35   C     C_R   0.463284 0.830487 0.446669 -0.242237
C36   C     C_R   0.536676 0.169513 0.553361 -0.242228
H13   H     H_    0.566167 0.862960 0.595398 0.200314
H14   H     H_    0.433903 0.137019 0.404582 0.200363
H15   H     H_    0.433838 0.862996 0.404624 0.200340
H16   H     H_    0.566093 0.137004 0.595423 0.200377
C37   C     C_R   0.537046 0.744916 0.553189 0.495727
C38   C     C_R   0.462996 0.255074 0.446790 0.495706
C39   C     C_R   0.462960 0.744935 0.446812 0.495778
C40   C     C_R   0.537003 0.255066 0.553212 0.495731
N5    N     N_R   0.500000 0.701220 0.500000 -0.279385
N6    N     N_R   0.500000 0.298780 0.500000 -0.279341
C41   C     C_R   0.499998 0.874107 0.500012 -0.004594
C42   C     C_R   0.499999 0.125887 0.500003 -0.004635
C43   C     C_1   0.499999 0.963008 0.500012 0.064507
C44   C     C_1   0.499999 0.036986 0.500007 0.064495
N7    N     N_R   0.731393 0.650339 0.473601 0.160715
O9    O     O_R   0.755516 0.713812 0.507800 -0.297427
O10   O     O_R   0.686654 0.660198 0.418489 -0.343110
N8    N     N_R   0.268495 0.349624 0.525992 0.160761
O11   O     O_R   0.244351 0.286298 0.491598 -0.297340
O12   O     O_R   0.313162 0.339523 0.581117 -0.342960
N9    N     N_R   0.268570 0.650373 0.526222 0.160728
O13   O     O_R   0.244452 0.713792 0.491937 -0.297402
O14   O     O_R   0.313269 0.660318 0.581347 -0.343084
N10   N     N_R   0.731526 0.349596 0.474110 0.160782
O15   O     O_R   0.755688 0.286307 0.508555 -0.297317
O16   O     O_R   0.686867 0.339431 0.418989 -0.342934
N11   N     N_R   0.576367 0.706330 0.610990 0.132296
O17   O     O_R   0.568867 0.735325 0.672608 -0.379321
O18   O     O_R   0.635440 0.662667 0.601397 -0.291559
N12   N     N_R   0.423730 0.293643 0.388947 0.132249
O19   O     O_R   0.431188 0.264550 0.327356 -0.379333
O20   O     O_R   0.364748 0.337468 0.398489 -0.291445
N13   N     N_R   0.423669 0.706373 0.388986 0.132248
O21   O     O_R   0.431128 0.735448 0.327387 -0.379317
O22   O     O_R   0.364658 0.662607 0.398551 -0.291546
N14   N     N_R   0.576259 0.293623 0.611062 0.132228
O23   O     O_R   0.568823 0.264497 0.672647 -0.379346
O24   O     O_R   0.635215 0.337485 0.601526 -0.291411

loop_
_geom_bond_atom_site_label_1
_geom_bond_atom_site_label_2
_geom_bond_distance
_ccdc_geom_bond_type
C22   H12   1.084372 S    
N13   O21   1.301291 A    
C8    C12   1.393529 A    
O3    C2    1.297277 A    
N7    O9    1.301388 A    
O5    C3    1.293726 A    
C24   C28   1.426240 A    
C42   C44   1.472796 S    
O1    C1    1.297267 A    
N1    N3    1.329976 A    
N10   O16   1.301620 A    
C37   N11   1.433324 S    
C13   C18   1.474507 S    
C36   C40   1.417352 A    
C20   H10   1.084366 S    
C14   C17   1.474509 S    
C34   C42   1.390300 A    
C39   N5    1.391370 A    
O7    Cu1   1.945733 S    
C19   C29   1.389762 A    
C33   C37   1.417342 A    
C23   N7    1.435886 S    
C9    H5    1.082763 S    
N11   O18   1.297660 A    
C33   C41   1.390333 A    
O3    Cu1   1.943533 S    
O6    C4    1.293735 A    
C20   C30   1.389760 A    
C22   C26   1.397626 A    
C11   C14   1.404251 A    
C5    C9    1.393530 A    
C12   C13   1.404251 A    
C6    C10   1.393523 A    
Cu1   Cu2   2.664593 S    
C41   C43   1.472795 S    
O2    C2    1.297262 A    
C19   C23   1.397644 A    
C8    C15   1.402402 A    
N7    O10   1.301625 A    
C11   H7    1.082764 S    
C36   H16   1.083911 S    
C1    C28   1.490691 S    
C3    C15   1.474584 S    
N8    O12   1.301619 A    
O8    Cu2   1.945735 S    
N10   O15   1.301391 A    
N8    O11   1.301391 A    
Cu1   N5    2.001258 S    
C35   C41   1.390317 A    
C7    H3    1.078092 S    
C38   N6    1.391414 A    
C9    C13   1.404250 A    
C5    H1    1.078075 S    
C43   C44   1.225586 T    
C10   C14   1.404249 A    
N9    O13   1.301391 A    
C6    H2    1.078064 S    
C6    C16   1.402394 A    
N12   O20   1.297652 A    
C20   C24   1.397632 A    
N9    O14   1.301620 A    
C12   H8    1.082762 S    
N14   O24   1.297644 A    
C29   C31   1.426624 S    
O1    Cu1   1.943556 S    
C7    C16   1.402410 A    
C2    C27   1.490688 S    
C4    C16   1.474586 S    
C25   N9    1.435879 S    
C26   C27   1.426237 A    
C35   C39   1.417336 A    
O6    Cu2   1.945750 S    
C8    H4    1.078080 S    
Cu2   N6    2.001258 S    
N2    C17   1.357233 A    
C10   H6    1.082762 S    
O4    C1    1.297274 A    
C39   N13   1.433350 S    
C24   N8    1.435871 S    
N13   O22   1.297653 A    
C33   H13   1.083913 S    
C34   H14   1.083910 S    
C25   C28   1.426251 A    
C7    C11   1.393533 A    
N2    N4    1.329978 A    
N1    C18   1.357230 A    
N3    C17   1.357233 A    
N4    C18   1.357233 A    
C22   C29   1.389759 A    
C21   C25   1.397636 A    
C31   C32   1.197762 T    
C23   C27   1.426242 A    
C26   N10   1.435864 S    
N12   O19   1.301291 A    
C38   N12   1.433368 S    
C30   C32   1.426623 S    
C37   N5    1.391356 A    
O4    Cu2   1.943535 S    
O2    Cu2   1.943554 S    
O7    C4    1.293716 A    
O8    C3    1.293725 A    
C35   H15   1.083910 S    
C21   C30   1.389755 A    
O5    Cu1   1.945752 S    
C34   C38   1.417359 A    
N14   O23   1.301292 A    
C19   H9    1.084366 S    
C36   C42   1.390285 A    
C40   N6    1.391425 A    
N11   O17   1.301284 A    
C21   H11   1.084371 S    
C5    C15   1.402400 A    
C40   N14   1.433384 S    
