data_mof_unit_58997.cif
_audit_creation_date              2012-10-26T19:37:00-0400
_audit_creation_method            fapswitch 2.2
_symmetry_space_group_name_H-M    P1
_symmetry_Int_Tables_number       1
_space_group_crystal_system       triclinic
_cell_length_a                    10.883533
_cell_length_b                    17.694699
_cell_length_c                    16.493019
_cell_angle_alpha                 89.051397
_cell_angle_beta                  91.873811
_cell_angle_gamma                 91.377952
_cell_volume                      3173.2277341

loop_
_atom_site_label
_atom_site_type_symbol
_atom_type_description
_atom_site_fract_x
_atom_site_fract_y
_atom_site_fract_z
_atom_type_partial_charge
C1    C     C_R   0.499371 0.355225 0.500549 0.536012
C2    C     C_R   0.485302 0.232841 0.427988 -0.131101
C3    C     C_R   0.495849 0.727185 0.499258 0.004706
C4    C     C_R   0.496711 0.272137 0.501357 -0.003923
C5    C     C_R   0.437594 0.766661 0.434926 -0.146671
C6    C     C_R   0.504661 0.231264 0.575074 -0.124382
C7    C     C_R   0.434028 0.845400 0.435809 -0.117464
C8    C     C_R   0.501066 0.152424 0.575271 -0.110130
C9    C     C_R   0.488838 0.884829 0.500867 0.037959
C10   C     C_R   0.489700 0.113980 0.501929 0.034787
C11   C     C_1   0.487562 0.965499 0.501305 -0.023152
C12   C     C_R   0.498827 0.644554 0.499516 0.532029
C13   C     C_1   0.487912 0.033253 0.501818 -0.022279
C14   C     C_R   0.544016 0.562453 0.828830 -0.208870
C15   C     C_R   0.418555 0.455021 0.169912 -0.184451
C16   C     C_R   0.261937 0.502539 0.498344 0.538499
C17   C     C_R   0.738207 0.501147 0.501375 0.545514
C18   C     C_R   0.546581 0.560609 0.743392 -0.018481
C19   C     C_R   0.418778 0.455463 0.255413 -0.016921
C20   C     C_R   0.450102 0.439256 0.743791 0.420281
C21   C     C_R   0.585774 0.544112 0.258513 0.420866
C22   C     C_R   0.458481 0.435655 0.830475 0.278647
C23   C     C_R   0.871996 0.503612 0.503037 -0.007633
C24   C     C_R   0.595275 0.539927 0.172298 0.220848
C25   C     C_R   0.500368 0.499872 0.873599 -0.000481
C26   C     C_R   0.504742 0.498789 0.127093 -0.003671
C27   C     C_1   0.500212 0.501318 0.963119 0.116333
C28   C     C_1   0.500790 0.500084 0.037508 0.120556
C29   C     C_R   0.164417 0.558042 0.217624 0.259490
C30   C     C_R   0.841306 0.468556 0.783709 0.232824
C31   C     C_R   0.147757 0.557498 0.301534 -0.048779
C32   C     C_R   0.855663 0.464314 0.699938 -0.071870
C33   C     C_R   0.102391 0.492170 0.340849 -0.042481
C34   C     C_R   0.128425 0.507620 0.495348 -0.006549
C35   C     C_R   0.896683 0.527843 0.655638 -0.046201
C36   C     C_R   0.075435 0.427045 0.295547 -0.109254
C37   C     C_R   0.919100 0.596506 0.695480 -0.101425
C38   C     C_R   0.087320 0.428035 0.211342 0.225839
C39   C     C_R   0.902630 0.601834 0.778888 0.236627
C40   C     C_R   0.132285 0.493690 0.172476 -0.063333
C41   C     C_R   0.867245 0.536873 0.823199 -0.078092
C42   C     C_R   0.928658 0.494553 0.429066 -0.137181
C43   C     C_R   0.071668 0.521111 0.568362 -0.156569
C44   C     C_3   0.270436 0.378891 0.703057 0.040213
C45   C     C_R   0.944678 0.518209 0.573763 -0.033475
C46   C     C_3   0.218755 0.321853 0.641401 -0.253113
C47   C     C_3   0.078815 0.316124 0.641750 -0.468927
C48   C     C_3   0.652208 0.663644 0.295129 0.051095
C49   C     C_3   0.745244 0.705879 0.350351 -0.248833
C50   C     C_3   0.740530 0.791248 0.336493 -0.471118
C51   C     C_3   0.947751 0.369340 0.124752 0.042779
C52   C     C_3   0.838754 0.355562 0.180567 -0.280662
C53   C     C_3   0.718879 0.340996 0.132116 -0.411659
C54   C     C_3   0.838278 0.703302 0.850113 0.036440
C55   C     C_3   0.769510 0.749456 0.784229 -0.292111
C56   C     C_R   0.055492 0.497128 0.423709 -0.026914
C57   C     C_3   0.663626 0.792087 0.819086 -0.462682
C58   C     C_R   0.546213 0.845772 0.565368 -0.107302
C59   C     C_R   0.481837 0.154101 0.428377 -0.109559
C60   C     C_R   0.549189 0.767157 0.564805 -0.127420
Cu1   Cu    Cu3+1 0.499990 0.499980 0.580420 0.991669
Cu2   Cu    Cu3+1 0.500010 0.500020 0.419580 0.991115
H1    H     H_    0.143961 0.493807 0.107541 0.171229
H2    H     H_    0.842008 0.410554 0.670094 0.151948
H3    H     H_    0.038488 0.376694 0.325095 0.130309
H4    H     H_    0.955684 0.645002 0.662428 0.137894
H5    H     H_    0.873726 0.485925 0.373747 0.171472
H6    H     H_    0.126630 0.532503 0.622960 0.139440
H7    H     H_    0.588793 0.876071 0.615896 0.111894
H8    H     H_    0.473253 0.124528 0.371381 0.120205
H9    H     H_    0.594236 0.737624 0.615070 0.108420
H10   H     H_    0.478776 0.262844 0.370287 0.131435
H11   H     H_    0.393852 0.736677 0.384655 0.154836
H12   H     H_    0.864895 0.539099 0.888432 0.162848
H13   H     H_    0.514034 0.260043 0.632436 0.202013
H14   H     H_    0.233848 0.435619 0.688060 0.127907
H15   H     H_    0.237782 0.361911 0.763831 0.206668
H16   H     H_    0.247559 0.339018 0.579619 0.172827
H17   H     H_    0.256566 0.265263 0.656079 0.189747
H18   H     H_    0.047247 0.300130 0.703187 0.207355
H19   H     H_    0.045268 0.272418 0.598304 0.152572
H20   H     H_    0.039155 0.370890 0.622751 0.152712
H21   H     H_    0.557577 0.677881 0.311395 0.157641
H22   H     H_    0.664730 0.684052 0.232210 0.199944
H23   H     H_    0.389149 0.875467 0.385784 0.126977
H24   H     H_    0.726427 0.692177 0.414797 0.163190
H25   H     H_    0.839506 0.687030 0.338097 0.207008
H26   H     H_    0.768392 0.806276 0.273960 0.180634
H27   H     H_    0.804737 0.820071 0.380309 0.157519
H28   H     H_    0.646427 0.811601 0.345253 0.158201
H29   H     H_    0.267805 0.312711 0.956571 0.374665
H30   H     H_    0.745235 0.552601 0.996543 0.354302
H31   H     H_    0.377580 0.716661 0.192314 0.365531
H32   H     H_    0.909744 0.293056 0.889764 0.370363
H33   H     H_    0.944732 0.325289 0.077447 0.180783
H34   H     H_    0.507556 0.121501 0.632450 0.136446
H35   H     H_    0.939435 0.424580 0.091865 0.206116
H36   H     H_    0.856846 0.305792 0.220818 0.172003
H37   H     H_    0.828034 0.405749 0.219167 0.177767
H38   H     H_    0.699746 0.388784 0.089691 0.240103
H39   H     H_    0.641620 0.334675 0.174236 0.141864
H40   H     H_    0.724416 0.288289 0.096908 0.182032
H41   H     H_    0.874246 0.742684 0.897480 0.195263
H42   H     H_    0.774837 0.662982 0.881278 0.121968
H43   H     H_    0.834502 0.790693 0.755975 0.181420
H44   H     H_    0.732223 0.711276 0.736249 0.138811
H45   H     H_    0.577586 0.612398 0.860052 0.116303
H46   H     H_    0.596401 0.751924 0.846611 0.165228
H47   H     H_    0.615765 0.824528 0.769802 0.149157
H48   H     H_    0.698896 0.832228 0.865902 0.172126
H49   H     H_    0.351595 0.419884 0.137202 0.156418
H50   H     H_    0.584950 0.608676 0.711037 0.133122
H51   H     H_    0.352736 0.420309 0.287101 0.142970
H52   H     H_    0.165916 0.608570 0.335702 0.154611
N1    N     N_R   0.499970 0.499970 0.701220 -0.236061
N2    N     N_R   0.500030 0.500030 0.298780 -0.229552
O1    O     O_R   0.499990 0.391240 0.567930 -0.442067
O2    O     O_3   0.672536 0.585181 0.303686 -0.521667
O3    O     O_2   0.419001 0.283250 0.830251 -0.241911
O4    O     O_2   0.513291 0.337859 0.952901 -0.252354
O5    O     O_3   0.281194 0.359496 0.923924 -0.549758
O6    O     O_2   0.688914 0.656245 0.086068 -0.324875
O7    O     O_2   0.832399 0.591964 0.180028 -0.236471
O8    O     O_3   0.767451 0.524972 0.047328 -0.537861
O9    O     O_2   0.264766 0.622118 0.086062 -0.278728
O10   O     O_2   0.124308 0.697779 0.163129 -0.226598
O11   O     O_3   0.342603 0.674798 0.225562 -0.583606
O12   O     O_R   0.500010 0.608760 0.432070 -0.485281
O13   O     O_2   0.756151 0.406114 0.920618 -0.279600
O14   O     O_2   0.711093 0.338981 0.793358 -0.247831
O15   O     O_3   0.933953 0.336437 0.854566 -0.528269
O16   O     O_3   0.061338 0.362834 0.168367 -0.578701
O17   O     O_3   0.940247 0.667597 0.817704 -0.546020
O18   O     O_R   0.500000 0.391270 0.432120 -0.519860
O19   O     O_R   0.500000 0.608730 0.567880 -0.515964
O20   O     O_R   0.319640 0.499990 0.567910 -0.510645
O21   O     O_R   0.680360 0.500010 0.432090 -0.462440
O22   O     O_R   0.319650 0.500020 0.432090 -0.502745
O23   O     O_R   0.680350 0.499980 0.567910 -0.501570
O24   O     O_3   0.400275 0.378502 0.701691 -0.516974
S1    S     S_3+6 0.420719 0.350597 0.884701 0.035130
S2    S     S_3+6 0.724198 0.580862 0.122090 -0.020275
S3    S     S_3+6 0.223209 0.639977 0.169510 0.015042
S4    S     S_3+6 0.805151 0.386081 0.839842 0.003285

loop_
_geom_bond_atom_site_label_1
_geom_bond_atom_site_label_2
_ccdc_geom_bond_type
C51   H35   S    
C38   C40   A    
C34   C56   A    
C23   C45   A    
C49   H25   S    
C8    H34   S    
C6    H13   S    
C39   C41   A    
O13   S4    D    
C15   C19   A    
C17   C23   S    
C23   C42   A    
C55   H43   S    
C54   H42   S    
C44   H15   S    
C35   C37   A    
C18   H50   S    
C40   H1    S    
H30   O8    S    
C46   H17   S    
C19   H51   S    
C58   C60   A    
C29   S3    S    
O10   S3    D    
C33   C36   A    
C30   S4    S    
O7    S2    D    
C9    C58   A    
C47   H20   S    
C44   H14   S    
C14   C18   A    
C3    C12   S    
C16   C34   S    
C41   H12   S    
C46   C47   S    
C50   H28   S    
C57   H47   S    
C53   H39   S    
C43   H6    S    
C22   C25   A    
Cu1   N1    S    
C31   C33   A    
C30   C41   A    
O14   S4    D    
C31   H52   S    
C50   H26   S    
C42   C56   A    
C3    C60   A    
C33   C56   S    
C44   O24   S    
O8    S2    S    
C47   H18   S    
C21   N2    A    
C2    H10   S    
C44   C46   S    
C53   H38   S    
C34   C43   A    
C55   H44   S    
Cu1   O1    S    
C51   C52   S    
C32   C35   A    
O5    S1    S    
C54   H41   S    
C32   H2    S    
C4    C6    A    
C24   S2    S    
C5    C7    A    
C36   H3    S    
Cu1   O23   S    
C15   C26   A    
C48   O2    S    
C60   H9    S    
C54   O17   S    
C12   O19   A    
C48   H22   S    
C38   O16   S    
C2    C4    A    
H31   O11   S    
Cu2   N2    S    
C21   O2    S    
C15   H49   S    
C9    C11   S    
C50   H27   S    
C57   H48   S    
C53   H40   S    
C37   H4    S    
C17   O23   A    
O11   S3    S    
Cu2   O22   S    
C43   C45   A    
C8    C10   A    
C48   C49   S    
C20   C22   A    
C55   C57   S    
C42   H5    S    
O3    S1    D    
Cu2   O12   S    
O6    S2    D    
C1    O18   A    
C16   O20   A    
C52   C53   S    
Cu1   O19   S    
C46   H16   S    
C39   O17   S    
C7    C9    A    
C54   C55   S    
C14   H45   S    
C2    C59   A    
C49   H24   S    
C16   O22   A    
O4    S1    D    
C24   C26   A    
C3    C5    A    
C10   C13   S    
C18   N1    A    
C20   N1    A    
C6    C8    A    
C51   O16   S    
C58   H7    S    
C12   O12   A    
C25   C27   S    
C52   H37   S    
C26   C28   S    
H32   O15   S    
C48   H21   S    
C1    C4    S    
Cu2   O18   S    
C36   C38   A    
C10   C59   A    
C29   C31   A    
C14   C25   A    
C30   C32   A    
C11   C13   T    
C20   O24   S    
C7    H23   S    
C19   N2    A    
O9    S3    D    
C22   S1    S    
C52   H36   S    
C47   H19   S    
Cu2   O21   S    
C5    H11   S    
Cu1   Cu2   S    
C59   H8    S    
C57   H46   S    
C37   C39   A    
C49   C50   S    
H29   O5    S    
C21   C24   A    
C27   C28   T    
C17   O21   A    
C29   C40   A    
C1    O1    A    
O15   S4    S    
Cu1   O20   S    
C51   H33   S    
C35   C45   S    
