data_mof_unit_35671.cif
_audit_creation_date              2012-12-11T14:26:01-0500
_audit_creation_method            fapswitch 2.2
_symmetry_space_group_name_H-M    P1
_symmetry_Int_Tables_number       1
_space_group_crystal_system       triclinic
_cell_length_a                    6.931557
_cell_length_b                    14.748985
_cell_length_c                    16.212271
_cell_angle_alpha                 90.498921
_cell_angle_beta                  89.972234
_cell_angle_gamma                 90.273613
_cell_volume                      1657.35417724

loop_
_atom_site_label
_atom_site_type_symbol
_atom_type_description
_atom_site_fract_x
_atom_site_fract_y
_atom_site_fract_z
_atom_type_partial_charge
O1    O     O_R   0.494490 0.416160 0.413410 -0.533844
O2    O     O_R   0.823830 0.407240 0.585990 -0.536141
O3    O     O_R   0.994160 0.583840 0.586590 -0.542486
C1    C     C_R   0.654176 0.386410 0.614678 0.751972
O4    O     O_R   0.824200 0.405280 0.414020 -0.549084
O5    O     O_R   0.994530 0.581860 0.413390 -0.546969
C2    C     C_R   0.655522 0.384600 0.384653 0.738000
O6    O     O_R   0.494110 0.418140 0.586610 -0.545020
O7    O     O_3   0.660810 0.557940 0.500000 -0.378768
V1    V     V_3+5 0.935650 0.489250 0.500000 1.436164
O8    O     O_R   0.324250 0.592760 0.414010 -0.541071
C3    C     C_R   0.155778 0.614275 0.385563 0.768176
O9    O     O_R   0.323880 0.594720 0.585980 -0.553313
C4    C     C_R   0.155074 0.615860 0.615184 0.733088
V2    V     V_3+5 0.435660 0.510750 0.500000 1.433507
O10   O     O_3   0.160630 0.442060 0.500000 -0.371752
C5    C     C_3   0.933197 0.686238 0.721515 -0.460100
H1    H     H_    0.827869 0.695166 0.670572 0.122761
H2    H     H_    0.897055 0.617394 0.744065 0.185789
C6    C     C_3   0.903917 0.759889 0.790557 -0.004058
C7    C     C_3   0.197885 0.781523 0.655357 -0.223270
C8    C     C_3   0.286113 0.660123 0.757234 -0.181418
C9    C     C_3   0.142651 0.684346 0.685893 0.020490
H3    H     H_    0.433933 0.672409 0.732423 0.059646
C10   C     C_3   0.111362 0.804936 0.810649 -0.073419
C11   C     C_3   0.193126 0.850879 0.729730 -0.257988
C12   C     C_3   0.261173 0.727801 0.832081 -0.241712
H4    H     H_    0.350530 0.778538 0.633598 0.144252
C13   C     C_2   0.985889 0.707127 0.280919 -0.109947
C14   C     C_2   0.150908 0.681477 0.318184 -0.251629
H5    H     H_    0.288529 0.709676 0.299613 0.128049
C15   C     C_2   0.973162 0.774271 0.212632 -0.109912
C16   C     C_2   0.126350 0.812464 0.175047 -0.251845
H6    H     H_    0.828982 0.792227 0.192513 0.140268
C17   C     C_2   0.778104 0.232777 0.799295 -0.021931
C18   C     C_2   0.622374 0.178632 0.814847 -0.300351
H7    H     H_    0.499424 0.179269 0.773547 0.141624
C19   C     C_2   0.791204 0.289441 0.723727 -0.174301
C20   C     C_2   0.637124 0.322872 0.684205 -0.295715
H8    H     H_    0.934480 0.309961 0.703705 0.146908
C21   C     C_2   0.779896 0.231212 0.197706 0.010327
C22   C     C_2   0.617786 0.191365 0.166266 -0.341448
H9    H     H_    0.479211 0.220352 0.183108 0.160605
C23   C     C_2   0.768044 0.313133 0.252962 -0.062562
C24   C     C_2   0.647057 0.314383 0.318783 -0.396352
O11   O     O_R   0.770850 0.076180 0.907410 -0.521724
O12   O     O_R   0.440600 0.088970 0.079950 -0.543140
O13   O     O_R   0.270430 0.912340 0.080550 -0.549442
C25   C     C_R   0.610426 0.113950 0.106261 0.735505
O14   O     O_R   0.441120 0.087010 0.907980 -0.539876
O15   O     O_R   0.270950 0.910370 0.907350 -0.529466
C26   C     C_R   0.611260 0.111273 0.882044 0.826199
O16   O     O_R   0.770320 0.078150 0.080620 -0.531297
O17   O     O_3   0.604200 0.936340 0.994000 -0.350715
V3    V     V_3+5 0.329300 0.004970 0.993950 1.605766
O18   O     O_R   0.941240 0.899420 0.907920 -0.496651
C27   C     C_R   0.108412 0.875829 0.880382 0.785302
O19   O     O_R   0.940720 0.901380 0.079890 -0.545440
C28   C     C_R   0.109790 0.879650 0.108096 0.740702
V4    V     V_3+5 0.829310 0.983370 0.993880 1.646161
O20   O     O_3   0.104280 0.052120 0.993920 -0.349899
H10   H     H_    0.403530 0.761858 0.839844 0.174096
H11   H     H_    0.346617 0.867306 0.742677 0.194684
H12   H     H_    0.849971 0.678193 0.301528 0.134199
H13   H     H_    0.271620 0.794940 0.193258 0.133897
C29   C     C_2   0.945420 0.240992 0.856169 0.497420
H14   H     H_    0.088163 0.254487 0.831420 0.027394
O21   O     O_2   0.924080 0.239143 0.930887 -0.485436
H15   H     H_    0.492528 0.308064 0.706073 0.139407
C30   C     C_2   0.976983 0.198568 0.178819 0.535858
H16   H     H_    0.071569 0.179135 0.228875 -0.043166
O22   O     O_2   0.039991 0.200574 0.108571 -0.466695
C31   C     C_2   0.891762 0.393591 0.233715 0.452049
H17   H     H_    0.882420 0.455510 0.269977 0.031709
O23   O     O_2   0.001811 0.392826 0.174901 -0.497391
H18   H     H_    0.545887 0.258827 0.327567 0.139986
C32   C     C_2   0.804773 0.712811 0.863177 0.420660
H19   H     H_    0.700466 0.659153 0.851015 0.033725
O24   O     O_2   0.829309 0.736211 0.934795 -0.512411
C33   C     C_2   0.757645 0.828820 0.758894 0.243959
H20   H     H_    0.724987 0.833717 0.693789 0.038700
O25   O     O_2   0.672612 0.880468 0.805370 -0.521973
C34   C     C_2   0.080382 0.809602 0.580950 0.365341
H21   H     H_    0.925138 0.815421 0.584504 0.040793
O26   O     O_2   0.160098 0.825497 0.515437 -0.531184
C35   C     C_2   0.105790 0.942540 0.709783 0.384302
H22   H     H_    0.963991 0.948116 0.682539 0.062693
O27   O     O_2   0.196861 0.012216 0.723224 -0.538474
C36   C     C_2   0.289274 0.560278 0.779822 0.330001
H23   H     H_    0.426481 0.525188 0.782150 0.059997
O28   O     O_2   0.142205 0.518732 0.797023 -0.545324
C37   C     C_2   0.226348 0.682287 0.914284 0.435042
H24   H     H_    0.116736 0.630288 0.920797 0.135117
O29   O     O_2   0.324733 0.702400 0.974241 -0.516185

loop_
_geom_bond_atom_site_label_1
_geom_bond_atom_site_label_2
_ccdc_geom_bond_type
O13   V3    S    
C29   O21   D    
C7    C11   S    
C31   H17   S    
C17   C18   D    
C1    O6    A    
C16   H13   S    
O12   C25   A    
O17   V4    S    
C32   H19   S    
C5    C9    S    
C6    C32   S    
C24   H18   S    
C2    C24   S    
C18   H7    S    
C13   C15   S    
O5    C3    A    
C14   H5    S    
C35   O27   D    
C6    C10   S    
O19   V4    S    
V2    O10   S    
O11   C26   A    
C5    C6    S    
O18   C27   A    
C21   C22   D    
O8    V2    S    
C7    C34   S    
O14   C26   A    
C30   H16   S    
O15   C27   A    
C36   O28   D    
O7    V1    S    
C18   C26   S    
C3    C14   S    
C29   H14   S    
C13   H12   S    
C16   C28   S    
O9    C4    A    
C31   O23   D    
C10   C27   S    
O16   V4    S    
C32   O24   D    
C6    C33   S    
C17   C19   S    
C33   O25   D    
O4    C2    A    
C35   H22   S    
C17   C29   S    
C10   C11   S    
O18   V4    S    
V4    O20   S    
C15   H6    S    
C4    C9    S    
O2    C1    A    
C11   H11   S    
C13   C14   D    
C12   H10   S    
C34   H21   S    
C1    C20   S    
C11   C35   S    
C37   O29   D    
C5    H1    S    
C20   H15   S    
C12   C37   S    
O3    C4    A    
O1    V2    S    
C34   O26   D    
C7    H4    S    
O6    V2    S    
C8    C12   S    
O9    V2    S    
C21   C23   S    
C8    H3    S    
C22   H9    S    
O2    V1    S    
C23   C24   D    
O13   C28   A    
O12   V3    S    
O17   V3    S    
O11   V4    S    
O1    C2    A    
C33   H20   S    
O5    V1    S    
O8    C3    A    
C10   C12   S    
O14   V3    S    
C15   C16   D    
C7    C9    S    
O19   C28   A    
O4    V1    S    
O3    V1    S    
V1    O10   S    
C19   H8    S    
C19   C20   D    
C25   O16   A    
V3    O20   S    
C37   H24   S    
C5    H2    S    
C8    C36   S    
O15   V3    S    
O7    V2    S    
C23   C31   S    
C22   C25   S    
C8    C9    S    
C30   O22   D    
C36   H23   S    
C21   C30   S    
