data_mof_unit_66079.cif
_audit_creation_date              2013-03-05T16:33:19-0500
_audit_creation_method            fapswitch 2.2
_symmetry_space_group_name_H-M    P1
_symmetry_Int_Tables_number       1
_space_group_crystal_system       triclinic
_cell_length_a                    14.993553
_cell_length_b                    14.274482
_cell_length_c                    23.423558
_cell_angle_alpha                 89.959161
_cell_angle_beta                  92.658032
_cell_angle_gamma                 89.994006
_cell_volume                      5007.83674425

loop_
_atom_site_label
_atom_site_type_symbol
_atom_site_description
_atom_site_fract_x
_atom_site_fract_y
_atom_site_fract_z
_atom_type_partial_charge
O1    O     O_R   0.369060 0.579480 0.500000 -0.581707
O2    O     O_R   0.630940 0.420520 0.500000 -0.580877
O3    O     O_R   0.630940 0.579480 0.500000 -0.581684
O4    O     O_R   0.369060 0.420520 0.500000 -0.580889
C1    C     C_R   0.328949 0.500055 0.506761 0.926200
C2    C     C_R   0.671075 0.500060 0.493287 0.926158
O5    O     O_R   0.499970 0.579500 0.416160 -0.606816
O6    O     O_R   0.500030 0.420500 0.583840 -0.608701
O7    O     O_R   0.500030 0.579500 0.583840 -0.606969
O8    O     O_R   0.499970 0.420500 0.416160 -0.608699
C3    C     C_R   0.500807 0.500027 0.389366 0.905804
C4    C     C_R   0.499150 0.499951 0.610629 0.905833
Zn1   Zn    Zn3+2 0.500000 0.606140 0.500000 1.034953
Zn2   Zn    Zn3+2 0.500000 0.393860 0.500000 1.034011
C5    C     C_R   0.575009 0.501016 0.881718 0.513116
C6    C     C_R   0.423292 0.506691 0.118238 0.510091
N1    N     N_R   0.494202 0.502167 0.852262 -0.361171
N2    N     N_R   0.504032 0.503206 0.147694 -0.355722
C7    C     C_R   0.415312 0.505658 0.879086 0.509460
C8    C     C_R   0.582968 0.501836 0.120857 0.508788
C9    C     C_R   0.415569 0.507032 0.938699 -0.022204
C10   C     C_R   0.582767 0.502632 0.061245 -0.020111
C11   C     C_R   0.498170 0.504919 0.969967 -0.020367
C12   C     C_R   0.500179 0.505155 0.029979 -0.017500
C13   C     C_R   0.578763 0.502195 0.941366 -0.023907
C14   C     C_R   0.419583 0.507554 0.058585 -0.021486
C15   C     C_R   0.335690 0.509939 0.967600 -0.145250
C16   C     C_R   0.662668 0.500460 0.032347 -0.147494
C17   C     C_R   0.337682 0.510216 0.027072 -0.147471
C18   C     C_R   0.660682 0.500250 0.972877 -0.145354
O9    O     O_2   0.651148 0.498333 0.853183 -0.531734
O10   O     O_2   0.347142 0.508857 0.146777 -0.536151
O11   O     O_2   0.337223 0.507265 0.848020 -0.535491
O12   O     O_2   0.661042 0.499276 0.151919 -0.540316
H1    H     H_    0.271506 0.511697 0.944409 0.198449
H2    H     H_    0.726848 0.498594 0.055538 0.198561
H3    H     H_    0.274974 0.512174 0.048217 0.198620
H4    H     H_    0.723389 0.498235 0.951734 0.198436
C19   C     C_R   0.508590 0.585399 0.238316 -0.132998
C20   C     C_R   0.490521 0.584391 0.761744 -0.136004
H5    H     H_    0.510927 0.651306 0.215496 0.156162
H6    H     H_    0.488569 0.650190 0.784651 0.156148
C21   C     C_R   0.507677 0.585197 0.297432 -0.177249
C22   C     C_R   0.492091 0.584628 0.702655 -0.176974
H7    H     H_    0.510070 0.651615 0.319719 0.193403
H8    H     H_    0.490446 0.651212 0.680493 0.193224
C23   C     C_R   0.503515 0.500116 0.327148 -0.085528
C24   C     C_R   0.496014 0.499759 0.672821 -0.080878
C25   C     C_R   0.502406 0.415086 0.297048 -0.167780
C26   C     C_R   0.496164 0.414562 0.702765 -0.183778
H9    H     H_    0.500617 0.349056 0.319745 0.185795
H10   H     H_    0.497713 0.348505 0.680094 0.191274
C27   C     C_R   0.503197 0.414775 0.237520 0.220843
C28   C     C_R   0.494520 0.413632 0.762209 0.220620
C29   C     C_R   0.505775 0.500849 0.208417 0.309926
C30   C     C_R   0.492369 0.499634 0.791553 0.317214
C31   C     C_R   0.095347 0.585196 0.517513 -0.176272
C32   C     C_R   0.905300 0.416701 0.481783 -0.176904
C33   C     C_R   0.904729 0.585208 0.482974 -0.176216
C34   C     C_R   0.094828 0.416695 0.518812 -0.176795
H11   H     H_    0.062338 0.651776 0.520930 0.164519
H12   H     H_    0.939075 0.350684 0.477314 0.165229
H13   H     H_    0.937729 0.651797 0.479587 0.164551
H14   H     H_    0.061087 0.350680 0.523396 0.165215
C35   C     C_R   0.187451 0.585685 0.523742 0.169793
C36   C     C_R   0.813116 0.415734 0.475488 0.170027
C37   C     C_R   0.812645 0.585696 0.476541 0.169849
C38   C     C_R   0.187032 0.415724 0.524909 0.169805
C39   C     C_R   0.234291 0.500435 0.518904 -0.178104
C40   C     C_R   0.765796 0.500442 0.481314 -0.178186
C41   C     C_R   0.048432 0.500955 0.508349 0.067141
C42   C     C_R   0.951642 0.500959 0.492254 0.067090
C43   C     C_R   0.441908 0.105606 0.463265 -0.263734
C44   C     C_R   0.552574 0.894453 0.539960 -0.263123
C45   C     C_R   0.558090 0.105515 0.536746 -0.263427
C46   C     C_R   0.447445 0.894556 0.460030 -0.263136
H15   H     H_    0.394114 0.072488 0.434148 0.167543
H16   H     H_    0.594256 0.927588 0.572664 0.165279
H17   H     H_    0.605861 0.072325 0.565881 0.167501
H18   H     H_    0.405778 0.927775 0.427317 0.165300
C47   C     C_R   0.443515 0.203748 0.463044 0.296629
C48   C     C_R   0.553004 0.796307 0.538994 0.296899
C49   C     C_R   0.556459 0.203658 0.536975 0.296903
C50   C     C_R   0.447011 0.796406 0.460998 0.296606
N3    N     N_R   0.500000 0.252470 0.500000 -0.130677
N4    N     N_R   0.500000 0.747530 0.500000 -0.130695
C51   C     C_R   0.500009 0.053367 0.499999 0.102117
C52   C     C_R   0.500008 0.946697 0.499996 0.104910
I1    I     I_    0.354167 0.268816 0.402408 -0.278323
I2    I     I_    0.641440 0.731568 0.600306 -0.273671
I3    I     I_    0.645609 0.268602 0.597715 -0.280319
I4    I     I_    0.358631 0.731797 0.399672 -0.272245
C53   C     C_3   0.500798 0.323505 0.205359 -0.840705
H19   H     H_    0.440425 0.320872 0.176119 0.254267
H20   H     H_    0.561187 0.317174 0.179944 0.253282
H21   H     H_    0.498942 0.262452 0.234713 0.244198
C54   C     C_3   0.495576 0.320598 0.792584 -0.827045
H22   H     H_    0.557699 0.282229 0.783339 0.254024
H23   H     H_    0.492595 0.327720 0.839584 0.237900
H24   H     H_    0.437186 0.278335 0.777068 0.247464
I5    I     I_    0.244972 0.717442 0.548111 -0.278827
I6    I     I_    0.755914 0.284930 0.449098 -0.279047
I7    I     I_    0.755189 0.717445 0.451939 -0.278931
I8    I     I_    0.244401 0.284903 0.551259 -0.281488

loop_
_geom_bond_atom_site_label_1
_geom_bond_atom_site_label_2
_geom_bond_distance
_ccdc_geom_bond_type
C32   H12   1.077226 S    
C51   C52   1.522653 S    
C53   H19   1.110152 S    
C15   C17   1.392008 A    
C36   I6    2.134663 S    
C3    C23   1.459808 S    
C35   I5    2.136143 S    
C4    C24   1.459679 S    
O3    C2    1.296516 A    
C45   C49   1.401169 A    
C46   C50   1.401222 A    
C25   H9    1.082752 S    
C54   H22   1.110509 S    
C37   I7    2.136148 S    
C19   H5    1.083063 S    
O5    C3    1.297199 A    
C26   C28   1.393809 A    
O1    C1    1.296482 A    
C7    C9    1.396334 A    
C12   C14   1.409091 A    
C25   C27   1.394973 A    
C5    C13   1.395786 A    
C18   H4    1.083180 S    
C5    N1    1.366277 A    
O7    Zn1   2.000021 S    
C43   C51   1.408808 A    
C1    C39   1.460368 S    
C33   C37   1.381926 A    
C32   C36   1.383268 A    
C19   C29   1.395476 A    
C38   C39   1.411814 A    
C20   C30   1.396072 A    
Zn1   N4    2.018269 S    
C26   H10   1.083275 S    
C11   C12   1.404622 A    
C28   C54   1.505882 S    
C46   C52   1.408603 A    
O3    Zn1   1.999760 S    
C33   C42   1.404841 A    
C8    O12   1.349798 S    
C20   H6    1.083100 S    
C9    C15   1.403430 A    
C53   H20   1.110152 S    
C10   C16   1.403415 A    
O2    C2    1.297940 A    
C44   C48   1.401195 A    
C43   C47   1.401137 A    
C54   H23   1.108618 S    
C22   H8    1.082375 S    
C27   C29   1.406069 A    
C6    C14   1.395860 A    
C28   C30   1.408481 A    
C27   C53   1.505010 S    
C38   I8    2.134659 S    
C23   C25   1.403832 A    
O8    Zn2   2.000026 S    
C19   C21   1.385431 A    
C34   C41   1.405070 A    
C15   H1    1.083180 S    
C48   N4    1.372711 A    
C20   C22   1.385372 A    
O6    C4    1.296902 A    
C31   C41   1.404792 A    
C31   H11   1.076229 S    
C21   H7    1.082420 S    
N1    C30   1.421511 S    
C16   H2    1.083179 S    
N2    C29   1.421755 S    
C45   C51   1.408861 A    
C49   N3    1.372295 A    
C8    C10   1.396234 A    
C53   H21   1.110849 S    
C9    C11   1.409608 A    
C7    O11   1.349756 S    
C10   C12   1.409559 A    
O1    Zn1   1.999840 S    
C54   H24   1.110590 S    
C13   C18   1.403590 A    
C2    C40   1.460344 S    
O6    Zn2   2.000553 S    
C46   H18   1.075783 S    
Zn2   N3    2.018269 S    
C31   C35   1.381930 A    
O4    C1    1.297954 A    
C5    O9    1.349902 S    
C6    O10   1.349913 S    
C49   I3    2.120398 S    
C33   H13   1.076211 S    
C48   I2    2.120350 S    
C34   H14   1.077236 S    
C37   C40   1.412136 A    
C16   C18   1.391948 A    
C47   I1    2.120382 S    
C41   C42   1.482370 S    
C32   C42   1.405095 A    
C36   C40   1.411778 A    
C21   C23   1.402214 A    
C35   C39   1.412200 A    
C24   C26   1.403433 A    
N1    C7    1.365783 A    
N2    C8    1.365773 A    
C11   C13   1.409113 A    
O4    Zn2   1.999762 S    
O2    Zn2   1.999838 S    
O7    C4    1.297341 A    
O8    C3    1.297098 A    
O5    Zn1   2.000557 S    
C34   C38   1.383285 A    
C14   C17   1.403617 A    
C6    N2    1.366198 A    
C44   H16   1.075786 S    
C17   H3    1.083181 S    
C43   H15   1.075806 S    
C50   N4    1.372665 A    
C50   I4    2.120289 S    
C44   C52   1.408557 A    
C45   H17   1.075798 S    
C47   N3    1.372331 A    
C22   C24   1.401600 A    
