data_mof_unit_29950.cif
_audit_creation_date              2012-12-11T15:18:06-0500
_audit_creation_method            fapswitch 2.2
_symmetry_space_group_name_H-M    P1
_symmetry_Int_Tables_number       1
_space_group_crystal_system       triclinic
_cell_length_a                    15.759731
_cell_length_b                    15.758924
_cell_length_c                    34.306124
_cell_angle_alpha                 89.974628
_cell_angle_beta                  90.016947
_cell_angle_gamma                 119.991633
_cell_volume                      7379.28377563

loop_
_atom_site_label
_atom_site_type_symbol
_atom_type_description
_atom_site_fract_x
_atom_site_fract_y
_atom_site_fract_z
_atom_type_partial_charge
C1    C     C_R   0.578641 0.441457 0.555089 0.561177
C2    C     C_R   0.498547 0.988932 0.212335 0.359006
C3    C     C_R   0.490286 0.501468 0.212375 0.359070
C4    C     C_R   0.011225 0.509693 0.212365 0.359032
C5    C     C_R   0.990173 0.432302 0.855024 -0.123131
C6    C     C_R   0.567963 0.558569 0.854976 -0.123702
C7    C     C_R   0.440641 0.008710 0.854814 -0.127291
C8    C     C_R   0.432814 0.991904 0.354591 -0.127022
C9    C     C_R   0.558929 0.567306 0.354619 -0.127018
C10   C     C_R   0.008305 0.441078 0.354641 -0.127008
C11   C     C_R   0.020141 0.441432 0.893859 0.203509
C12   C     C_R   0.558562 0.137172 0.555096 0.561128
C13   C     C_R   0.558923 0.579559 0.893790 0.201846
C14   C     C_R   0.419287 0.978435 0.893587 0.200146
C15   C     C_R   0.441604 0.022005 0.393374 0.198694
C16   C     C_R   0.580299 0.558491 0.393400 0.198701
C17   C     C_R   0.978142 0.419724 0.393420 0.198708
C18   C     C_R   0.064221 0.613564 0.892613 0.253641
C19   C     C_R   0.387499 0.449957 0.892973 0.255912
C20   C     C_R   0.550781 0.939280 0.893309 0.257532
C21   C     C_R   0.612985 0.063246 0.392822 0.252778
C22   C     C_R   0.450109 0.387143 0.392869 0.252838
C23   C     C_R   0.862863 0.421357 0.555073 0.561216
C24   C     C_R   0.936798 0.549808 0.392814 0.252749
C25   C     C_R   0.027831 0.601553 0.854204 0.242723
C26   C     C_R   0.399351 0.425678 0.854523 0.243575
C27   C     C_R   0.575118 0.975305 0.854827 0.244283
C28   C     C_R   0.601261 0.027026 0.354388 0.242789
C29   C     C_R   0.425564 0.398887 0.354436 0.242816
C30   C     C_R   0.973062 0.574339 0.354382 0.242800
C31   C     C_R   0.000850 0.513375 0.834159 -0.053955
C32   C     C_R   0.487074 0.487424 0.834287 -0.054238
C33   C     C_R   0.512803 0.000195 0.834363 -0.053998
C34   C     C_R   0.441476 0.578592 0.055069 0.559924
C35   C     C_R   0.513687 0.001179 0.334056 -0.053658
C36   C     C_R   0.487293 0.486444 0.334094 -0.053695
C37   C     C_R   0.998995 0.512659 0.334079 -0.053651
C38   C     C_R   0.069329 0.535707 0.911180 0.000655
C39   C     C_R   0.464813 0.533719 0.911290 -0.000141
C40   C     C_R   0.466139 0.931436 0.911354 0.005468
C41   C     C_R   0.535483 0.069535 0.411100 0.004580
C42   C     C_R   0.533971 0.464599 0.411126 0.004554
C43   C     C_R   0.930527 0.466018 0.411113 0.004579
C44   C     C_R   0.576713 0.443026 0.445900 0.612953
C45   C     C_R   0.137131 0.558517 0.055069 0.561200
C46   C     C_R   0.556995 0.133721 0.445895 0.613027
C47   C     C_R   0.866291 0.423291 0.445897 0.613039
C48   C     C_R   0.443072 0.576651 0.945949 0.607886
C49   C     C_R   0.133671 0.557034 0.945917 0.608853
C50   C     C_R   0.423333 0.866506 0.945969 0.614100
C51   C     C_R   0.917927 0.454937 0.591843 -0.054599
C52   C     C_R   0.545025 0.462766 0.591892 -0.054654
C53   C     C_R   0.537369 0.082235 0.591910 -0.054719
C54   C     C_R   0.455265 0.918105 0.091783 -0.054251
C55   C     C_R   0.462850 0.544721 0.091800 -0.054541
C56   C     C_R   0.421405 0.862878 0.055064 0.561233
C57   C     C_R   0.081934 0.537132 0.091800 -0.053957
C58   C     C_R   0.949173 0.396417 0.610684 -0.061421
C59   C     C_R   0.603374 0.552514 0.610732 -0.061384
C60   C     C_R   0.447652 0.050716 0.610790 -0.061485
C61   C     C_R   0.397041 0.949641 0.110630 -0.061103
C62   C     C_R   0.552567 0.602977 0.110675 -0.058286
C63   C     C_R   0.050590 0.447442 0.110700 -0.058281
C64   C     C_R   0.981393 0.414614 0.649201 0.207693
C65   C     C_R   0.585122 0.566396 0.649259 0.207758
C66   C     C_R   0.433918 0.018564 0.649326 0.207847
C67   C     C_R   0.988560 0.497530 0.712446 0.359240
C68   C     C_R   0.415614 0.982109 0.149109 0.207962
C69   C     C_R   0.566441 0.584396 0.149164 0.207827
C70   C     C_R   0.018157 0.433568 0.149186 0.207871
C71   C     C_R   0.980356 0.492121 0.669744 0.060893
C72   C     C_R   0.507786 0.487706 0.669832 0.060814
C73   C     C_R   0.512758 0.020118 0.669877 0.060700
C74   C     C_R   0.493122 0.980917 0.169622 0.060664
C75   C     C_R   0.487757 0.506859 0.169659 0.060373
C76   C     C_R   0.019201 0.512225 0.169652 0.060353
C77   C     C_R   0.957969 0.556914 0.649887 0.228309
C78   C     C_R   0.502416 0.490436 0.712551 0.359111
C79   C     C_R   0.443170 0.400506 0.649980 0.228257
C80   C     C_R   0.599928 0.042797 0.649979 0.228193
C81   C     C_R   0.557661 0.958290 0.149736 0.228678
C82   C     C_R   0.400648 0.442281 0.149747 0.228317
C83   C     C_R   0.041637 0.599306 0.149715 0.228714
C84   C     C_R   0.927278 0.537866 0.610843 -0.133050
C85   C     C_R   0.462233 0.389026 0.610920 -0.133052
C86   C     C_R   0.611231 0.073282 0.610906 -0.133003
C87   C     C_R   0.538290 0.927433 0.110722 -0.131859
C88   C     C_R   0.389187 0.461655 0.110722 -0.133524
C89   C     C_R   0.510208 0.012263 0.712614 0.359031
C90   C     C_R   0.072457 0.610768 0.110695 -0.131934
C91   C     C_R   0.993029 0.507905 0.791286 0.332397
C92   C     C_R   0.492323 0.484755 0.791409 0.332197
C93   C     C_R   0.515883 0.008211 0.791485 0.331753
C94   C     C_R   0.508592 0.993151 0.291187 0.331720
C95   C     C_R   0.484363 0.491498 0.291226 0.331720
C96   C     C_R   0.007034 0.515590 0.291213 0.331705
Cr1   Cr    Cr6+3 0.522350 0.263930 0.500020 1.122970
Cr2   Cr    Cr6+3 0.736070 0.258420 0.500020 1.122854
Cr3   Cr    Cr6+3 0.741580 0.477650 0.500020 1.122955
Cr4   Cr    Cr6+3 0.263930 0.522350 0.000020 1.122081
Cr5   Cr    Cr6+3 0.258420 0.736070 0.000020 1.124340
Cr6   Cr    Cr6+3 0.477650 0.741580 0.000020 1.124680
H1    H     H_    0.944723 0.333394 0.596045 0.179013
H2    H     H_    0.584300 0.904334 0.096108 0.139741
H3    H     H_    0.320116 0.415617 0.096085 0.138757
H4    H     H_    0.095407 0.679820 0.096039 0.139660
H5    H     H_    0.962127 0.362247 0.840548 0.202621
H6    H     H_    0.637769 0.601049 0.840369 0.202919
H7    H     H_    0.397567 0.035127 0.840033 0.202501
H8    H     H_    0.363222 0.965048 0.339855 0.202837
H9    H     H_    0.601657 0.636898 0.339877 0.202827
H10   H     H_    0.035226 0.398380 0.339928 0.202820
H11   H     H_    0.067466 0.255543 0.934546 0.376717
H12   H     H_    0.666283 0.611203 0.596075 0.179056
H13   H     H_    0.743425 0.814019 0.933928 0.377626
H14   H     H_    0.316631 0.035122 0.978385 0.373885
H15   H     H_    0.282077 0.965003 0.478132 0.375218
H16   H     H_    0.682944 0.717947 0.478161 0.375211
H17   H     H_    0.035054 0.317167 0.478237 0.375205
H18   H     H_    0.049556 0.384758 0.689459 0.351168
H19   H     H_    0.614600 0.664358 0.689465 0.351118
H20   H     H_    0.336045 0.949759 0.689530 0.351132
H21   H     H_    0.386431 0.050876 0.189285 0.351243
H22   H     H_    0.664350 0.613599 0.189379 0.351330
H23   H     H_    0.388869 0.054837 0.596156 0.178941
H24   H     H_    0.949549 0.335651 0.189412 0.351366
H25   H     H_    0.940898 0.671065 0.651920 0.344360
H26   H     H_    0.329296 0.269131 0.652029 0.344367
H27   H     H_    0.731410 0.060529 0.651960 0.344402
H28   H     H_    0.671646 0.940938 0.151703 0.345107
H29   H     H_    0.269372 0.328238 0.151677 0.344583
H30   H     H_    0.058719 0.730541 0.151603 0.344908
H31   H     H_    0.082405 0.745772 0.897222 0.408758
H32   H     H_    0.257223 0.333676 0.898325 0.403932
H33   H     H_    0.668561 0.928103 0.899215 0.403180
H34   H     H_    0.333986 0.945255 0.096027 0.179084
H35   H     H_    0.744588 0.080000 0.397837 0.409409
H36   H     H_    0.335163 0.255637 0.397926 0.409405
H37   H     H_    0.920041 0.664659 0.397803 0.409411
H38   H     H_    0.969485 0.650168 0.816962 0.362308
H39   H     H_    0.351119 0.318686 0.817343 0.361768
H40   H     H_    0.682233 0.034669 0.817699 0.361621
H41   H     H_    0.649442 0.968019 0.317286 0.362783
H42   H     H_    0.318380 0.350752 0.317316 0.362742
H43   H     H_    0.032002 0.681511 0.317243 0.362756
H44   H     H_    0.611211 0.666067 0.096087 0.183557
H45   H     H_    0.055106 0.388821 0.096136 0.183174
H46   H     H_    0.904355 0.584064 0.596243 0.138750
H47   H     H_    0.416161 0.319905 0.596327 0.138780
H48   H     H_    0.680328 0.096399 0.596279 0.138788
N1    N     N_R   0.937305 0.420907 0.773020 -0.198709
N2    N     N_R   0.416791 0.935509 0.234117 -0.185741
N3    N     N_R   0.518582 0.583251 0.234127 -0.185761
N4    N     N_R   0.064748 0.481476 0.234165 -0.185860
N5    N     N_R   0.044929 0.584328 0.730627 -0.132761
N6    N     N_R   0.415563 0.459419 0.730788 -0.132442
N7    N     N_R   0.541938 0.957084 0.730945 -0.131961
N8    N     N_R   0.585416 0.044621 0.230590 -0.131776
N9    N     N_R   0.459085 0.414608 0.230658 -0.131863
N10   N     N_R   0.955457 0.540801 0.230600 -0.131620
N11   N     N_R   0.047709 0.589163 0.769333 -0.168285
N12   N     N_R   0.579346 0.516552 0.773085 -0.198741
N13   N     N_R   0.410855 0.457467 0.769501 -0.167946
N14   N     N_R   0.543895 0.954500 0.769667 -0.168468
N15   N     N_R   0.590103 0.047288 0.269305 -0.168812
N16   N     N_R   0.457017 0.409958 0.269374 -0.168846
N17   N     N_R   0.952806 0.542856 0.269314 -0.168818
N18   N     N_R   0.483467 0.062838 0.773067 -0.198576
N19   N     N_R   0.421578 0.938025 0.272843 -0.198047
N20   N     N_R   0.516266 0.578501 0.272854 -0.198001
N21   N     N_R   0.062245 0.483781 0.272890 -0.198037
N22   N     N_R   0.934680 0.415963 0.734292 -0.185905
N23   N     N_R   0.584158 0.518757 0.734355 -0.185942
N24   N     N_R   0.481275 0.065282 0.734335 -0.185957
O1    O     O_R   0.498680 0.159540 0.541860 -0.510853
O2    O     O_R   0.358060 0.532760 0.040030 -0.506468
O3    O     O_R   0.174700 0.641940 0.040030 -0.505081
O4    O     O_R   0.467240 0.825300 0.040030 -0.504676
O5    O     O_R   0.498590 0.161190 0.456930 -0.433528
O6    O     O_R   0.838810 0.337400 0.456930 -0.433549
O7    O     O_R   0.662600 0.501410 0.456930 -0.433511
O8    O     O_R   0.161190 0.498590 0.956930 -0.430912
O9    O     O_R   0.337400 0.838810 0.956930 -0.432866
O10   O     O_R   0.501410 0.662600 0.956930 -0.431352
O11   O     O_R   0.532680 0.359580 0.461300 -0.447909
O12   O     O_R   0.840460 0.339140 0.541860 -0.511129
O13   O     O_R   0.640420 0.173100 0.461300 -0.447923
O14   O     O_R   0.826900 0.467320 0.461300 -0.447919
O15   O     O_R   0.359580 0.532680 0.961300 -0.447897
O16   O     O_R   0.173100 0.640420 0.961300 -0.447413
O17   O     O_R   0.467320 0.826900 0.961300 -0.447393
O18   O     O_3   0.666667 0.333333 0.499990 -0.304583
O19   O     O_3   0.333333 0.666667 0.999990 -0.304467
O20   O     O_2   0.967428 0.341790 0.961417 -0.254081
O21   O     O_2   0.903747 0.246666 0.901322 -0.243132
O22   O     O_3   0.086804 0.314022 0.918054 -0.469862
O23   O     O_R   0.660860 0.501320 0.541860 -0.510943
O24   O     O_2   0.659492 0.628117 0.961133 -0.253944
O25   O     O_2   0.754023 0.660022 0.900848 -0.239954
O26   O     O_3   0.684873 0.774209 0.917574 -0.468344
O27   O     O_2   0.337252 0.091640 0.900584 -0.241582
O28   O     O_2   0.235198 0.917572 0.916165 -0.230152
O29   O     O_3   0.370127 0.029430 0.965795 -0.498121
O30   O     O_2   0.318289 0.082705 0.415998 -0.227322
O31   O     O_2   0.246326 0.908748 0.400240 -0.235806
O32   O     O_3   0.341095 0.970365 0.465519 -0.498496
O33   O     O_2   0.764323 0.681790 0.416012 -0.227368
O34   O     O_R   0.159540 0.498680 0.041860 -0.507649
O35   O     O_2   0.662291 0.753770 0.400277 -0.235785
O36   O     O_3   0.629280 0.658936 0.465549 -0.498515
O37   O     O_2   0.917536 0.235718 0.416078 -0.227386
O38   O     O_2   0.091508 0.337802 0.400363 -0.235803
O39   O     O_3   0.029676 0.370816 0.465604 -0.498552
O40   O     O_3   0.009995 0.353103 0.665899 -0.648953
O41   O     O_3   0.646408 0.656547 0.665936 -0.648846
O42   O     O_3   0.343761 0.989502 0.666038 -0.648681
O43   O     O_3   0.354429 0.011065 0.165817 -0.648160
O44   O     O_3   0.656537 0.645612 0.165903 -0.646655
O45   O     O_R   0.339140 0.840460 0.041860 -0.510955
O46   O     O_3   0.989384 0.343495 0.165947 -0.646824
O47   O     O_3   0.959340 0.633679 0.669917 -0.634084
O48   O     O_3   0.366568 0.324950 0.670023 -0.634035
O49   O     O_3   0.675633 0.041926 0.669986 -0.633932
O50   O     O_3   0.634463 0.959554 0.169716 -0.633118
O51   O     O_3   0.325131 0.365443 0.169710 -0.633482
O52   O     O_3   0.040227 0.674798 0.169649 -0.633111
O53   O     O_3   0.095845 0.700622 0.912554 -0.615286
O54   O     O_3   0.301149 0.393580 0.913211 -0.621717
O55   O     O_3   0.607967 0.910790 0.913852 -0.620545
O56   O     O_R   0.501320 0.660860 0.041860 -0.507263
O57   O     O_3   0.699452 0.093623 0.413067 -0.616721
O58   O     O_3   0.394007 0.300700 0.413132 -0.616690
O59   O     O_3   0.906348 0.605854 0.413034 -0.616700
O60   O     O_3   0.022241 0.677710 0.836798 -0.644352
O61   O     O_3   0.323444 0.343500 0.837278 -0.644095
O62   O     O_3   0.657933 0.982540 0.837790 -0.643835
O63   O     O_3   0.677102 0.020408 0.337262 -0.642371
O64   O     O_3   0.343073 0.323073 0.337316 -0.642326
O65   O     O_3   0.979621 0.656773 0.337226 -0.642376
O66   O     O_R   0.532760 0.358060 0.540030 -0.504327
O67   O     O_R   0.641940 0.174700 0.540030 -0.504399
O68   O     O_R   0.825300 0.467240 0.540030 -0.504301
S1    S     S_3+6 0.990920 0.332734 0.919678 0.065064
S2    S     S_3+6 0.667612 0.660162 0.919349 0.066638
S3    S     S_3+6 0.336763 0.004529 0.918733 0.065420
S4    S     S_3+6 0.332859 0.995683 0.418484 0.068739
S5    S     S_3+6 0.662744 0.667216 0.418510 0.068737
S6    S     S_3+6 0.004492 0.337320 0.418568 0.068706

loop_
_geom_bond_atom_site_label_1
_geom_bond_atom_site_label_2
_ccdc_geom_bond_type
C26   O61   S    
C25   C31   A    
C6    C32   A    
Cr6   O19   S    
C26   C32   A    
Cr1   O1    S    
C22   C29   A    
C16   C42   A    
O39   S6    S    
C11   S1    S    
H41   O63   S    
H33   O55   S    
C4    N4    A    
C50   O9    A    
C36   C95   S    
C79   C85   A    
C30   O65   S    
H35   O57   S    
C84   H46   S    
O28   S3    D    
Cr4   O34   S    
N12   N23   A    
C56   O4    A    
Cr4   O19   S    
C27   C33   A    
Cr1   O11   S    
C29   C36   A    
C45   C57   S    
C47   O6    A    
C10   C37   A    
O36   S5    S    
C64   O40   S    
C60   H23   S    
O32   S4    S    
C9    C16   A    
C65   O41   S    
C72   C79   A    
H30   O52   S    
C86   H48   S    
C94   N19   A    
C54   C87   A    
C20   C40   A    
C82   C88   A    
C64   C71   A    
C13   S2    S    
C10   C17   A    
C68   C74   A    
C21   O57   S    
C55   C62   A    
C3    N3    A    
C76   C83   A    
C67   N5    A    
N10   N17   A    
C55   C88   A    
Cr1   O66   S    
C19   C26   A    
H29   O51   S    
Cr2   O67   S    
C80   C86   A    
C24   O59   S    
C17   S6    S    
C7    C14   A    
Cr5   O9    S    
Cr4   O15   S    
C93   N18   A    
H24   O46   S    
C6    C13   A    
C96   N21   A    
N3    N20   A    
H37   O59   S    
C9    C36   A    
C72   C78   S    
C41   C46   S    
C63   C70   A    
C10   H10   S    
C53   C86   A    
C46   O13   A    
C3    C75   S    
O26   S2    S    
C12   C53   S    
C2    C74   S    
O38   S6    D    
C44   O11   A    
C14   S3    S    
H40   O62   S    
H21   O43   S    
C60   C66   A    
C34   C55   S    
C3    N9    A    
Cr1   O5    S    
C7    C33   A    
C34   O56   A    
C18   C25   A    
C42   C44   S    
C89   N24   A    
C94   N15   A    
C63   H45   S    
Cr3   O14   S    
C1    C52   S    
C53   C60   A    
Cr5   O19   S    
O25   S2    D    
C57   C63   A    
H22   O44   S    
Cr1   O18   S    
C1    O66   A    
C58   C64   A    
C82   O51   S    
C54   C56   S    
O27   S3    D    
C57   C90   A    
O22   S1    S    
C69   O44   S    
C34   O2    A    
N6    N13   A    
Cr2   O18   S    
O31   S4    D    
O20   S1    D    
H26   O48   S    
C38   C49   S    
C49   O16   A    
C93   N14   A    
O24   S2    D    
C66   C73   A    
C83   C90   A    
N5    N11   A    
N1    N22   A    
C7    H7    S    
C37   C96   S    
O33   S5    D    
C8    C35   A    
H32   O54   S    
O37   S6    D    
C11   C38   A    
N18   N24   A    
C19   O54   S    
C17   C43   A    
Cr4   O2    S    
Cr2   O13   S    
C52   C59   A    
C8    H8    S    
C28   O63   S    
C78   N23   A    
Cr5   O45   S    
C23   C51   S    
O29   S3    S    
C15   S4    S    
H39   O61   S    
Cr3   O23   S    
C2    N2    A    
Cr6   O17   S    
C96   N17   A    
H42   O64   S    
C51   C58   A    
C9    H9    S    
C23   O68   A    
C89   N7    A    
C50   O17   A    
N7    N14   A    
C15   C41   A    
C48   O15   A    
C81   C87   A    
C19   C39   A    
C27   O62   S    
C12   O1    A    
C21   C41   A    
C62   C69   A    
C92   N13   A    
C77   O47   S    
C54   C61   A    
C21   C28   A    
C25   O60   S    
H15   O32   S    
C8    C15   A    
C31   C91   S    
C70   C76   A    
Cr6   O4    S    
C4    C76   S    
C88   H3    S    
C24   C30   A    
C74   C81   A    
Cr2   O6    S    
C65   C72   A    
C95   N16   A    
H19   O41   S    
C29   O64   S    
C71   C77   A    
H14   O29   S    
Cr4   O8    S    
C79   O48   S    
C48   O10   A    
C5    H5    S    
C16   S5    S    
C92   N12   A    
C28   C35   A    
C81   O50   S    
O35   S5    D    
C52   C85   A    
C20   O55   S    
C46   O5    A    
H38   O60   S    
C1    O23   A    
H31   O53   S    
C43   C47   S    
C33   C93   S    
C4    N10   A    
C23   O12   A    
C75   C82   A    
C5    C11   A    
C20   C27   A    
C45   O3    A    
C67   N22   A    
C45   O34   A    
C85   H47   S    
H13   O26   S    
Cr3   O18   S    
C61   H34   S    
C77   C84   A    
N9    N16   A    
H16   O36   S    
Cr6   O10   S    
C35   C94   S    
Cr3   O68   S    
H28   O50   S    
C68   O43   S    
C18   C38   A    
C73   C89   S    
Cr2   O12   S    
C59   C65   A    
C80   O49   S    
C91   N1    A    
N2    N19   A    
C44   O7    A    
C61   C68   A    
C78   N6    A    
C32   C92   S    
O21   S1    D    
C59   H12   S    
C40   C50   S    
H43   O65   S    
H36   O58   S    
H11   O22   S    
C73   C80   A    
H20   O42   S    
N4    N21   A    
C69   C75   A    
C67   C71   S    
Cr5   O16   S    
C66   O42   S    
C95   N20   A    
C70   O46   S    
C13   C39   A    
Cr5   O3    S    
C18   O53   S    
H25   O47   S    
C90   H4    S    
C14   C40   A    
C49   O8    A    
C87   H2    S    
H17   O39   S    
C22   O58   S    
C2    N8    A    
C30   C37   A    
C12   O67   A    
C62   H44   S    
C22   C42   A    
Cr6   O56   S    
C24   C43   A    
C6    H6    S    
C91   N11   A    
Cr3   O7    S    
C58   H1    S    
H27   O49   S    
C47   O14   A    
H18   O40   S    
C51   C84   A    
C56   O45   A    
O30   S4    D    
N8    N15   A    
C39   C48   S    
C5    C31   A    
C83   O52   S    
