data_mof_unit_20752.cif
_audit_creation_date              2012-12-10T17:59:19-0500
_audit_creation_method            fapswitch 2.2
_symmetry_space_group_name_H-M    P1
_symmetry_Int_Tables_number       1
_space_group_crystal_system       triclinic
_cell_length_a                    10.839228
_cell_length_b                    9.50943
_cell_length_c                    10.793171
_cell_angle_alpha                 89.803933
_cell_angle_beta                  89.469697
_cell_angle_gamma                 89.926709
_cell_volume                      1112.44977457

loop_
_atom_site_label
_atom_site_type_symbol
_atom_type_description
_atom_site_fract_x
_atom_site_fract_y
_atom_site_fract_z
_atom_type_partial_charge
C1    C     C_R   0.262233 0.500416 0.499947 0.833407
C2    C     C_3   0.612062 0.584513 0.922288 -0.448340
C3    C     C_R   0.064416 0.406384 0.423011 -0.117023
C4    C     C_R   0.062341 0.598519 0.574849 -0.129378
C5    C     C_R   0.935125 0.401632 0.427434 0.324174
C6    C     C_R   0.932738 0.596230 0.576567 0.310874
C7    C     C_R   0.871185 0.499031 0.501649 -0.117899
C8    C     C_R   0.127735 0.501736 0.499486 -0.192312
C9    C     C_R   0.436705 0.074759 0.412405 0.006417
C10   C     C_R   0.436324 0.925952 0.412624 0.015667
C11   C     C_R   0.563942 0.925132 0.587347 0.034008
C12   C     C_R   0.563879 0.074004 0.587375 0.015919
C13   C     C_R   0.503393 0.500270 0.259935 0.809607
C14   C     C_R   0.737553 0.499745 0.500613 0.922861
C15   C     C_R   0.499110 0.499248 0.740078 0.832246
C16   C     C_3   0.380099 0.561302 0.076183 -0.494639
C17   C     C_3   0.514284 0.346392 0.074481 -0.467776
C18   C     C_3   0.377861 0.568826 0.931731 0.304299
C19   C     C_3   0.515362 0.341201 0.930950 0.299835
C20   C     C_3   0.616086 0.589977 0.066622 -0.036743
C21   C     C_3   0.505161 0.500884 0.121878 -0.033087
C22   C     C_3   0.499047 0.496892 0.878135 -0.070631
Cu1   Cu    Cu3+1 0.500020 0.640660 0.500000 1.003434
Cu2   Cu    Cu3+1 0.500020 0.359340 0.500000 1.006596
H1    H     H_    0.362938 0.666876 0.117064 0.193642
H2    H     H_    0.597840 0.294283 0.112544 0.212942
H3    H     H_    0.615500 0.868728 0.657041 0.150562
H4    H     H_    0.615430 0.129714 0.657014 0.170456
H5    H     H_    0.303953 0.494004 0.113225 0.169439
H6    H     H_    0.435140 0.285078 0.113536 0.179525
H7    H     H_    0.609224 0.692190 0.881527 0.193653
H8    H     H_    0.698832 0.540828 0.881993 0.188656
H9    H     H_    0.386441 0.130981 0.341943 0.146422
H10   H     H_    0.385066 0.870225 0.342718 0.129538
N1    N     N_R   0.500030 0.852070 0.500030 -0.171744
N2    N     N_R   0.500030 0.147930 0.500030 -0.174133
O1    O     O_R   0.319660 0.618740 0.499990 -0.583368
O2    O     O_R   0.319660 0.381260 0.499990 -0.575020
O3    O     O_R   0.499990 0.618790 0.317690 -0.598225
O4    O     O_R   0.499990 0.381210 0.317690 -0.585475
O5    O     O_R   0.680370 0.618830 0.500010 -0.555656
O6    O     O_R   0.680370 0.381170 0.500010 -0.549062
O7    O     O_R   0.500030 0.618780 0.682310 -0.554756
O8    O     O_R   0.500030 0.381220 0.682310 -0.578885
C23   C     C_1   0.264891 0.498995 0.887278 0.276408
N3    N     N_1   0.176007 0.445028 0.852704 -0.273550
C24   C     C_1   0.415994 0.244645 0.891604 0.313594
N4    N     N_1   0.339189 0.168163 0.860882 -0.245914
O9    O     O_3   0.368820 0.709666 0.890676 -0.691710
H11   H     H_    0.422698 0.770668 0.940925 0.341080
O10   O     O_3   0.626189 0.280619 0.885955 -0.730586
H12   H     H_    0.697177 0.315777 0.933979 0.341400
C25   C     C_1   0.610446 0.738674 0.106626 0.247961
N5    N     N_1   0.606097 0.855008 0.137652 -0.275514
C26   C     C_1   0.735963 0.534950 0.109431 0.213173
N6    N     N_1   0.830308 0.492372 0.142068 -0.232683
C27   C     C_1   0.130833 0.323542 0.331440 0.265978
N7    N     N_1   0.183143 0.257962 0.257632 -0.312902
C28   C     C_1   0.127398 0.701443 0.648535 0.294765
N8    N     N_1   0.178800 0.784418 0.706780 -0.189101
O11   O     O_3   0.867636 0.307722 0.357249 -0.701095
H13   H     H_    0.921223 0.231154 0.326055 0.342373
O12   O     O_3   0.862253 0.684082 0.651522 -0.738504
H14   H     H_    0.914709 0.740271 0.706915 0.334801

loop_
_geom_bond_atom_site_label_1
_geom_bond_atom_site_label_2
_ccdc_geom_bond_type
C6    O12   S    
C2    C22   S    
C9    N2    A    
Cu2   O2    S    
C11   C12   A    
C16   C21   S    
C11   H3    S    
C12   N2    A    
C1    C8    S    
Cu2   O6    S    
C9    C10   A    
C2    H7    S    
C24   N4    T    
Cu1   O5    S    
C14   O6    A    
Cu1   Cu2   S    
C26   N6    T    
C11   N1    A    
C13   C21   S    
C28   N8    T    
C10   H10   S    
Cu2   N2    S    
C25   N5    T    
C9    H9    S    
C17   H6    S    
C27   N7    T    
C6    C7    A    
C1    O2    A    
C12   H4    S    
C20   C26   S    
Cu1   O3    S    
C17   H2    S    
C3    C27   S    
C4    C28   S    
C16   C18   S    
C17   C19   S    
Cu1   O1    S    
C15   O8    A    
C3    C8    A    
Cu1   N1    S    
C14   O5    A    
O11   H13   S    
Cu2   O8    S    
C10   N1    A    
C19   C24   S    
C13   O3    A    
C4    C6    A    
C5    O11   S    
O12   H14   S    
C18   C23   S    
C19   O10   S    
C16   H1    S    
C19   C22   S    
Cu1   O7    S    
C20   C21   S    
C15   O7    A    
C2    H8    S    
O9    H11   S    
C4    C8    A    
C5    C7    A    
C20   C25   S    
C13   O4    A    
Cu2   O4    S    
C16   H5    S    
C18   C22   S    
C23   N3    T    
C2    C20   S    
C15   C22   S    
C7    C14   S    
O10   H12   S    
C18   O9    S    
C1    O1    A    
C3    C5    A    
C17   C21   S    
