data_mof_unit_54805.cif
_audit_creation_date              2012-12-11T16:48:29-0500
_audit_creation_method            fapswitch 2.2
_symmetry_space_group_name_H-M    P1
_symmetry_Int_Tables_number       1
_space_group_crystal_system       triclinic
_cell_length_a                    17.275717
_cell_length_b                    24.27963
_cell_length_c                    14.985764
_cell_angle_alpha                 89.979581
_cell_angle_beta                  125.446616
_cell_angle_gamma                 90.038992
_cell_volume                      5120.723328

loop_
_atom_site_label
_atom_site_type_symbol
_atom_type_description
_atom_site_fract_x
_atom_site_fract_y
_atom_site_fract_z
_atom_type_partial_charge
C1    C     C_R   0.353988 0.347357 0.909526 -0.134317
C2    C     C_R   0.440240 0.498886 0.635988 0.070786
C3    C     C_R   0.096705 0.873609 0.907414 -0.119510
C4    C     C_R   0.382062 0.315327 0.999385 0.069219
C5    C     C_R   0.612083 0.314311 0.997287 0.065109
C6    C     C_R   0.813463 0.858316 0.997076 0.062685
C7    C     C_R   0.186504 0.860458 0.999470 0.062653
C8    C     C_R   0.991077 0.998121 0.317011 0.070050
C9    C     C_R   0.931992 0.997923 0.633387 0.087769
C10   C     C_R   0.186785 0.499561 0.645671 0.086637
C11   C     C_R   0.824932 0.501501 0.270583 0.086292
C12   C     C_R   0.701815 0.000160 0.630777 0.100366
C13   C     C_R   0.318072 0.999032 0.346669 0.089144
C14   C     C_2   0.986822 0.465756 0.353745 -0.127780
C15   C     C_2   0.083046 0.470478 0.454362 -0.126065
C16   C     C_2   0.466116 0.966482 0.386327 -0.118312
C17   C     C_R   0.639628 0.345664 0.087834 -0.142289
C18   C     C_2   0.569049 0.961757 0.457151 -0.131174
C19   C     C_2   0.926560 0.507774 0.322444 -0.183781
C20   C     C_2   0.098448 0.501232 0.537710 -0.203457
C21   C     C_2   0.420388 0.997849 0.415978 -0.206061
C22   C     C_2   0.620867 0.005008 0.516672 -0.190003
C23   C     C_R   0.391374 0.767153 0.100944 0.165152
C24   C     C_R   0.608568 0.765518 0.894005 0.157005
C25   C     C_R   0.754116 0.186991 0.096920 0.173912
C26   C     C_R   0.239014 0.187752 0.896393 0.167168
C27   C     C_R   0.361653 0.741671 0.002087 0.031453
C28   C     C_R   0.810732 0.875502 0.907725 -0.144197
C29   C     C_R   0.635747 0.741562 0.993295 0.033151
C30   C     C_R   0.738574 0.169162 0.998704 0.032798
C31   C     C_R   0.259966 0.166566 0.995181 0.034460
C32   C     C_R   0.300337 0.771320 0.904475 -0.202550
C33   C     C_R   0.694854 0.772301 0.089947 -0.203129
C34   C     C_R   0.652577 0.184469 0.900068 -0.200882
C35   C     C_R   0.347403 0.181255 0.092579 -0.200291
C36   C     C_R   0.599386 0.228012 0.899772 -0.201870
C37   C     C_R   0.397537 0.226726 0.093069 -0.202570
C38   C     C_R   0.251238 0.817080 0.904854 -0.197081
C39   C     C_R   0.188841 0.875409 0.090021 -0.145526
C40   C     C_R   0.745141 0.817368 0.089535 -0.199205
C41   C     C_R   0.632412 0.255831 0.998212 0.031680
C42   C     C_R   0.360156 0.256934 0.995951 0.034003
C43   C     C_R   0.263118 0.832607 0.002635 0.034768
C44   C     C_R   0.736130 0.831030 0.992634 0.037606
C45   C     C_R   0.443137 0.651471 0.090223 -0.158842
C46   C     C_R   0.556794 0.650839 0.908160 -0.142525
C47   C     C_R   0.902562 0.127760 0.089135 -0.139291
C48   C     C_R   0.098725 0.122888 0.908315 -0.147837
C49   C     C_R   0.700986 0.229492 0.096592 0.161821
C50   C     C_R   0.380575 0.683241 0.999664 0.076259
C51   C     C_R   0.288822 0.232274 0.896850 0.154972
C52   C     C_R   0.342428 0.811880 0.101354 0.157618
C53   C     C_R   0.658285 0.809805 0.893655 0.161184
C54   C     C_3   0.783969 0.251866 0.202951 -0.522683
C55   C     C_3   0.202311 0.256297 0.795837 -0.517780
C56   C     C_3   0.355072 0.792686 0.204221 -0.524440
C57   C     C_3   0.649753 0.789264 0.794019 -0.521064
C58   C     C_3   0.408944 0.744115 0.203845 -0.522182
C59   C     C_3   0.595339 0.740890 0.794338 -0.517728
C60   C     C_3   0.842067 0.205805 0.203134 -0.534292
C61   C     C_R   0.617597 0.683320 0.997803 0.076009
C62   C     C_3   0.147672 0.207852 0.795465 -0.524794
C63   C     C_R   0.400172 0.447521 0.471273 0.151307
C64   C     C_R   0.402762 0.447142 0.381046 0.165713
C65   C     C_R   0.904734 0.945594 0.476627 0.157187
C66   C     C_R   0.925996 0.946360 0.401431 0.164344
C67   C     C_R   0.403803 0.497358 0.520397 0.032047
C68   C     C_R   0.407859 0.496725 0.336699 0.032822
C69   C     C_R   0.899188 0.995364 0.520108 0.031290
C70   C     C_R   0.942651 0.996505 0.369638 0.042327
C71   C     C_R   0.384134 0.546139 0.459900 -0.196838
C72   C     C_R   0.813708 0.142093 0.997633 0.070046
C73   C     C_R   0.385650 0.545753 0.367469 -0.199190
C74   C     C_R   0.886548 0.044336 0.463135 -0.203416
C75   C     C_R   0.909482 0.045008 0.388061 -0.199850
C76   C     C_3   0.464591 0.396853 0.420901 -0.522446
C77   C     C_3   0.460940 0.397172 0.518900 -0.516732
C78   C     C_3   0.985375 0.895491 0.446556 -0.529130
C79   C     C_3   0.963522 0.894621 0.530116 -0.523256
C80   C     C_R   0.479726 0.452978 0.247385 -0.146084
C81   C     C_R   0.453289 0.453385 0.698625 -0.147031
C82   C     C_R   0.009778 0.952920 0.277340 -0.145264
C83   C     C_R   0.186778 0.138743 0.998760 0.070357
C84   C     C_R   0.947879 0.953067 0.697175 -0.163192
C85   C     C_R   0.238427 0.545500 0.704765 -0.163028
C86   C     C_R   0.766896 0.546344 0.245281 -0.171993
C87   C     C_R   0.747241 0.045297 0.696352 -0.187859
C88   C     C_R   0.264139 0.045074 0.292743 -0.159874
C89   C     C_R   0.481563 0.545148 0.251014 -0.124390
C90   C     C_R   0.455532 0.545081 0.698813 -0.120790
C91   C     C_R   0.009888 0.044515 0.279184 -0.136490
C92   C     C_R   0.949850 0.044396 0.696052 -0.137752
C93   C     C_R   0.239549 0.453661 0.704661 0.065975
C94   C     C_R   0.452075 0.498523 0.278047 0.071937
C95   C     C_R   0.768930 0.454798 0.248632 0.070138
C96   C     C_R   0.749165 0.954090 0.695141 0.054457
C97   C     C_R   0.261313 0.953771 0.294089 0.035082
C98   C     C_R   0.349746 0.651229 0.908164 -0.120594
C99   C     C_R   0.647853 0.652092 0.090125 -0.134887
C100  C     C_R   0.810722 0.126715 0.906335 -0.125580
C101  C     C_R   0.189152 0.126565 0.091216 -0.120430
C102  C     C_R   0.443076 0.347061 0.091084 -0.141948
C103  C     C_R   0.555523 0.347510 0.906914 -0.120405
C104  C     C_R   0.903937 0.869430 0.089656 -0.117649
H1    H     H_    0.322403 0.332608 0.827453 0.113101
H2    H     H_    0.712086 0.757943 0.167818 0.123756
H3    H     H_    0.632453 0.168303 0.822111 0.125119
H4    H     H_    0.370888 0.162792 0.170162 0.127014
H5    H     H_    0.541098 0.243985 0.821586 0.123063
H6    H     H_    0.457622 0.241694 0.171098 0.123449
H7    H     H_    0.195940 0.835020 0.827057 0.126055
H8    H     H_    0.799032 0.836293 0.166965 0.125186
H9    H     H_    0.808602 0.292587 0.195042 0.200179
H10   H     H_    0.179386 0.295978 0.810666 0.205141
H11   H     H_    0.400552 0.821063 0.274245 0.185567
H12   H     H_    0.666390 0.329912 0.168206 0.114680
H13   H     H_    0.605312 0.816748 0.722118 0.189639
H14   H     H_    0.774271 0.248438 0.269888 0.192081
H15   H     H_    0.207297 0.256217 0.725125 0.189486
H16   H     H_    0.287604 0.779931 0.191811 0.203624
H17   H     H_    0.718860 0.776846 0.810385 0.203151
H18   H     H_    0.485523 0.744737 0.273238 0.188537
H19   H     H_    0.519582 0.740584 0.722652 0.187651
H20   H     H_    0.898188 0.221685 0.195124 0.198193
H21   H     H_    0.094155 0.220432 0.810338 0.200864
H22   H     H_    0.371716 0.704420 0.191400 0.199652
H23   H     H_    0.750547 0.875209 0.823600 0.119335
H24   H     H_    0.633815 0.701299 0.810802 0.204839
H25   H     H_    0.866394 0.175885 0.270620 0.188267
H26   H     H_    0.120812 0.180048 0.724219 0.192015
H27   H     H_    0.378802 0.585382 0.490032 0.124894
H28   H     H_    0.381525 0.584724 0.329935 0.126829
H29   H     H_    0.873471 0.083214 0.487362 0.125043
H30   H     H_    0.910841 0.084125 0.354564 0.120743
H31   H     H_    0.427909 0.360673 0.366645 0.190341
H32   H     H_    0.531483 0.405241 0.596894 0.205169
H33   H     H_    0.953075 0.860331 0.388325 0.186534
H34   H     H_    0.248844 0.873282 0.173411 0.119434
H35   H     H_    0.028550 0.901434 0.614289 0.199330
H36   H     H_    0.537461 0.404860 0.443954 0.200958
H37   H     H_    0.421503 0.361412 0.520457 0.185385
H38   H     H_    0.061899 0.903123 0.483725 0.198399
H39   H     H_    0.919620 0.858616 0.520910 0.189121
H40   H     H_    0.493339 0.665764 0.173060 0.101438
H41   H     H_    0.507373 0.664201 0.824471 0.098004
H42   H     H_    0.929800 0.135056 0.172388 0.101521
H43   H     H_    0.073347 0.123876 0.823671 0.111783
H44   H     H_    0.465036 0.410319 0.251163 0.111024
H45   H     H_    0.954806 0.548988 0.351705 0.135373
H46   H     H_    0.432129 0.411506 0.670651 0.098150
H47   H     H_    0.014842 0.910763 0.300908 0.098186
H48   H     H_    0.924979 0.911268 0.670097 0.104509
H49   H     H_    0.223244 0.587824 0.677142 0.104595
H50   H     H_    0.787053 0.589141 0.253469 0.110344
H51   H     H_    0.737035 0.087544 0.668646 0.099526
H52   H     H_    0.284241 0.087286 0.318706 0.096386
H53   H     H_    0.471360 0.587784 0.262259 0.093375
H54   H     H_    0.439334 0.587351 0.671322 0.084379
H55   H     H_    0.017032 0.085971 0.308551 0.084591
H56   H     H_    0.043934 0.527750 0.529066 0.140294
H57   H     H_    0.931934 0.086425 0.667376 0.084401
H58   H     H_    0.311266 0.665071 0.824223 0.082073
H59   H     H_    0.684289 0.667035 0.173147 0.083659
H60   H     H_    0.752722 0.131664 0.821188 0.093569
H61   H     H_    0.246380 0.134959 0.175035 0.089858
H62   H     H_    0.489419 0.332642 0.174586 0.084292
H63   H     H_    0.510546 0.334684 0.822226 0.082870
H64   H     H_    0.931779 0.856715 0.171650 0.085532
H65   H     H_    0.069782 0.868209 0.822543 0.091912
H66   H     H_    0.964096 0.425423 0.317245 0.120293
H67   H     H_    0.457618 0.024451 0.487458 0.138331
H68   H     H_    0.137763 0.443773 0.464344 0.124694
H69   H     H_    0.427196 0.939743 0.315031 0.125645
H70   H     H_    0.597285 0.920703 0.470864 0.119291
H71   H     H_    0.244031 0.394013 0.614189 0.079063
H72   H     H_    0.150773 0.389530 0.623520 0.107776
H73   H     H_    0.856185 0.397646 0.360135 0.103244
H74   H     H_    0.825159 0.387027 0.230783 0.090197
H75   H     H_    0.752311 0.902270 0.591173 0.095387
H76   H     H_    0.682664 0.881164 0.631874 0.080800
H77   H     H_    0.275483 0.907483 0.414187 0.105654
H78   H     H_    0.590256 0.046015 0.490683 0.135971
H79   H     H_    0.339673 0.885500 0.369478 0.089830
H80   H     H_    0.280838 0.755758 0.826381 0.124358
N1    N     N_R   0.395410 0.396350 0.944340 -0.037345
N2    N     N_R   0.474920 0.471030 0.794350 -0.039890
N3    N     N_R   0.025080 0.971030 0.205650 -0.037578
N4    N     N_R   0.974920 0.971030 0.794350 -0.036539
N5    N     N_R   0.320260 0.527820 0.794570 -0.048561
N6    N     N_R   0.679740 0.527820 0.205430 -0.049565
N7    N     N_R   0.820260 0.027820 0.794570 -0.043489
N8    N     N_R   0.179740 0.027820 0.205430 -0.046375
N9    N     N_R   0.524590 0.527840 0.205200 -0.041588
N10   N     N_R   0.475410 0.527840 0.794800 -0.040082
N11   N     N_R   0.024590 0.027840 0.205200 -0.037703
N12   N     N_R   0.604590 0.396350 0.055660 -0.038253
N13   N     N_R   0.975410 0.027840 0.794800 -0.037895
N14   N     N_R   0.320750 0.471000 0.795020 -0.051037
N15   N     N_R   0.679250 0.471000 0.204980 -0.053245
N16   N     N_R   0.820750 0.971000 0.795020 -0.048903
N17   N     N_R   0.179250 0.971000 0.204980 -0.048129
N18   N     N_R   0.393620 0.602490 0.942710 -0.037702
N19   N     N_R   0.606380 0.602490 0.057290 -0.036658
N20   N     N_R   0.893620 0.102490 0.942710 -0.040901
N21   N     N_R   0.106380 0.102490 0.057290 -0.041695
N22   N     N_R   0.451720 0.396350 0.057510 -0.038256
N23   N     N_R   0.895410 0.896350 0.944340 -0.039946
N24   N     N_R   0.548280 0.396350 0.942490 -0.039545
N25   N     N_R   0.951720 0.896350 0.057510 -0.040742
N26   N     N_R   0.048280 0.896350 0.942490 -0.040960
N27   N     N_3   0.223384 0.397998 0.666996 -0.231622
N28   N     N_3   0.800481 0.399226 0.276866 -0.228662
N29   N     N_3   0.746858 0.899745 0.656949 -0.226969
N30   N     N_3   0.273494 0.901183 0.343882 -0.226088
N31   N     N_R   0.104590 0.896350 0.055660 -0.039899
N32   N     N_R   0.449930 0.602500 0.055880 -0.037351
N33   N     N_R   0.550070 0.602500 0.944120 -0.037892
N34   N     N_R   0.949930 0.102500 0.055880 -0.041592
N35   N     N_R   0.050070 0.102500 0.944120 -0.042100
N36   N     N_R   0.525080 0.471030 0.205650 -0.042362
Ni1   Ni    Ni4+2 0.435420 0.434270 0.870230 0.205922
Ni2   Ni    Ni4+2 0.564580 0.434270 0.129770 0.208452
Ni3   Ni    Ni4+2 0.935420 0.934270 0.870230 0.215754
Ni4   Ni    Ni4+2 0.064580 0.934270 0.129770 0.218098
Ni5   Ni    Ni4+2 0.563430 0.564580 0.128740 0.205971
Ni6   Ni    Ni4+2 0.436570 0.564580 0.871260 0.203691
Ni7   Ni    Ni4+2 0.063430 0.064580 0.128740 0.210558
Ni8   Ni    Ni4+2 0.936570 0.064580 0.871260 0.207521

loop_
_geom_bond_atom_site_label_1
_geom_bond_atom_site_label_2
_ccdc_geom_bond_type
C16   H69   S    
N5    N14   A    
C23   C58   S    
C79   H35   S    
C5    C103  A    
C10   C85   A    
N23   Ni3   S    
C16   C21   D    
C65   C79   S    
C29   C33   A    
C74   H29   S    
N9    N36   A    
N6    Ni5   S    
C62   H26   S    
N5    Ni6   S    
C14   H66   S    
N31   Ni4   S    
N36   Ni2   S    
C75   H30   S    
N18   Ni6   S    
C54   C60   S    
C103  H63   S    
C11   C19   S    
N7    Ni8   S    
C8    C82   A    
C95   N28   S    
C64   C68   A    
H73   N28   S    
C87   N7    A    
H76   N29   S    
C35   C37   A    
C9    C69   S    
C3    C7    A    
C32   C38   A    
C78   H38   S    
C63   C77   S    
N15   Ni2   S    
N7    N16   A    
C43   C52   A    
C57   C59   S    
C46   H41   S    
C5    C17   A    
N3    Ni4   S    
C17   N12   A    
C11   C86   A    
C85   N5    A    
C81   H46   S    
C54   H9    S    
C12   C22   S    
C89   C94   A    
C45   N32   A    
C31   C83   S    
C60   H20   S    
C37   C42   A    
C2    C90   A    
C95   N15   A    
C24   C29   A    
C28   N23   A    
C35   H4    S    
C44   C53   A    
N8    Ni7   S    
C79   H39   S    
C10   C20   S    
C4    C102  A    
C93   N27   S    
C45   H40   S    
N8    N17   A    
H77   N30   S    
C25   C60   S    
C7    C43   S    
N35   Ni8   S    
N20   Ni8   S    
C51   C55   S    
C82   H47   S    
C27   C50   S    
N33   Ni6   S    
C99   N19   A    
C3    N26   A    
C26   C62   S    
C73   H28   S    
C26   C31   A    
C102  H62   S    
C46   N33   A    
C6    C44   S    
C13   C97   A    
C56   H16   S    
H75   N29   S    
C36   C41   A    
C61   C99   A    
C104  N25   A    
N1    N22   A    
C9    C92   A    
C41   C49   A    
C98   H58   S    
C76   H31   S    
C32   H80   S    
N6    N15   A    
C29   C61   S    
C23   C27   A    
C76   H36   S    
C59   H19   S    
C15   C20   D    
C66   C78   S    
C47   N34   A    
C63   C67   A    
C58   H18   S    
C33   C40   A    
C50   C98   A    
C74   C75   A    
C30   C34   A    
C46   C61   A    
C13   C21   S    
N14   Ni1   S    
C76   C77   S    
C40   H8    S    
C2    C67   S    
C86   N6    A    
C71   C73   A    
C53   C57   S    
C78   C79   S    
C3    H65   S    
C55   H15   S    
C10   C93   A    
C68   C73   A    
C21   H67   S    
C57   H17   S    
C68   C94   S    
C96   N29   S    
C63   C64   A    
N20   N34   A    
N12   N24   A    
N4    Ni3   S    
C98   N18   A    
C104  H64   S    
C91   N11   A    
C90   N10   A    
C92   H57   S    
C80   H44   S    
C89   N9    A    
C59   H24   S    
C64   C76   S    
H74   N28   S    
C69   C74   A    
C100  H60   S    
C8    C91   A    
C85   H49   S    
C103  N24   A    
C101  H61   S    
C102  N22   A    
C37   H6    S    
C101  N21   A    
C99   H59   S    
C18   H70   S    
C55   C62   S    
C77   H32   S    
N2    Ni1   S    
C58   H22   S    
H71   N27   S    
C97   N30   S    
C54   H14   S    
C47   H42   S    
C31   C35   A    
C84   N4    A    
C55   H10   S    
C34   H3    S    
C80   C94   A    
C92   N13   A    
C88   H52   S    
C78   H33   S    
C84   H48   S    
C81   N2    A    
N19   Ni5   S    
C57   H13   S    
C72   C100  A    
C11   C95   A    
C25   C30   A    
C88   N8    A    
C5    C41   S    
N21   N35   A    
N26   Ni3   S    
C83   C101  A    
C12   C87   A    
N3    N11   A    
C27   C32   A    
C18   C22   D    
N16   Ni3   S    
C91   H55   S    
C14   C19   D    
N2    N10   A    
C33   H2    S    
N32   Ni5   S    
C97   N17   A    
C36   H5    S    
C60   H25   S    
C80   N36   A    
C62   H21   S    
C30   C72   S    
C28   H23   S    
H72   N27   S    
C89   H53   S    
C87   H51   S    
C1    N1    A    
C24   C53   A    
C42   C51   A    
C67   C71   A    
C8    C70   S    
C6    C104  A    
C48   C83   A    
N11   Ni7   S    
C82   N3    A    
C1    C4    A    
C39   N31   A    
N10   Ni6   S    
C93   N14   A    
N24   Ni1   S    
N9    Ni5   S    
C38   C43   A    
C22   H78   S    
C96   N16   A    
C26   C51   A    
C45   C50   A    
C100  N20   A    
C23   C52   A    
C66   C70   A    
C4    C42   S    
N4    N13   A    
H79   N30   S    
C24   C59   S    
C65   C69   A    
C13   C88   A    
C19   H45   S    
C56   H11   S    
C56   C58   S    
N34   Ni7   S    
N21   Ni7   S    
C34   C36   A    
C86   H50   S    
N25   Ni4   S    
N19   N33   A    
C25   C49   A    
C47   C72   A    
C39   H34   S    
C9    C84   A    
C71   H27   S    
C15   H68   S    
C38   H7    S    
N13   Ni8   S    
C52   C56   S    
C6    C28   A    
C40   C44   A    
C90   H54   S    
C77   H37   S    
C16   C18   S    
C65   C66   A    
C20   H56   S    
C70   C75   A    
N23   N25   A    
N22   Ni2   S    
C7    C39   A    
C14   C15   S    
C12   C96   A    
C2    C81   A    
N1    Ni1   S    
N17   Ni4   S    
N18   N32   A    
N26   N31   A    
N12   Ni2   S    
C49   C54   S    
C17   H12   S    
C1    H1    S    
C48   H43   S    
C48   N35   A    
