data_mof_unit_65831.cif
_audit_creation_date              2013-03-05T16:25:35-0500
_audit_creation_method            fapswitch 2.2
_symmetry_space_group_name_H-M    P1
_symmetry_Int_Tables_number       1
_space_group_crystal_system       triclinic
_cell_length_a                    18.260639
_cell_length_b                    30.618587
_cell_length_c                    30.618722
_cell_angle_alpha                 90.006151
_cell_angle_beta                  89.998833
_cell_angle_gamma                 90.082692
_cell_volume                      17119.3677139

loop_
_atom_site_label
_atom_site_type_symbol
_atom_site_description
_atom_site_fract_x
_atom_site_fract_y
_atom_site_fract_z
_atom_type_partial_charge
O1    O     O_R   0.500000 0.730040 0.321660 -0.608169
O2    O     O_R   0.500000 0.730040 0.678340 -0.605478
O3    O     O_R   0.000000 0.230040 0.321660 -0.608355
O4    O     O_R   1.000000 0.230040 0.678340 -0.605603
O5    O     O_R   0.000000 0.730040 0.821660 -0.608638
O6    O     O_R   1.000000 0.730040 0.178340 -0.593585
O7    O     O_R   0.500000 0.230040 0.821660 -0.616429
O8    O     O_R   0.500000 0.230040 0.178340 -0.606402
O9    O     O_R   0.500000 0.678320 0.269940 -0.614313
O10   O     O_R   0.500000 0.678320 0.730060 -0.625241
O11   O     O_R   1.000000 0.178320 0.269940 -0.615075
O12   O     O_R   1.000000 0.178320 0.730060 -0.625290
O13   O     O_R   1.000000 0.678320 0.769940 -0.613154
O14   O     O_R   1.000000 0.678320 0.230060 -0.629356
O15   O     O_R   0.500000 0.178320 0.769940 -0.615834
O16   O     O_R   0.500000 0.178320 0.230060 -0.607084
C1    C     C_R   0.499625 0.689988 0.309934 0.876818
C2    C     C_R   0.499031 0.689917 0.689965 0.879836
C3    C     C_R   0.999690 0.189991 0.309927 0.873753
C4    C     C_R   0.999050 0.189919 0.689965 0.879075
C5    C     C_R   0.000173 0.689985 0.809932 0.884709
C6    C     C_R   0.001744 0.689928 0.189942 0.882775
C7    C     C_R   0.499980 0.190001 0.809935 0.910018
C8    C     C_R   0.499904 0.190007 0.190115 0.883396
O17   O     O_R   0.392670 0.775850 0.275850 -0.616403
O18   O     O_R   0.392670 0.775850 0.724150 -0.613689
O19   O     O_R   0.607330 0.775850 0.275850 -0.611886
O20   O     O_R   0.607330 0.775850 0.724150 -0.602391
O21   O     O_R   0.892670 0.275850 0.275850 -0.616082
O22   O     O_R   0.892670 0.275850 0.724150 -0.613979
O23   O     O_R   0.107330 0.275850 0.275850 -0.614659
O24   O     O_R   0.107330 0.275850 0.724150 -0.603325
O25   O     O_R   0.892670 0.775850 0.775850 -0.613564
O26   O     O_R   0.892670 0.775850 0.224150 -0.615184
O27   O     O_R   0.107330 0.775850 0.775850 -0.615197
O28   O     O_R   0.107330 0.775850 0.224150 -0.605714
O29   O     O_R   0.392670 0.275850 0.775850 -0.610955
O30   O     O_R   0.392670 0.275850 0.224150 -0.615106
O31   O     O_R   0.607330 0.275850 0.775850 -0.615289
O32   O     O_R   0.607330 0.275850 0.224150 -0.615132
O33   O     O_R   0.392690 0.724130 0.224130 -0.622047
O34   O     O_R   0.392690 0.724130 0.775870 -0.625704
O35   O     O_R   0.607310 0.724130 0.224130 -0.610115
O36   O     O_R   0.607310 0.724130 0.775870 -0.617866
O37   O     O_R   0.892690 0.224130 0.224130 -0.625613
O38   O     O_R   0.892690 0.224130 0.775870 -0.625093
O39   O     O_R   0.107310 0.224130 0.224130 -0.599151
O40   O     O_R   0.107310 0.224130 0.775870 -0.614475
O41   O     O_R   0.892690 0.724130 0.724130 -0.602202
O42   O     O_R   0.892690 0.724130 0.275870 -0.606212
O43   O     O_R   0.107310 0.724130 0.724130 -0.624495
O44   O     O_R   0.107310 0.724130 0.275870 -0.627530
O45   O     O_R   0.392690 0.224130 0.724130 -0.602650
O46   O     O_R   0.392690 0.224130 0.275870 -0.600720
O47   O     O_R   0.607310 0.224130 0.724130 -0.625714
O48   O     O_R   0.607310 0.224130 0.275870 -0.625155
C9    C     C_R   0.358976 0.749977 0.249972 0.916709
C10   C     C_R   0.358979 0.749977 0.750028 0.917442
C11   C     C_R   0.641025 0.750029 0.249975 0.952295
C12   C     C_R   0.641023 0.749999 0.749973 0.952317
C13   C     C_R   0.858976 0.249975 0.249973 0.914652
C14   C     C_R   0.858979 0.249978 0.750028 0.916979
C15   C     C_R   0.141028 0.250034 0.249977 0.953451
C16   C     C_R   0.141024 0.249994 0.749978 0.953799
C17   C     C_R   0.858976 0.750055 0.749899 0.958755
C18   C     C_R   0.858977 0.749977 0.250021 0.922465
C19   C     C_R   0.141024 0.749984 0.750017 0.917442
C20   C     C_R   0.141021 0.749988 0.249985 0.924593
C21   C     C_R   0.358976 0.250049 0.749905 0.962042
C22   C     C_R   0.358977 0.250017 0.250056 0.954176
C23   C     C_R   0.641024 0.249988 0.750013 0.917582
C24   C     C_R   0.641021 0.249983 0.249981 0.916726
Zn1   Zn    Zn3+2 0.500000 0.784520 0.284530 1.011630
Zn2   Zn    Zn3+2 0.500000 0.784520 0.715470 1.023301
Zn3   Zn    Zn3+2 1.000000 0.284520 0.284530 1.009327
Zn4   Zn    Zn3+2 1.000000 0.284520 0.715470 1.023053
Zn5   Zn    Zn3+2 1.000000 0.784520 0.784530 1.001185
Zn6   Zn    Zn3+2 1.000000 0.784520 0.215470 1.023669
Zn7   Zn    Zn3+2 0.500000 0.284520 0.784530 1.002094
Zn8   Zn    Zn3+2 0.500000 0.284520 0.215470 0.997586
Zn9   Zn    Zn3+2 0.500000 0.715450 0.215460 0.994801
Zn10  Zn    Zn3+2 0.500000 0.715450 0.784540 0.991583
Zn11  Zn    Zn3+2 1.000000 0.215450 0.215460 1.010598
Zn12  Zn    Zn3+2 1.000000 0.215450 0.784540 0.994670
Zn13  Zn    Zn3+2 1.000000 0.715450 0.715460 0.995938
Zn14  Zn    Zn3+2 1.000000 0.715450 0.284540 0.982093
Zn15  Zn    Zn3+2 0.500000 0.215450 0.715460 0.993644
Zn16  Zn    Zn3+2 0.500000 0.215450 0.284540 0.996473
O49   O     O_R   0.500000 0.821650 0.230050 -0.624846
O50   O     O_R   0.500000 0.821650 0.769950 -0.627246
O51   O     O_R   1.000000 0.321650 0.230050 -0.627288
O52   O     O_R   1.000000 0.321650 0.769950 -0.627230
O53   O     O_R   1.000000 0.821650 0.730050 -0.626041
O54   O     O_R   1.000000 0.821650 0.269950 -0.624978
O55   O     O_R   0.500000 0.321650 0.730050 -0.626167
O56   O     O_R   0.500000 0.321650 0.269950 -0.626181
O57   O     O_R   0.500000 0.769930 0.178330 -0.623160
O58   O     O_R   0.500000 0.769930 0.821670 -0.616733
O59   O     O_R   0.000000 0.269930 0.178330 -0.616200
O60   O     O_R   1.000000 0.269930 0.821670 -0.616398
O61   O     O_R   0.000000 0.769930 0.678330 -0.623329
O62   O     O_R   1.000000 0.769930 0.321670 -0.622822
O63   O     O_R   0.500000 0.269930 0.678330 -0.623324
O64   O     O_R   0.500000 0.269930 0.321670 -0.624286
C25   C     C_R   0.499853 0.809929 0.190006 0.867941
C26   C     C_R   0.499853 0.809934 0.809998 0.870371
C27   C     C_R   0.999850 0.309936 0.189999 0.869647
C28   C     C_R   0.999860 0.309929 0.809994 0.869959
C29   C     C_R   0.000138 0.809935 0.689998 0.869237
C30   C     C_R   0.000127 0.809928 0.309995 0.870204
C31   C     C_R   0.500138 0.309935 0.689998 0.869388
C32   C     C_R   0.500124 0.309928 0.309995 0.869157
C33   C     C_1   0.282419 0.749965 0.249932 -0.179636
C34   C     C_1   0.282422 0.749963 0.750067 -0.180761
C35   C     C_1   0.717583 0.750034 0.250012 -0.126902
C36   C     C_1   0.717578 0.750063 0.749869 -0.155755
C37   C     C_1   0.782419 0.249961 0.249933 -0.182683
C38   C     C_1   0.782422 0.249964 0.750065 -0.180293
C39   C     C_1   0.217585 0.250074 0.250029 -0.129552
C40   C     C_1   0.217579 0.250030 0.749901 -0.151050
C41   C     C_1   0.782419 0.750102 0.749813 -0.139262
C42   C     C_1   0.782421 0.749990 0.250045 -0.152774
C43   C     C_1   0.217581 0.749975 0.750062 -0.181531
C44   C     C_1   0.217578 0.749978 0.249938 -0.176958
C45   C     C_1   0.282418 0.250064 0.749850 -0.154424
C46   C     C_1   0.282423 0.250061 0.250093 -0.134354
C47   C     C_1   0.717581 0.249978 0.750058 -0.180143
C48   C     C_1   0.717578 0.249973 0.249936 -0.182969
C49   C     C_R   0.563152 0.647698 0.365274 0.025592
C50   C     C_R   0.550815 0.657823 0.623791 0.031775
C51   C     C_R   0.063571 0.147055 0.364593 0.025393
C52   C     C_R   0.051153 0.157651 0.623968 0.031012
C53   C     C_R   0.936687 0.647543 0.865319 0.041661
C54   C     C_R   0.954814 0.659489 0.121721 0.021230
C55   C     C_R   0.454902 0.159103 0.878147 0.052882
C56   C     C_R   0.434634 0.142536 0.140036 0.042211
C57   C     C_R   0.499434 0.656657 0.342131 -0.049073
C58   C     C_R   0.499607 0.656511 0.657505 -0.063900
C59   C     C_R   0.999467 0.156662 0.342109 -0.047677
C60   C     C_R   0.999607 0.156519 0.657504 -0.063304
C61   C     C_R   0.000371 0.656645 0.842124 -0.056698
C62   C     C_R   0.001942 0.656609 0.157327 -0.054256
C63   C     C_R   0.501167 0.157027 0.842429 -0.061608
C64   C     C_R   0.500374 0.156686 0.158028 -0.049673
C65   C     C_R   0.439121 0.628564 0.345550 -0.186659
C66   C     C_R   0.454586 0.619652 0.662486 -0.177284
C67   C     C_R   0.938491 0.129175 0.346120 -0.186528
C68   C     C_R   0.954216 0.119806 0.662349 -0.177574
C69   C     C_R   0.060794 0.628728 0.845560 -0.190238
C70   C     C_R   0.042801 0.618309 0.163708 -0.175446
C71   C     C_R   0.548749 0.121100 0.838574 -0.199220
C72   C     C_R   0.565013 0.133647 0.149785 -0.192618
H1    H     H_    0.391036 0.633261 0.325357 0.141951
H2    H     H_    0.417246 0.616927 0.689858 0.151778
H3    H     H_    0.889996 0.134350 0.326398 0.141653
H4    H     H_    0.916607 0.117208 0.689602 0.151651
H5    H     H_    0.108828 0.633526 0.825326 0.143598
H6    H     H_    0.077284 0.614394 0.192231 0.155334
H7    H     H_    0.585787 0.118321 0.811071 0.155002
H8    H     H_    0.615581 0.142275 0.166203 0.140944
C73   C     C_R   0.439348 0.595855 0.377169 -0.197695
C74   C     C_R   0.454472 0.587444 0.630374 -0.204033
C75   C     C_R   0.938702 0.096451 0.377720 -0.197088
C76   C     C_R   0.954108 0.087591 0.630242 -0.204132
C77   C     C_R   0.060732 0.596054 0.877219 -0.200845
C78   C     C_R   0.042609 0.586051 0.131576 -0.212026
C79   C     C_R   0.549227 0.088899 0.871073 -0.209810
C80   C     C_R   0.565014 0.100831 0.118298 -0.195245
H9    H     H_    0.391004 0.575751 0.381388 0.162166
H10   H     H_    0.417013 0.560092 0.633020 0.147619
H11   H     H_    0.889926 0.076824 0.382390 0.163185
H12   H     H_    0.916375 0.060362 0.632773 0.147914
H13   H     H_    0.109091 0.576035 0.881387 0.163470
H14   H     H_    0.077309 0.557608 0.135237 0.148512
H15   H     H_    0.586399 0.061490 0.868233 0.152308
H16   H     H_    0.616055 0.084659 0.110441 0.168089
C81   C     C_R   0.500971 0.590685 0.404156 -0.065539
C82   C     C_R   0.501597 0.591518 0.594491 -0.042910
C83   C     C_R   0.000886 0.090690 0.404137 -0.067007
C84   C     C_R   0.001599 0.091505 0.594509 -0.043173
C85   C     C_R   0.999225 0.590801 0.904290 -0.073218
C86   C     C_R   0.998532 0.591372 0.094478 -0.070554
C87   C     C_R   0.500614 0.092164 0.906595 -0.061381
C88   C     C_R   0.499869 0.090811 0.095891 -0.077271
C89   C     C_R   0.564411 0.614485 0.395303 0.102689
C90   C     C_R   0.553357 0.624891 0.593421 0.095359
C91   C     C_R   0.064710 0.113885 0.394667 0.103570
C92   C     C_R   0.053685 0.124705 0.593615 0.095103
C93   C     C_R   0.935809 0.614513 0.895558 0.107817
C94   C     C_R   0.949875 0.626171 0.092059 0.129451
C95   C     C_R   0.453961 0.127578 0.908630 0.096828
C96   C     C_R   0.434310 0.109731 0.109537 0.102605
C97   C     C_3   0.615305 0.638500 0.425172 -0.529562
C98   C     C_3   0.573674 0.655095 0.557020 -0.569284
C99   C     C_3   0.117113 0.137434 0.423985 -0.527535
C100  C     C_3   0.074744 0.154819 0.557284 -0.567685
C101  C     C_3   0.885230 0.638482 0.925553 -0.548020
C102  C     C_3   0.932216 0.656255 0.055067 -0.570830
C103  C     C_3   0.395874 0.148829 0.935445 -0.560497
C104  C     C_3   0.372991 0.129777 0.084069 -0.532261
C105  C     C_3   0.613326 0.676043 0.392086 -0.149301
C106  C     C_3   0.569670 0.692239 0.590445 -0.121027
C107  C     C_3   0.115365 0.174910 0.390806 -0.150912
C108  C     C_3   0.070720 0.191990 0.590688 -0.121359
C109  C     C_3   0.886332 0.675730 0.892081 -0.160455
C110  C     C_3   0.940051 0.693939 0.087735 -0.125671
C111  C     C_3   0.395966 0.185111 0.900035 -0.145609
C112  C     C_3   0.373218 0.166651 0.118013 -0.163720
H17   H     H_    0.589716 0.645811 0.457291 0.215085
H18   H     H_    0.531092 0.656123 0.531039 0.223939
H19   H     H_    0.669109 0.621693 0.427690 0.212556
H20   H     H_    0.629696 0.648092 0.544601 0.215111
H21   H     H_    0.092620 0.145099 0.456335 0.215560
H22   H     H_    0.032520 0.155992 0.531100 0.224178
H23   H     H_    0.170473 0.120070 0.426028 0.212765
H24   H     H_    0.130846 0.147609 0.545115 0.214915
H25   H     H_    0.831652 0.621410 0.928577 0.214290
H26   H     H_    0.875605 0.650958 0.042744 0.233300
H27   H     H_    0.911369 0.646217 0.957406 0.213333
H28   H     H_    0.974873 0.655204 0.029105 0.198496
H29   H     H_    0.345168 0.128690 0.936657 0.216219
H30   H     H_    0.323252 0.108768 0.084744 0.212890
H31   H     H_    0.416860 0.159151 0.967947 0.227364
H32   H     H_    0.390246 0.139615 0.050636 0.216357
C113  C     C_R   0.542935 0.878838 0.159809 0.130963
C114  C     C_R   0.541960 0.879254 0.839819 0.134386
C115  C     C_R   0.041812 0.379315 0.160237 0.134376
C116  C     C_R   0.042750 0.378921 0.840116 0.133843
C117  C     C_R   0.958072 0.879224 0.660219 0.132306
C118  C     C_R   0.957221 0.878861 0.340102 0.132689
C119  C     C_R   0.458091 0.379231 0.660227 0.132315
C120  C     C_R   0.457225 0.378864 0.340099 0.132846
C121  C     C_R   0.498327 0.842448 0.157049 -0.091133
C122  C     C_R   0.498346 0.842461 0.842970 -0.090727
C123  C     C_R   0.998349 0.342463 0.157024 -0.090997
C124  C     C_R   0.998341 0.342450 0.842954 -0.089608
C125  C     C_R   0.001560 0.842453 0.657010 -0.092211
C126  C     C_R   0.001564 0.842438 0.342972 -0.090466
C127  C     C_R   0.501559 0.342454 0.657010 -0.092212
C128  C     C_R   0.501560 0.342438 0.342972 -0.089682
C129  C     C_R   0.452217 0.837966 0.120453 -0.199578
C130  C     C_R   0.453249 0.837596 0.879973 -0.198232
C131  C     C_R   0.953407 0.337540 0.119960 -0.197774
C132  C     C_R   0.952435 0.337890 0.879633 -0.198050
C133  C     C_R   0.046407 0.837577 0.619909 -0.202402
C134  C     C_R   0.047282 0.837889 0.379725 -0.201755
C135  C     C_R   0.546387 0.337570 0.619901 -0.202415
C136  C     C_R   0.547270 0.337886 0.379728 -0.201334
H33   H     H_    0.416257 0.809985 0.117151 0.166216
H34   H     H_    0.418056 0.809309 0.883597 0.164900
H35   H     H_    0.918332 0.309208 0.116283 0.165115
H36   H     H_    0.916630 0.309845 0.882999 0.164763
H37   H     H_    0.081477 0.809304 0.616223 0.164710
H38   H     H_    0.083008 0.809876 0.383130 0.163591
H39   H     H_    0.581443 0.309291 0.616209 0.164711
H40   H     H_    0.582991 0.309870 0.383135 0.163777
C137  C     C_R   0.451861 0.870473 0.088234 -0.207042
C138  C     C_R   0.452882 0.870104 0.912192 -0.207155
C139  C     C_R   0.953037 0.370049 0.087747 -0.206692
C140  C     C_R   0.952075 0.370397 0.911854 -0.206726
C141  C     C_R   0.046724 0.870067 0.587680 -0.208739
C142  C     C_R   0.047593 0.870380 0.411959 -0.207790
C143  C     C_R   0.546704 0.370061 0.587672 -0.208722
C144  C     C_R   0.547583 0.370378 0.411962 -0.208377
H41   H     H_    0.415755 0.867225 0.060338 0.159752
H42   H     H_    0.417555 0.866559 0.940406 0.158705
H43   H     H_    0.917831 0.366458 0.059485 0.158840
H44   H     H_    0.916127 0.367090 0.939816 0.159381
H45   H     H_    0.081905 0.866526 0.559407 0.158237
H46   H     H_    0.083442 0.867097 0.439962 0.158404
H47   H     H_    0.581870 0.366513 0.559393 0.158194
H48   H     H_    0.583427 0.367092 0.439967 0.158457
C145  C     C_R   0.499345 0.906524 0.092124 -0.094429
C146  C     C_R   0.499362 0.906558 0.907878 -0.092859
C147  C     C_R   0.999360 0.406567 0.092127 -0.093263
C148  C     C_R   0.999354 0.406530 0.907878 -0.094316
C149  C     C_R   0.000436 0.906519 0.592077 -0.092771
C150  C     C_R   0.000446 0.906486 0.407926 -0.093050
C151  C     C_R   0.500436 0.406520 0.592077 -0.092733
C152  C     C_R   0.500445 0.406487 0.407925 -0.093356
C153  C     C_R   0.544539 0.909096 0.128215 0.131347
C154  C     C_R   0.543572 0.909536 0.871395 0.132609
C155  C     C_R   0.043419 0.409604 0.128671 0.131739
C156  C     C_R   0.044354 0.409186 0.871709 0.132230
C157  C     C_R   0.956402 0.909489 0.628632 0.131182
C158  C     C_R   0.955560 0.909108 0.371710 0.131713
C159  C     C_R   0.456420 0.409498 0.628640 0.131112
C160  C     C_R   0.455566 0.409112 0.371707 0.132200
C161  C     C_3   0.601128 0.936142 0.150495 -0.484434
C162  C     C_3   0.598837 0.937123 0.848613 -0.492518
C163  C     C_3   0.098475 0.437271 0.151540 -0.493182
C164  C     C_3   0.100674 0.436344 0.849330 -0.489074
C165  C     C_3   0.901502 0.937123 0.651560 -0.492528
C166  C     C_3   0.899517 0.936280 0.349220 -0.487892
C167  C     C_3   0.401547 0.437142 0.651578 -0.492466
C168  C     C_3   0.399533 0.436288 0.349213 -0.488139
C169  C     C_3   0.599888 0.901084 0.186617 -0.477839
C170  C     C_3   0.597617 0.902046 0.812500 -0.474566
C171  C     C_3   0.097267 0.402186 0.187638 -0.474659
C172  C     C_3   0.099442 0.401280 0.813205 -0.476717
C173  C     C_3   0.902774 0.902065 0.687681 -0.475407
C174  C     C_3   0.900803 0.901233 0.313080 -0.475387
C175  C     C_3   0.402818 0.402082 0.687698 -0.475328
C176  C     C_3   0.400817 0.401241 0.313074 -0.477824
H49   H     H_    0.653406 0.937293 0.131935 0.218079
H50   H     H_    0.651545 0.938786 0.866696 0.218224
H51   H     H_    0.579329 0.968299 0.161178 0.202578
H52   H     H_    0.575893 0.969063 0.838141 0.198030
H53   H     H_    0.151247 0.439022 0.133531 0.217460
H54   H     H_    0.153041 0.437600 0.867794 0.217309
H55   H     H_    0.075345 0.469168 0.162001 0.196900
H56   H     H_    0.078642 0.468458 0.838696 0.201343
H57   H     H_    0.924745 0.969052 0.661961 0.197383
H58   H     H_    0.921779 0.968396 0.338647 0.201334
H59   H     H_    0.848664 0.938814 0.633624 0.217966
H60   H     H_    0.847042 0.937532 0.367569 0.218478
H61   H     H_    0.424812 0.469065 0.661976 0.197271
H62   H     H_    0.421805 0.468403 0.338641 0.200779
H63   H     H_    0.348701 0.438842 0.633651 0.218041
H64   H     H_    0.347055 0.437546 0.367559 0.218208
H65   H     H_    0.651277 0.881777 0.188723 0.205295
H66   H     H_    0.649465 0.883238 0.809918 0.206366
H67   H     H_    0.577877 0.913071 0.218263 0.215753
H68   H     H_    0.574478 0.913815 0.781063 0.214320
H69   H     H_    0.149184 0.383456 0.190282 0.205482
H70   H     H_    0.150928 0.382076 0.811000 0.206784
H71   H     H_    0.073959 0.413915 0.219048 0.214193
H72   H     H_    0.077201 0.413222 0.781603 0.214697
H73   H     H_    0.926230 0.913840 0.719049 0.214317
H74   H     H_    0.923297 0.913193 0.281534 0.215091
H75   H     H_    0.850827 0.883287 0.690414 0.204760
H76   H     H_    0.849241 0.882027 0.310751 0.206659
H77   H     H_    0.426296 0.413852 0.719063 0.214147
H78   H     H_    0.423319 0.413198 0.281528 0.214279
H79   H     H_    0.350863 0.383314 0.690440 0.204928
H80   H     H_    0.349250 0.382039 0.310742 0.206023
O65   O     O_R   0.439370 0.954170 0.954170 -0.623883
O66   O     O_R   0.439370 0.954170 0.045830 -0.623767
O67   O     O_R   0.560630 0.954170 0.954170 -0.619539
O68   O     O_R   0.560630 0.954170 0.045830 -0.619115
O69   O     O_R   0.939370 0.454170 0.954170 -0.624266
O70   O     O_R   0.939370 0.454170 0.045830 -0.623514
O71   O     O_R   0.060630 0.454170 0.954170 -0.619970
O72   O     O_R   0.060630 0.454170 0.045830 -0.620201
O73   O     O_R   0.939370 0.954170 0.454170 -0.619445
O74   O     O_R   0.939370 0.954170 0.545830 -0.619965
O75   O     O_R   0.060630 0.954170 0.454170 -0.624055
O76   O     O_R   0.060630 0.954170 0.545830 -0.623679
O77   O     O_R   0.439370 0.454170 0.454170 -0.619557
O78   O     O_R   0.439370 0.454170 0.545830 -0.619959
O79   O     O_R   0.560630 0.454170 0.454170 -0.624294
O80   O     O_R   0.560630 0.454170 0.545830 -0.623679
C177  C     C_R   0.499916 0.939889 0.939951 0.883868
C178  C     C_R   0.499914 0.939867 0.060039 0.885485
C179  C     C_R   0.999915 0.439871 0.939960 0.884988
C180  C     C_R   0.999915 0.439897 0.060055 0.883661
C181  C     C_R   0.000019 0.939867 0.439965 0.884007
C182  C     C_R   0.000018 0.939889 0.560047 0.882788
C183  C     C_R   0.500019 0.439868 0.439964 0.883926
C184  C     C_R   0.500018 0.439889 0.560048 0.882871
O81   O     O_R   0.439410 0.545780 0.454170 -0.623732
O82   O     O_R   0.439410 0.545780 0.545830 -0.617052
O83   O     O_R   0.560590 0.545780 0.454170 -0.618760
O84   O     O_R   0.560590 0.545780 0.545830 -0.618483
O85   O     O_R   0.939410 0.045780 0.454170 -0.624054
O86   O     O_R   0.939410 0.045780 0.545830 -0.617246
O87   O     O_R   0.060590 0.045780 0.454170 -0.618595
O88   O     O_R   0.060590 0.045780 0.545830 -0.618561
O89   O     O_R   0.939410 0.545780 0.954170 -0.617073
O90   O     O_R   0.939410 0.545780 0.045830 -0.613512
O91   O     O_R   0.060590 0.545780 0.954170 -0.625638
O92   O     O_R   0.060590 0.545780 0.045830 -0.619572
O93   O     O_R   0.439410 0.045780 0.954170 -0.618920
O94   O     O_R   0.439410 0.045780 0.045830 -0.618171
O95   O     O_R   0.560590 0.045780 0.954170 -0.622405
O96   O     O_R   0.560590 0.045780 0.045830 -0.627385
C185  C     C_R   0.500111 0.559971 0.439472 0.881216
C186  C     C_R   0.500165 0.560079 0.560210 0.880791
C187  C     C_R   0.000103 0.059983 0.439475 0.881467
C188  C     C_R   0.000165 0.060079 0.560213 0.880781
C189  C     C_R   0.999967 0.559999 0.939510 0.880811
C190  C     C_R   0.999883 0.559950 0.060282 0.882512
C191  C     C_R   0.500086 0.060020 0.939884 0.889648
C192  C     C_R   0.500024 0.060064 0.060498 0.886064
Zn17  Zn    Zn3+2 0.419100 0.999980 0.000000 0.974618
Zn18  Zn    Zn3+2 0.580900 0.999980 0.000000 0.971872
Zn19  Zn    Zn3+2 0.919100 0.499980 0.000000 0.978827
Zn20  Zn    Zn3+2 0.080900 0.499980 0.000000 0.970316
Zn21  Zn    Zn3+2 0.919100 0.999980 0.500000 0.975351
Zn22  Zn    Zn3+2 0.080900 0.999980 0.500000 0.975079
Zn23  Zn    Zn3+2 0.419100 0.499980 0.500000 0.975259
Zn24  Zn    Zn3+2 0.580900 0.499980 0.500000 0.974573
C193  C     C_2   0.576961 0.716890 0.409853 0.963691
O97   O     O_2   0.606086 0.752622 0.405380 -0.587734
O98   O     O_R   0.509505 0.713656 0.431308 -0.796030
H81   H     H_    0.490687 0.743007 0.441691 0.353539
C194  C     C_2   0.508001 0.724080 0.581097 0.959440
O99   O     O_2   0.519929 0.763392 0.579850 -0.600655
O100  O     O_R   0.437020 0.708345 0.573976 -0.797071
H82   H     H_    0.400568 0.732612 0.568221 0.345128
C195  C     C_2   0.686746 0.684172 0.370532 0.939714
O101  O     O_2   0.694469 0.678746 0.331211 -0.642372
O102  O     O_R   0.745734 0.698390 0.395945 -0.763119
H83   H     H_    0.791844 0.703016 0.378074 0.348302
C196  C     C_2   0.643128 0.713769 0.598523 0.949840
O103  O     O_2   0.670376 0.713681 0.635035 -0.635060
O104  O     O_R   0.679259 0.734368 0.563926 -0.757666
H84   H     H_    0.727643 0.747790 0.573130 0.349882
C197  C     C_2   0.080773 0.216208 0.408788 0.962454
O105  O     O_2   0.110793 0.251611 0.403820 -0.588777
O106  O     O_R   0.013917 0.213777 0.431001 -0.795437
H85   H     H_    0.996288 0.243368 0.441449 0.353803
C198  C     C_2   0.009461 0.224036 0.581093 0.959512
O107  O     O_2   0.021768 0.263309 0.579908 -0.600937
O108  O     O_R   0.938420 0.208539 0.573674 -0.797008
H86   H     H_    0.902262 0.232928 0.567777 0.345146
C199  C     C_2   0.188385 0.182163 0.368463 0.939610
O109  O     O_2   0.194828 0.176448 0.329100 -0.643483
O110  O     O_R   0.248495 0.195905 0.393193 -0.763530
H87   H     H_    0.294205 0.199971 0.374828 0.348725
C200  C     C_2   0.144288 0.213272 0.599059 0.949625
O111  O     O_2   0.171130 0.213085 0.635677 -0.635911
O112  O     O_R   0.180992 0.233758 0.564611 -0.758449
H88   H     H_    0.229397 0.247018 0.574008 0.349746
C201  C     C_2   0.812835 0.682745 0.870446 0.949845
O113  O     O_2   0.761413 0.696532 0.891985 -0.583043
O114  O     O_R   0.803427 0.673297 0.826108 -0.818083
H89   H     H_    0.751424 0.678642 0.815860 0.349333
C202  C     C_2   0.869289 0.718031 0.096979 0.933926
O115  O     O_2   0.867554 0.757969 0.096384 -0.592799
O116  O     O_R   0.805780 0.694433 0.106951 -0.797763
H90   H     H_    0.762223 0.714047 0.112911 0.348865
C203  C     C_2   0.921620 0.717411 0.908888 0.962698
O117  O     O_2   0.980042 0.715884 0.928427 -0.602529
O118  O     O_R   0.887802 0.757740 0.901705 -0.767605
H91   H     H_    0.916878 0.783038 0.914236 0.348993
C204  C     C_2   0.004136 0.723278 0.075553 0.967674
O119  O     O_2   0.062319 0.721252 0.095225 -0.621553
O120  O     O_R   0.996744 0.751874 0.040232 -0.745656
H92   H     H_    0.042873 0.769445 0.034562 0.349117
C205  C     C_2   0.325410 0.186860 0.874214 0.949216
O121  O     O_2   0.268953 0.198563 0.892211 -0.581740
O122  O     O_R   0.324404 0.175006 0.830105 -0.823270
H93   H     H_    0.273705 0.177189 0.816799 0.346628
C206  C     C_2   0.304321 0.167842 0.145411 0.942844
O123  O     O_2   0.245780 0.176899 0.128275 -0.584146
O124  O     O_R   0.307408 0.158760 0.190147 -0.807030
H94   H     H_    0.257608 0.160470 0.204679 0.357047
C207  C     C_2   0.422747 0.229232 0.915841 0.955980
O125  O     O_2   0.478636 0.231870 0.937758 -0.600474
O126  O     O_R   0.384126 0.267127 0.904978 -0.775842
H95   H     H_    0.407752 0.294507 0.917209 0.341963
C208  C     C_2   0.395274 0.210867 0.099775 0.942129
O127  O     O_2   0.448320 0.214031 0.075533 -0.600404
O128  O     O_R   0.355534 0.248224 0.111080 -0.774171
H96   H     H_    0.375965 0.275699 0.097157 0.346592

loop_
_geom_bond_atom_site_label_1
_geom_bond_atom_site_label_2
_geom_bond_distance
_ccdc_geom_bond_type
C199  O110  1.397800 S    
C110  C202  1.515458 S    
O114  H89   1.013643 S    
O29   C21   1.277575 A    
C102  C110  1.533472 S    
C86   C190  1.422091 S    
C201  O113  1.223080 D    
C146  C154  1.381199 A    
C175  H79   1.111673 S    
O45   C21   1.277863 A    
O1    Zn1   2.018774 S    
O34   C10   1.277852 A    
C174  H76   1.111677 S    
C53   C93   1.371291 A    
C204  O119  1.222979 D    
C84   C188  1.424424 S    
O17   C9    1.277656 A    
C56   C96   1.371409 A    
O93   Zn17  2.017948 S    
O84   Zn24  2.018481 S    
C49   C89   1.371255 A    
C194  O100  1.399238 S    
C97   H19   1.112440 S    
C99   C107  1.532984 S    
C161  H49   1.111496 S    
C97   C105  1.532770 S    
O12   Zn12  2.018573 S    
C176  H78   1.111501 S    
O86   C188  1.270848 A    
C101  C109  1.533491 S    
C105  C195  1.514584 S    
O48   C24   1.277727 A    
C18   C42   1.397953 S    
O3    C3    1.277755 A    
C146  C177  1.416256 S    
O39   Zn11  1.994853 S    
C100  C108  1.531926 S    
C83   C187  1.433570 S    
C50   C106  1.506855 S    
O57   C25   1.275807 A    
C22   C46   1.397922 S    
C63   C71   1.407712 A    
C108  C200  1.514099 S    
C198  O108  1.399235 S    
O92   C190  1.270539 A    
C130  C138  1.401355 A    
C52   C92   1.372361 A    
C102  H26   1.112128 S    
C14   C38   1.397978 S    
C106  C194  1.517805 S    
O71   C179  1.268363 A    
C16   C40   1.397955 S    
O16   Zn16  2.018573 S    
Zn3   O51   2.018777 S    
C78   H14   1.083585 S    
C162  H50   1.111481 S    
C36   C41   1.184036 T    
O87   C187  1.270046 A    
Zn12  O60   2.018570 S    
O51   C27   1.277644 A    
C137  H41   1.083503 S    
O67   Zn18  2.017827 S    
C40   C45   1.184003 T    
C169  H65   1.111680 S    
C111  C205  1.512662 S    
C133  H37   1.083427 S    
O10   Zn10  2.018573 S    
C114  C170  1.489174 S    
O71   Zn20  2.017827 S    
C114  C154  1.339797 A    
C53   C109  1.504626 S    
C164  H56   1.111751 S    
C85   C189  1.432767 S    
O22   Zn4   1.995211 S    
O46   C22   1.278090 A    
O12   C4    1.278163 A    
O28   C20   1.277841 A    
C125  C133  1.408442 A    
O93   C191  1.267960 A    
O24   C16   1.277618 A    
O38   Zn12  1.995616 S    
O82   Zn23  2.017747 S    
O38   C14   1.277859 A    
O70   C180  1.266692 A    
O72   Zn20  2.018023 S    
C73   C81   1.405228 A    
C50   C58   1.393368 A    
C174  H74   1.111502 S    
O7    Zn7   2.018774 S    
C93   C101  1.495657 S    
O89   Zn19  2.017948 S    
O84   C186  1.266648 A    
C19   C43   1.397985 S    
C147  C180  1.416351 S    
O96   C192  1.271810 A    
C67   H3    1.083688 S    
C161  H51   1.111729 S    
C167  H63   1.111478 S    
C193  O97   1.223504 D    
C162  H52   1.111770 S    
O58   C26   1.275981 A    
C161  C169  1.541492 S    
C176  H80   1.111677 S    
O44   Zn14  1.994850 S    
C145  C153  1.381407 A    
Zn1   O49   2.018777 S    
C196  O103  1.223683 D    
O46   Zn16  1.995616 S    
Zn2   O50   2.018578 S    
C33   C44   1.184033 T    
O65   C177  1.266665 A    
O10   C2    1.278149 A    
O90   C190  1.265736 A    
C159  C167  1.488638 S    
C160  C168  1.488713 S    
C206  O123  1.223045 D    
C37   C48   1.184035 T    
C205  O122  1.398577 S    
O33   C9    1.277760 A    
C82   C90   1.391326 A    
C39   C46   1.183978 T    
C49   C57   1.390010 A    
C156  C164  1.488724 S    
C3    C59   1.418654 S    
O13   Zn13  2.018774 S    
O31   C23   1.277765 A    
C1    C57   1.419028 S    
C86   C94   1.390329 A    
C80   H16   1.083078 S    
C197  O105  1.223507 D    
O19   Zn1   1.995955 S    
C135  C143  1.401317 A    
C71   H7    1.083486 S    
C136  C144  1.401283 A    
C51   C91   1.371178 A    
C106  C196  1.514092 S    
C200  O111  1.223682 D    
C138  C146  1.407455 A    
O110  H87   1.013964 S    
C78   C86   1.401811 A    
C133  C141  1.401319 A    
O26   C18   1.277612 A    
C119  C175  1.489179 S    
C195  O101  1.223512 D    
C168  H62   1.111758 S    
C169  H67   1.111502 S    
C202  O115  1.223433 D    
C153  C161  1.488741 S    
C65   C73   1.393026 A    
O96   Zn18  2.018481 S    
O63   C31   1.275911 A    
Zn6   O54   2.018578 S    
O88   C188  1.266665 A    
C88   C192  1.435449 S    
C71   C79   1.400943 A    
O70   Zn19  2.018776 S    
O48   Zn16  1.994850 S    
O100  H82   1.013723 S    
C70   C78   1.394004 A    
C15   C39   1.397992 S    
C158  C166  1.488711 S    
C2    C58   1.426154 S    
O68   Zn18  2.018023 S    
O52   C28   1.277563 A    
C70   H6    1.083466 S    
C151  C184  1.416337 S    
C87   C191  1.416984 S    
C32   C128  1.418007 S    
C140  H44   1.083509 S    
C147  C155  1.381212 A    
C141  H45   1.083525 S    
O35   C11   1.277725 A    
C49   C105  1.504750 S    
C143  H47   1.083523 S    
C170  H68   1.111505 S    
O66   C178  1.266814 A    
O37   Zn11  1.995598 S    
O94   C192  1.271485 A    
Zn16  O64   2.018570 S    
O20   C12   1.277412 A    
C167  H61   1.111767 S    
O21   C13   1.277663 A    
O60   C28   1.275883 A    
C166  C174  1.541523 S    
C163  H55   1.111727 S    
C68   C76   1.392527 A    
O23   C15   1.277617 A    
C69   C77   1.393091 A    
O14   Zn14  2.018573 S    
O64   C32   1.275833 A    
C96   C104  1.496901 S    
C9    C33   1.397983 S    
C148  C156  1.381346 A    
C207  O126  1.398832 S    
C149  C157  1.381213 A    
C151  C159  1.381210 A    
O83   Zn24  2.018703 S    
C98   H18   1.112905 S    
C100  H22   1.112965 S    
O65   Zn17  2.018559 S    
O116  H90   1.013882 S    
O27   C19   1.277764 A    
C110  C204  1.520704 S    
C6    C62   1.427525 S    
O5    C5    1.277878 A    
O45   Zn15  1.995598 S    
O43   C19   1.277650 A    
O36   C12   1.278208 A    
C139  C147  1.407448 A    
C122  C130  1.408414 A    
C112  C208  1.518403 S    
C17   C41   1.397981 S    
O80   C184  1.266635 A    
C75   C83   1.405484 A    
O35   Zn9   1.994853 S    
C12   C36   1.397936 S    
C38   C47   1.184033 T    
C34   C43   1.184035 T    
C165  C173  1.541538 S    
C138  H42   1.083517 S    
C75   H11   1.083208 S    
C109  C201  1.512317 S    
C5    C61   1.419107 S    
C121  C129  1.408221 A    
C168  C176  1.541526 S    
C76   H12   1.083599 S    
O32   C24   1.277853 A    
O73   C181  1.268403 A    
C90   C98   1.494775 S    
O88   Zn22  2.018481 S    
C134  C142  1.401285 A    
O24   Zn4   1.995973 S    
C30   C126  1.418002 S    
C61   C69   1.400676 A    
O1    C1    1.277784 A    
C114  C122  1.382059 A    
C173  H75   1.111673 S    
O68   C178  1.268442 A    
O14   C6    1.279160 A    
C64   C72   1.398890 A    
C67   C75   1.392975 A    
C194  O99   1.223516 D    
O13   C5    1.275510 A    
C163  H53   1.111478 S    
O25   Zn5   1.995214 S    
C148  C179  1.416653 S    
C58   C66   1.403624 A    
O7    C7    1.277391 A    
O8    C8    1.277710 A    
C79   H15   1.083597 S    
O17   Zn1   1.995215 S    
O47   Zn15  1.994853 S    
O47   C23   1.277651 A    
C74   C82   1.401030 A    
C51   C59   1.389877 A    
O78   C184  1.268328 A    
O126  H95   1.013953 S    
C140  C148  1.407634 A    
C141  C149  1.407450 A    
C104  C112  1.534480 S    
C207  O125  1.224013 D    
O49   C25   1.277494 A    
C10   C34   1.397981 S    
O86   Zn21  2.017747 S    
C165  H57   1.111771 S    
O53   C29   1.277680 A    
Zn14  O62   2.018570 S    
C28   C124  1.417968 S    
C198  O107  1.223518 D    
C116  C172  1.489074 S    
Zn10  O58   2.018570 S    
C117  C173  1.489179 S    
C162  C170  1.541524 S    
O20   Zn2   1.995973 S    
C87   C95   1.381316 A    
C66   C74   1.392510 A    
O11   C3    1.275418 A    
C167  C175  1.541538 S    
C120  C160  1.339854 A    
O36   Zn10  1.994850 S    
O39   C15   1.277865 A    
C100  H24   1.112514 S    
O40   C16   1.278007 A    
C83   C91   1.394416 A    
O61   C29   1.275912 A    
O6    C6    1.278994 A    
O95   Zn18  2.018703 S    
C81   C89   1.394319 A    
C127  C135  1.408447 A    
C208  O128  1.398923 S    
C11   C35   1.398002 S    
O74   C182  1.268331 A    
C84   C92   1.391389 A    
C85   C93   1.393576 A    
C203  O118  1.398839 S    
C132  C140  1.401377 A    
C170  H66   1.111679 S    
C88   C96   1.394719 A    
C172  H70   1.111681 S    
O8    Zn8   2.018572 S    
C113  C153  1.339831 A    
C118  C174  1.489071 S    
C51   C107  1.504557 S    
C145  C178  1.416918 S    
C99   H23   1.112437 S    
C76   C84   1.401118 A    
O76   C182  1.266637 A    
O81   Zn23  2.017948 S    
C21   C45   1.397987 S    
O128  H96   1.013801 S    
C144  H48   1.083513 S    
Zn11  O59   2.018771 S    
C201  O114  1.398560 S    
C23   C47   1.397990 S    
O75   C181  1.266704 A    
C101  H25   1.112439 S    
C72   C80   1.392423 A    
C199  O109  1.223562 D    
O91   Zn20  2.018703 S    
C204  O120  1.398222 S    
O76   Zn22  2.018023 S    
C7    C63   1.417741 S    
O73   Zn21  2.018559 S    
O85   Zn21  2.017948 S    
O124  H94   1.013814 S    
C130  H34   1.083424 S    
O50   C26   1.277661 A    
C120  C176  1.489072 S    
C56   C112  1.503378 S    
C134  H38   1.083435 S    
C155  C163  1.488649 S    
C13   C37   1.397985 S    
O27   Zn5   1.995955 S    
O37   C13   1.277751 A    
C115  C155  1.339855 A    
O31   Zn7   1.995955 S    
C55   C111  1.497940 S    
O120  H92   1.013816 S    
C152  C160  1.381345 A    
Zn7   O55   2.018777 S    
C142  H46   1.083513 S    
O29   Zn7   1.995214 S    
C57   C65   1.400392 A    
O23   Zn3   1.995955 S    
C74   H10   1.083600 S    
O33   Zn9   1.995598 S    
O82   C186  1.270809 A    
C136  H40   1.083436 S    
C129  H33   1.083433 S    
C131  C139  1.401413 A    
O66   Zn17  2.018776 S    
O18   C10   1.277731 A    
C55   C95   1.342894 A    
C165  H59   1.111478 S    
O41   C17   1.277870 A    
C166  H60   1.111489 S    
C149  C182  1.416344 S    
O30   C22   1.277532 A    
O22   C14   1.277722 A    
O62   C30   1.275833 A    
C103  H31   1.112072 S    
O19   C11   1.277704 A    
C94   C102  1.495481 S    
C171  H71   1.111503 S    
C150  C158  1.381346 A    
O98   H81   1.013727 S    
C168  H64   1.111489 S    
O89   C189  1.269834 A    
C52   C60   1.393365 A    
O59   C27   1.275935 A    
C112  C206  1.512620 S    
C53   C61   1.390504 A    
C113  C121  1.381826 A    
O77   C183  1.268401 A    
C4    C60   1.426047 S    
C131  H35   1.083419 S    
C81   C185  1.433218 S    
C56   C64   1.389508 A    
O94   Zn17  2.017747 S    
O69   Zn19  2.018559 S    
C54   C94   1.368635 A    
O75   Zn22  2.017827 S    
C8    C64   1.416344 S    
C143  C151  1.407447 A    
Zn5   O53   2.018777 S    
O56   C32   1.277629 A    
O54   C30   1.277629 A    
C172  H72   1.111502 S    
C99   H21   1.111999 S    
O6    Zn6   2.018572 S    
O11   Zn11  2.018774 S    
O106  H85   1.013726 S    
C128  C136  1.408237 A    
Zn9   O57   2.018771 S    
O28   Zn6   1.995973 S    
O43   Zn13  1.994853 S    
C68   H4    1.083569 S    
C101  H27   1.111193 S    
C69   H5    1.083694 S    
C135  H39   1.083427 S    
C72   H8    1.083737 S    
O2    C2    1.279164 A    
O90   Zn19  2.017747 S    
O16   C8    1.274380 A    
O102  H83   1.013953 S    
O34   Zn10  1.995616 S    
C62   C70   1.404502 A    
C60   C68   1.403557 A    
C20   C44   1.397977 S    
C82   C186  1.424324 S    
O25   C17   1.277570 A    
O80   Zn24  2.018023 S    
C193  O98   1.399382 S    
C59   C67   1.400167 A    
C150  C181  1.416627 S    
C129  C137  1.401452 A    
C24   C48   1.397983 S    
C164  C172  1.541511 S    
C173  H73   1.111505 S    
C95   C103  1.491458 S    
C196  O104  1.397889 S    
C108  C198  1.517772 S    
C54   C62   1.391832 A    
C77   H13   1.083225 S    
C142  C150  1.407620 A    
O91   C189  1.271998 A    
C113  C169  1.489030 S    
C119  C127  1.382152 A    
C206  O124  1.398874 S    
C144  C152  1.407620 A    
C166  H58   1.111752 S    
C79   C87   1.407538 A    
C80   C88   1.406725 A    
O92   Zn20  2.018481 S    
O104  H84   1.013829 S    
O32   Zn8   1.995973 S    
C103  H29   1.112337 S    
Zn8   O56   2.018578 S    
C163  C171  1.541505 S    
C107  C197  1.517638 S    
O2    Zn2   2.018572 S    
C65   H1    1.083682 S    
C116  C156  1.339782 A    
O15   C7    1.275709 A    
C117  C157  1.339921 A    
C200  O112  1.397885 S    
C35   C42   1.183996 T    
C119  C159  1.339924 A    
C126  C134  1.408233 A    
C26   C122  1.418360 S    
C195  O102  1.397811 S    
O79   C183  1.266704 A    
C202  O116  1.399236 S    
C109  C203  1.518647 S    
C116  C124  1.381873 A    
O81   C185  1.272242 A    
C104  H32   1.112504 S    
O41   Zn13  1.995598 S    
O112  H88   1.013833 S    
O74   Zn21  2.018776 S    
O85   C187  1.272204 A    
C31   C127  1.418589 S    
O40   Zn12  1.994850 S    
C66   H2    1.083565 S    
O69   C179  1.266758 A    
C154  C162  1.488657 S    
C97   H17   1.111670 S    
O108  H86   1.013721 S    
C107  C199  1.514749 S    
C123  C131  1.408467 A    
C104  H30   1.112415 S    
C118  C158  1.339849 A    
C103  C111  1.552370 S    
O78   Zn23  2.018776 S    
O42   C18   1.278003 A    
C54   C110  1.506423 S    
O72   C180  1.268281 A    
C52   C108  1.506852 S    
C105  C193  1.517668 S    
Zn4   O52   2.018578 S    
O9    C1    1.275594 A    
Zn15  O63   2.018771 S    
C118  C126  1.381918 A    
C197  O106  1.399384 S    
O83   C185  1.269810 A    
Zn13  O61   2.018771 S    
O3    Zn3   2.018774 S    
O15   Zn15  2.018774 S    
C27   C123  1.418559 S    
C132  H36   1.083432 S    
C91   C99   1.496426 S    
C25   C121  1.418007 S    
C102  H28   1.113433 S    
C117  C125  1.382151 A    
C89   C97   1.496229 S    
O77   Zn23  2.018559 S    
O44   C20   1.277745 A    
C50   C90   1.372432 A    
O87   Zn22  2.018703 S    
O21   Zn3   1.995215 S    
O4    C4    1.279095 A    
C29   C125  1.418580 S    
C115  C123  1.382087 A    
C137  C145  1.407716 A    
C152  C183  1.416624 S    
C77   C85   1.404952 A    
C124  C132  1.408242 A    
C73   H9    1.083228 S    
O122  H93   1.013772 S    
O55   C31   1.277683 A    
O26   Zn6   1.995211 S    
C205  O121  1.223063 D    
O30   Zn8   1.995211 S    
C139  H43   1.083517 S    
C55   C63   1.383429 A    
O79   Zn24  2.017827 S    
O18   Zn2   1.995211 S    
C208  O127  1.224051 D    
O4    Zn4   2.018572 S    
C98   H20   1.112515 S    
C164  H54   1.111491 S    
O42   Zn14  1.995616 S    
O118  H91   1.013824 S    
C115  C171  1.489159 S    
C92   C100  1.494883 S    
C98   C106  1.531753 S    
C171  H69   1.111675 S    
C203  O117  1.224099 D    
O67   C177  1.268259 A    
C157  C165  1.488638 S    
C111  C207  1.515379 S    
C120  C128  1.381920 A    
C175  H77   1.111506 S    
O5    Zn5   2.018774 S    
O9    Zn9   2.018774 S    
O95   C191  1.266315 A    
