data_mof_unit_28753.cif
_audit_creation_date              2013-03-05T16:04:07-0500
_audit_creation_method            fapswitch 2.2
_symmetry_space_group_name_H-M    P1
_symmetry_Int_Tables_number       1
_space_group_crystal_system       triclinic
_cell_length_a                    10.795798
_cell_length_b                    9.517616
_cell_length_c                    10.824447
_cell_angle_alpha                 90.912083
_cell_angle_beta                  90.423929
_cell_angle_gamma                 89.89767
_cell_volume                      1112.04183338

loop_
_atom_site_label
_atom_site_type_symbol
_atom_site_description
_atom_site_fract_x
_atom_site_fract_y
_atom_site_fract_z
_atom_type_partial_charge
O1    O     O_R   0.319640 0.618740 0.499990 -0.513711
O2    O     O_R   0.680360 0.618740 0.500010 -0.515139
O3    O     O_R   0.319620 0.381170 0.499990 -0.544392
O4    O     O_R   0.680380 0.381170 0.500010 -0.529577
C1    C     C_R   0.262387 0.500206 0.498887 0.924868
C2    C     C_R   0.737577 0.499718 0.500921 0.944480
O5    O     O_R   0.500000 0.618810 0.319650 -0.521923
O6    O     O_R   0.500000 0.618810 0.680350 -0.495162
O7    O     O_R   0.499970 0.381240 0.319640 -0.548650
O8    O     O_R   0.500030 0.381240 0.680360 -0.563281
C3    C     C_R   0.511312 0.499266 0.262740 0.889710
C4    C     C_R   0.491671 0.502327 0.738142 0.867735
Cu1   Cu    Cu3+1 0.500000 0.640660 0.500000 1.202721
Cu2   Cu    Cu3+1 0.500000 0.359340 0.500000 1.159535
H1    H     H_    0.470617 0.279810 0.108634 0.226204
H2    H     H_    0.454980 0.284434 0.885948 0.230714
C5    C     C_R   0.613691 0.739614 0.119822 0.503099
C6    C     C_R   0.488129 0.773342 0.896492 0.553296
C7    C     C_R   0.610022 0.870985 0.064744 0.473180
C8    C     C_R   0.541295 0.889245 0.957040 0.478100
C9    C     C_R   0.506723 0.635758 0.942395 -0.172120
C10   C     C_R   0.549559 0.624240 0.065042 -0.195900
C11   C     C_R   0.523500 0.498895 0.128544 0.018142
C12   C     C_R   0.485024 0.508928 0.873456 0.017350
C13   C     C_R   0.488541 0.377751 0.062376 -0.033914
C14   C     C_R   0.475357 0.381478 0.935479 -0.077911
C15   C     C_R   0.063317 0.423530 0.406535 0.231145
C16   C     C_R   0.933997 0.421557 0.409735 0.227527
C17   C     C_R   0.871442 0.498555 0.502106 -0.301391
C18   C     C_R   0.128442 0.501425 0.497611 -0.314400
C19   C     C_R   0.936509 0.576588 0.593098 0.233516
C20   C     C_R   0.065825 0.578753 0.589770 0.214559
C21   C     C_R   0.425367 0.073083 0.420506 0.554381
C22   C     C_R   0.575250 0.075625 0.578971 0.582771
C23   C     C_R   0.425038 0.924362 0.420754 0.560733
C24   C     C_R   0.575222 0.926916 0.578917 0.611868
N1    N     N_R   0.500000 0.852070 0.500000 -0.336503
N2    N     N_R   0.500000 0.147940 0.500000 -0.358826
F1    F     F_    0.686299 0.723834 0.221694 -0.574122
F2    F     F_    0.405779 0.799617 0.804428 -0.554423
F3    F     F_    0.668276 0.982187 0.119235 -0.522973
F4    F     F_    0.526482 0.019653 0.910482 -0.566128
N3    N     N_R   0.127704 0.353005 0.307395 0.191236
O9    O     O_R   0.097782 0.225494 0.274082 -0.169395
O10   O     O_R   0.211503 0.419125 0.245124 -0.316590
N4    N     N_R   0.865777 0.350185 0.313635 0.163292
O11   O     O_R   0.824316 0.419842 0.219480 -0.276170
O12   O     O_R   0.835682 0.218839 0.325672 -0.222115
N5    N     N_R   0.872055 0.646534 0.692540 0.184858
O13   O     O_R   0.900956 0.774406 0.725603 -0.177663
O14   O     O_R   0.788928 0.579681 0.755083 -0.326777
N6    N     N_R   0.133997 0.651115 0.685291 0.176203
O15   O     O_R   0.182391 0.581048 0.775897 -0.307324
O16   O     O_R   0.158721 0.784073 0.674700 -0.205658
F5    F     F_    0.351030 0.141544 0.340042 -0.542833
F6    F     F_    0.651315 0.146578 0.658072 -0.530680
F7    F     F_    0.349320 0.853377 0.341340 -0.561638
F8    F     F_    0.650724 0.858442 0.658261 -0.543933

loop_
_geom_bond_atom_site_label_1
_geom_bond_atom_site_label_2
_geom_bond_distance
_ccdc_geom_bond_type
C21   F5    1.353908 S    
C18   C20   1.406629 A    
O7    Cu2   1.966686 S    
C22   F6    1.355240 S    
O6    Cu1   1.966523 S    
O6    C4    1.285208 A    
Cu2   N2    2.012024 S    
C6    C9    1.421338 A    
N3    O10   1.301287 A    
C4    C12   1.467333 S    
Cu1   N1    2.012119 S    
C5    C10   1.418690 A    
C23   F7    1.355233 S    
N3    O9    1.301131 A    
C9    C10   1.408446 A    
O3    C1    1.289684 A    
C7    C8    1.390349 A    
C7    F3    1.356697 S    
C17   C19   1.408356 A    
Cu1   Cu2   2.677496 S    
C15   C18   1.408619 A    
O5    C3    1.291207 A    
C8    F4    1.355750 S    
O7    C3    1.296085 A    
C16   N4    1.433129 S    
O2    C2    1.289447 A    
O3    Cu2   1.958029 S    
O8    C4    1.305767 A    
C19   N5    1.439659 S    
O1    C1    1.287198 A    
C3    C11   1.459460 S    
C24   N1    1.367140 A    
C23   N1    1.367727 A    
N6    O16   1.300775 A    
C1    C18   1.446032 S    
C22   C24   1.415351 A    
C11   C13   1.398610 A    
O4    Cu2   1.958765 S    
N4    O12   1.300979 A    
H1    C13   1.083524 S    
O1    Cu1   1.958644 S    
C24   F8    1.353630 S    
C5    C7    1.394111 A    
C15   N3    1.439365 S    
O5    Cu1   1.959941 S    
C2    C17   1.445160 S    
N6    O15   1.300599 A    
C6    C8    1.396258 A    
O4    C2    1.287043 A    
N5    O13   1.300952 A    
O8    Cu2   1.960087 S    
C9    C12   1.427798 A    
C15   C16   1.396965 A    
O2    Cu1   1.957904 S    
C5    F1    1.358313 S    
N4    O11   1.300880 A    
C16   C17   1.406330 A    
C21   N2    1.367289 A    
C6    F2    1.356481 S    
C21   C23   1.415531 A    
C13   C14   1.380909 A    
C22   N2    1.367786 A    
C10   C11   1.415991 A    
C20   N6    1.432805 S    
C19   C20   1.397002 A    
C12   C14   1.400157 A    
N5    O14   1.301261 A    
H2    C14   1.082656 S    
