data_mof_unit_50056.cif
_audit_creation_date              2012-12-10T17:34:30-0500
_audit_creation_method            fapswitch 2.2
_symmetry_space_group_name_H-M    P1
_symmetry_Int_Tables_number       1
_space_group_crystal_system       triclinic
_cell_length_a                    12.271281
_cell_length_b                    12.908309
_cell_length_c                    14.329017
_cell_angle_alpha                 80.355242
_cell_angle_beta                  100.071235
_cell_angle_gamma                 115.814461
_cell_volume                      2001.03142568

loop_
_atom_site_label
_atom_site_type_symbol
_atom_type_description
_atom_site_fract_x
_atom_site_fract_y
_atom_site_fract_z
_atom_type_partial_charge
C1    C     C_R   0.855076 0.285070 0.503019 0.813096
C2    C     C_R   0.434310 0.983217 0.479587 0.047459
C3    C     C_R   0.392846 0.058444 0.415718 0.129633
C4    C     C_R   0.999415 0.499921 0.668737 0.811984
C5    C     C_R   0.476373 0.165205 0.379349 -0.229945
C6    C     C_R   0.600394 0.199271 0.405673 -0.158359
C7    C     C_R   0.346304 0.880360 0.522341 0.077477
C8    C     C_R   0.186368 0.911556 0.411346 -0.230758
C9    C     C_R   0.772695 0.159365 0.495921 -0.257183
C10   C     C_R   0.354262 0.340717 0.655733 0.069967
C11   C     C_R   0.753639 0.628646 0.366436 0.082342
C12   C     C_1   0.002414 0.499450 0.229284 -0.191679
C13   C     C_R   0.648546 0.642494 0.324000 0.056516
C14   C     C_R   0.536731 0.570431 0.361360 0.126637
C15   C     C_R   0.543073 0.520287 0.458381 -0.059681
C16   C     C_R   0.144790 0.714232 0.489685 0.800983
C17   C     C_R   0.657733 0.521695 0.501670 0.135051
C18   C     C_R   0.444134 0.469910 0.516084 -0.044824
C19   C     C_R   0.455745 0.402210 0.603392 0.087360
C20   C     C_R   0.572649 0.411995 0.642571 -0.302299
C21   C     C_R   0.673317 0.494353 0.600030 0.431900
C22   C     C_R   0.339546 0.492487 0.496238 0.042944
C23   C     C_R   0.268511 0.023544 0.384953 -0.182276
C24   C     C_R   0.250584 0.362356 0.627389 0.130218
C25   C     C_R   0.000810 0.499855 0.331309 0.793286
C26   C     C_1   0.999487 0.499834 0.771084 -0.124675
C27   C     C_1   0.000803 0.499548 0.856783 0.046530
C28   C     C_1   0.001976 0.499376 0.957649 0.020364
C29   C     C_1   0.002631 0.499301 0.043212 0.007331
C30   C     C_1   0.002872 0.499310 0.143924 -0.010929
C31   C     C_3   0.353607 0.254369 0.741844 -0.411786
C32   C     C_3   0.359519 0.148142 0.713543 -0.768467
C33   C     C_3   0.418876 0.536738 0.292347 -0.415935
C34   C     C_R   0.225613 0.837740 0.476912 -0.051986
C35   C     C_3   0.344646 0.406007 0.292098 -0.791003
C36   C     C_3   0.659851 0.733945 0.239761 -0.469395
C37   C     C_3   0.749598 0.854432 0.266837 -0.757165
C38   C     C_3   0.375281 0.827011 0.621909 -0.419024
C39   C     C_3   0.289304 0.817900 0.691545 -0.783136
C40   C     C_R   0.814424 0.069512 0.521476 0.442474
C41   C     C_R   0.729314 0.954556 0.533989 -0.187552
C42   C     C_R   0.605618 0.926177 0.523335 -0.305471
C43   C     C_R   0.561361 0.011619 0.494314 0.072238
C44   C     C_R   0.645477 0.125659 0.467339 0.044499
Cu1   Cu    Cu3+1 0.098280 0.475420 0.520190 0.978054
Cu2   Cu    Cu3+1 0.901720 0.524580 0.479810 0.974616
H1    H     H_    0.092733 0.881809 0.378755 0.175504
H2    H     H_    0.174659 0.323057 0.669182 0.159482
H3    H     H_    0.281243 0.106178 0.659895 0.272757
H4    H     H_    0.445641 0.171947 0.683302 0.246767
H5    H     H_    0.355129 0.085062 0.777401 0.235588
H6    H     H_    0.429734 0.295087 0.797176 0.202964
H7    H     H_    0.268734 0.224016 0.776016 0.213326
H8    H     H_    0.396331 0.369061 0.262920 0.230482
H9    H     H_    0.322157 0.361282 0.363662 0.269786
H10   H     H_    0.257758 0.388670 0.245001 0.247680
H11   H     H_    0.362620 0.580762 0.301820 0.189102
H12   H     H_    0.588476 0.379280 0.715732 0.179984
H13   H     H_    0.439736 0.565469 0.217688 0.202213
H14   H     H_    0.722026 0.875193 0.328703 0.269279
H15   H     H_    0.843627 0.860084 0.284943 0.245971
H16   H     H_    0.750021 0.920050 0.205740 0.239134
H17   H     H_    0.690835 0.712425 0.180212 0.210200
H18   H     H_    0.572213 0.740216 0.213751 0.212319
H19   H     H_    0.721291 0.742822 0.714731 0.374370
H20   H     H_    0.195742 0.751938 0.673477 0.247865
H21   H     H_    0.322529 0.791836 0.764820 0.237993
H22   H     H_    0.286274 0.902686 0.690803 0.254871
H23   H     H_    0.334366 0.559218 0.442660 0.136849
H24   H     H_    0.372192 0.740396 0.619131 0.230937
H25   H     H_    0.468033 0.881922 0.653790 0.219993
H26   H     H_    0.063442 0.980696 0.543496 0.377602
H27   H     H_    0.835971 0.671643 0.331840 0.139807
H28   H     H_    0.445873 0.221555 0.328439 0.140459
H29   H     H_    0.236169 0.079789 0.334950 0.159589
H30   H     H_    0.544810 0.835322 0.531484 0.182210
H31   H     H_    0.758489 0.885057 0.552756 0.239177
H32   H     H_    0.659998 0.279585 0.369800 0.171101
N1    N     N_R   0.246290 0.438200 0.550780 -0.193896
N2    N     N_R   0.754310 0.561180 0.449760 -0.207845
O1    O     O_R   0.972510 0.318130 0.525390 -0.489591
O2    O     O_2   0.869306 0.699981 0.620081 -0.255920
O3    O     O_3   0.670039 0.678192 0.675696 -0.566176
O4    O     O_2   0.036226 0.180093 0.457619 -0.292523
O5    O     O_2   0.027327 0.127694 0.630423 -0.336447
O6    O     O_3   0.976810 0.965868 0.523761 -0.525796
O7    O     O_R   0.806530 0.359650 0.491290 -0.600890
O8    O     O_R   0.083010 0.479240 0.641000 -0.588490
O9    O     O_R   0.917030 0.520750 0.606900 -0.507386
O10   O     O_R   0.193470 0.640350 0.508710 -0.594373
O11   O     O_R   0.027490 0.681870 0.474610 -0.553002
O12   O     O_R   0.082970 0.479250 0.393100 -0.547828
O13   O     O_R   0.916990 0.520760 0.359000 -0.591775
O14   O     O_2   0.799761 0.571821 0.766061 -0.318929
S1    S     S_3+6 0.760278 0.613315 0.667397 0.001430
S2    S     S_3+6 0.968871 0.090518 0.533416 -0.015355

loop_
_geom_bond_atom_site_label_1
_geom_bond_atom_site_label_2
_ccdc_geom_bond_type
C1    O7    A    
C15   C18   A    
C38   H24   S    
C16   O10   A    
C39   H22   S    
C3    C23   A    
C2    C7    A    
C31   H6    S    
C14   C33   S    
C37   H16   S    
Cu2   O9    S    
Cu1   Cu2   S    
C25   O13   A    
C26   C27   T    
C28   C29   T    
C22   N1    A    
C4    O9    A    
C41   H31   S    
C5    C6    A    
C33   C35   S    
O5    S2    D    
H19   O3    S    
C1    O1    A    
C8    C23   A    
C18   C19   A    
C41   C42   A    
C5    H28   S    
Cu1   O12   S    
C16   C34   S    
C10   C31   S    
C19   C20   A    
C9    C44   A    
C36   H17   S    
C2    C43   A    
C22   H23   S    
C33   H13   S    
C6    C44   A    
C13   C14   A    
C35   H8    S    
C40   S2    S    
C35   H9    S    
C24   H2    S    
Cu1   O8    S    
C1    C9    S    
C13   C36   S    
C11   H27   S    
Cu2   O11   S    
C21   S1    S    
C10   C24   A    
C9    C40   A    
C17   C21   A    
C43   C44   A    
C32   H5    S    
C29   C30   S    
C24   N1    A    
C4    C26   S    
C31   C32   S    
C10   C19   A    
O3    S1    S    
Cu1   N1    S    
C8    C34   A    
C31   H7    S    
Cu1   O10   S    
C32   H4    S    
O6    S2    S    
C40   C41   A    
C39   H20   S    
C42   C43   A    
C20   H12   S    
O4    S2    D    
C37   H15   S    
Cu2   O7    S    
C15   C17   A    
C38   H25   S    
C36   C37   S    
C25   O12   A    
C33   H11   S    
O2    S1    D    
C12   C30   T    
C35   H10   S    
C18   C22   A    
C39   H21   S    
Cu1   O1    S    
C23   H29   S    
C3    C5    A    
H26   O6    S    
C4    O8    A    
C42   H30   S    
C12   C25   S    
C2    C3    A    
C8    H1    S    
Cu2   N2    S    
C11   C13   A    
C38   C39   S    
Cu2   O13   S    
C7    C34   A    
C7    C38   S    
C17   N2    A    
O14   S1    D    
C32   H3    S    
C37   H14   S    
C6    H32   S    
C11   N2    A    
C20   C21   A    
C16   O11   A    
C27   C28   S    
C14   C15   A    
C36   H18   S    
