data_mof_unit_41275.cif
_audit_creation_date              2012-10-26T20:33:44-0400
_audit_creation_method            fapswitch 2.2
_symmetry_space_group_name_H-M    P1
_symmetry_Int_Tables_number       1
_space_group_crystal_system       triclinic
_cell_length_a                    10.964197
_cell_length_b                    9.054542
_cell_length_c                    8.149545
_cell_angle_alpha                 89.992956
_cell_angle_beta                  88.96393
_cell_angle_gamma                 90.010776
_cell_volume                      808.920161993

loop_
_atom_site_label
_atom_site_type_symbol
_atom_type_description
_atom_site_fract_x
_atom_site_fract_y
_atom_site_fract_z
_atom_type_partial_charge
C1    C     C_R   0.499991 0.221553 0.500001 0.525592
C2    C     C_1   0.499955 0.934219 0.499983 -0.030257
C3    C     C_3   0.072418 0.637883 0.498177 -0.222070
C4    C     C_3   0.933141 0.642051 0.480868 -0.217950
C5    C     C_3   0.122456 0.475893 0.502576 -0.047809
C6    C     C_3   0.878474 0.483743 0.498642 -0.036401
C7    C     C_2   0.129444 0.381322 0.806166 0.658450
C8    C     C_2   0.128351 0.442892 0.195496 0.682834
C9    C     C_2   0.887796 0.506640 0.806447 0.635005
C10   C     C_2   0.872740 0.408245 0.200527 0.658253
C11   C     C_R   0.261261 0.485545 0.501401 0.491075
C12   C     C_R   0.739445 0.493165 0.499146 0.505492
C13   C     C_R   0.499972 0.778444 0.499993 0.529918
C14   C     C_1   0.499959 0.065794 0.499995 -0.026731
C15   C     C_3   0.064353 0.385030 0.648410 -0.138213
C16   C     C_3   0.073498 0.388057 0.351560 -0.117526
C17   C     C_3   0.925323 0.414977 0.662082 -0.085026
C18   C     C_3   0.930751 0.379757 0.359680 -0.090114
Cu1   Cu    Cu3+1 0.500000 0.500010 0.669080 1.117781
Cu2   Cu    Cu3+1 0.500000 0.500010 0.330920 1.089536
H1    H     H_    0.069561 0.265777 0.613541 0.094544
H2    H     H_    0.247734 0.268390 0.178280 0.305900
H3    H     H_    0.890810 0.709741 0.911635 0.358395
H4    H     H_    0.778828 0.587918 0.121304 0.357342
H5    H     H_    0.105511 0.271680 0.360099 0.034436
H6    H     H_    0.879439 0.305483 0.678045 0.112875
H7    H     H_    0.905707 0.264050 0.393877 0.080489
H8    H     H_    0.097597 0.701913 0.607390 0.139424
H9    H     H_    0.115706 0.701584 0.396444 0.172705
H10   H     H_    0.891904 0.718184 0.572808 0.148162
H11   H     H_    0.910544 0.697585 0.365168 0.188630
H12   H     H_    0.158454 0.604441 0.820640 0.344636
N1    N     N_1   0.500000 0.499970 0.076820 -0.033900
N2    N     N_1   0.500000 0.499970 0.923180 -0.018305
O1    O     O_R   0.500000 0.288400 0.642760 -0.484605
O2    O     O_R   0.179324 0.508334 0.874405 -0.541076
O3    O     O_2   0.102535 0.566338 0.147228 -0.406212
O4    O     O_R   0.227668 0.366343 0.125053 -0.562049
O5    O     O_2   0.797453 0.466869 0.882397 -0.449635
O6    O     O_R   0.942865 0.642343 0.840358 -0.702797
O7    O     O_2   0.818111 0.309006 0.131442 -0.457684
O8    O     O_R   0.864067 0.555161 0.150481 -0.656048
O9    O     O_R   0.500000 0.288400 0.357240 -0.495223
O10   O     O_R   0.317700 0.499990 0.642790 -0.482896
O11   O     O_R   0.317700 0.499990 0.357210 -0.474424
O12   O     O_R   0.682300 0.499990 0.642790 -0.472285
O13   O     O_R   0.682300 0.499990 0.357210 -0.511146
O14   O     O_R   0.500000 0.711620 0.642810 -0.500842
O15   O     O_R   0.500000 0.711620 0.357190 -0.503066
O16   O     O_2   0.146120 0.261310 0.870734 -0.467184

loop_
_geom_bond_atom_site_label_1
_geom_bond_atom_site_label_2
_ccdc_geom_bond_type
C13   O14   A    
Cu1   N2    S    
C15   C17   S    
Cu2   O15   S    
C10   O8    S    
H4    O8    S    
C7    O2    S    
Cu2   O11   S    
C9    O5    D    
C7    C15   S    
N1    N2    T    
C3    C4    S    
Cu1   O12   S    
C11   O10   A    
C8    C16   S    
Cu1   O1    S    
C10   O7    D    
C2    C13   S    
C8    O4    S    
C10   C18   S    
C12   O13   A    
C13   O15   A    
Cu2   N1    S    
H12   O2    S    
C9    C17   S    
C3    H8    S    
C5    C11   S    
C6    C12   S    
C6    C18   S    
C11   O11   A    
Cu2   O13   S    
C5    C15   S    
C8    O3    D    
C17   H6    S    
H3    O6    S    
C4    H11   S    
C15   H1    S    
Cu2   O9    S    
Cu1   O10   S    
C1    O1    A    
C16   C18   S    
C4    C6    S    
C2    C14   T    
C16   H5    S    
C3    H9    S    
C6    C17   S    
Cu1   O14   S    
C5    C16   S    
C1    C14   S    
C1    O9    A    
C9    O6    S    
C4    H10   S    
C18   H7    S    
Cu1   Cu2   S    
C7    O16   D    
C3    C5    S    
C12   O12   A    
H2    O4    S    
