data_mof_unit_44607.cif
_audit_creation_date              2012-10-26T18:30:16-0400
_audit_creation_method            fapswitch 2.2
_symmetry_space_group_name_H-M    P1
_symmetry_Int_Tables_number       1
_space_group_crystal_system       triclinic
_cell_length_a                    10.614012
_cell_length_b                    12.987354
_cell_length_c                    11.771556
_cell_angle_alpha                 99.187857
_cell_angle_beta                  93.253666
_cell_angle_gamma                 91.942957
_cell_volume                      1597.76315615

loop_
_atom_site_label
_atom_site_type_symbol
_atom_type_description
_atom_site_fract_x
_atom_site_fract_y
_atom_site_fract_z
_atom_type_partial_charge
C1    C     C_R   0.498486 0.299409 0.479000 0.540893
C2    C     C_R   0.597693 0.597504 0.852808 0.009538
C3    C     C_R   0.556831 0.539535 0.154450 0.173334
C4    C     C_R   0.449147 0.455498 0.845245 0.177808
C5    C     C_R   0.537358 0.542796 0.033413 0.006163
C6    C     C_R   0.446524 0.471982 0.968568 0.011267
C7    C     C_R   0.259467 0.499806 0.500385 0.549303
C8    C     C_R   0.740539 0.500195 0.499610 0.549763
C9    C     C_3   0.040979 0.418046 0.546224 -0.124484
C10   C     C_3   0.959038 0.581955 0.453743 -0.111292
C11   C     C_3   0.950628 0.410739 0.437089 -0.118177
C12   C     C_R   0.502957 0.700583 0.520885 0.539872
C13   C     C_3   0.049385 0.589261 0.562867 -0.128488
C14   C     C_3   0.877515 0.500106 0.499537 0.039495
C15   C     C_3   0.122496 0.499895 0.500425 0.031945
C16   C     C_3   0.965608 0.507425 0.608868 -0.099154
C17   C     C_3   0.034409 0.492575 0.391086 -0.087792
C18   C     C_R   0.507662 0.813929 0.532537 -0.003287
C19   C     C_R   0.497460 0.186032 0.466740 -0.002904
C20   C     C_R   0.467294 0.016110 0.347185 -0.121681
C21   C     C_R   0.540951 0.983821 0.651499 -0.121891
C22   C     C_R   0.470379 0.124262 0.358221 -0.131203
C23   C     C_R   0.522944 0.138978 0.563931 -0.113058
C24   C     C_R   0.535160 0.875703 0.640952 -0.131360
C25   C     C_2   0.384167 0.361240 0.777335 0.320915
C26   C     C_2   0.672381 0.589612 0.218027 0.331648
C27   C     C_2   0.233423 0.374257 0.979104 0.246359
C28   C     C_2   0.669600 0.712330 0.031418 0.232993
C29   C     C_R   0.485833 0.860888 0.434632 -0.120221
C30   C     C_R   0.518514 0.030899 0.553889 0.046460
C31   C     C_R   0.490542 0.968978 0.444638 0.047630
C32   C     C_R   0.357702 0.420212 0.030119 -0.003024
C33   C     C_R   0.604925 0.613194 0.973953 -0.003329
C34   C     C_R   0.377978 0.423925 0.149664 0.005484
Cu1   Cu    Cu3+1 0.509400 0.507730 0.615930 0.943715
Cu2   Cu    Cu3+1 0.490600 0.492270 0.384070 0.945266
H1    H     H_    0.907014 0.337902 0.385525 0.128366
H2    H     H_    0.450667 0.159385 0.281981 0.140308
H3    H     H_    0.445897 0.969495 0.262939 0.138981
H4    H     H_    0.562427 0.030469 0.735711 0.135219
H5    H     H_    0.648758 0.650511 0.807748 0.116693
H6    H     H_    0.311420 0.384281 0.196141 0.117699
H7    H     H_    0.321421 0.365954 0.703136 0.153176
H8    H     H_    0.667261 0.646158 0.295497 0.144433
H9    H     H_    0.190170 0.308966 0.012023 0.108017
H10   H     H_    0.752698 0.742223 0.995525 0.111584
H11   H     H_    0.092983 0.662111 0.614414 0.127131
H12   H     H_    0.077760 0.351232 0.584242 0.129134
H13   H     H_    0.922287 0.648822 0.415820 0.137441
H14   H     H_    0.934986 0.513539 0.698254 0.153995
H15   H     H_    0.065050 0.486446 0.301698 0.149506
H16   H     H_    0.464440 0.813587 0.350687 0.150026
H17   H     H_    0.546387 0.186201 0.647421 0.171808
H18   H     H_    0.552935 0.840591 0.717506 0.134727
N1    N     N_R   0.523540 0.519360 0.790140 -0.269900
N2    N     N_R   0.476460 0.480640 0.209860 -0.268890
O1    O     O_R   0.506670 0.354460 0.582000 -0.518385
O2    O     O_2   0.775992 0.567749 0.183359 -0.531291
O3    O     O_2   0.174349 0.413147 0.905836 -0.517036
O4    O     O_2   0.625737 0.765153 0.113947 -0.535583
O5    O     O_R   0.493330 0.645540 0.418000 -0.530474
O6    O     O_R   0.490800 0.341410 0.386200 -0.503392
O7    O     O_R   0.509200 0.658590 0.613800 -0.508283
O8    O     O_R   0.324790 0.506500 0.597880 -0.519342
O9    O     O_R   0.675210 0.493500 0.402120 -0.502295
O10   O     O_R   0.308910 0.493440 0.402080 -0.511632
O11   O     O_R   0.691090 0.506560 0.597920 -0.507094
O12   O     O_2   0.399890 0.275742 0.805206 -0.553150

loop_
_geom_bond_atom_site_label_1
_geom_bond_atom_site_label_2
_ccdc_geom_bond_type
C6    C32   A    
C11   H1    S    
C34   N2    A    
Cu1   O8    S    
Cu2   N2    S    
C1    O1    A    
C9    C11   S    
C3    N2    A    
Cu2   O10   S    
C19   C23   A    
Cu1   Cu2   S    
C34   H6    S    
Cu1   O11   S    
C5    C33   A    
Cu1   O1    S    
C1    O6    A    
C17   H15   S    
C13   C16   S    
C7    C15   S    
C4    C25   S    
C9    C15   S    
C26   H8    S    
C8    O9    A    
C29   C31   A    
C18   C29   A    
C27   O3    D    
C7    O10   A    
C12   O5    A    
C26   O2    D    
C28   H10   S    
C5    C6    A    
C25   O12   D    
C9    H12   S    
C18   C24   A    
C2    C33   A    
C4    C6    A    
C25   H7    S    
C9    C16   S    
C20   C22   A    
C28   C33   S    
C23   H17   S    
C14   C16   S    
C2    N1    A    
C13   C15   S    
C4    N1    A    
C30   C31   A    
C29   H16   S    
C11   C14   S    
Cu2   O6    S    
C7    O8    A    
C1    C19   S    
C27   H9    S    
C10   C17   S    
Cu1   N1    S    
Cu2   O5    S    
C22   H2    S    
C23   C30   A    
C21   C30   A    
C19   C22   A    
C28   O4    D    
C8    O11   A    
C13   H11   S    
C10   C14   S    
C21   C24   A    
C12   C18   S    
C15   C17   S    
C20   H3    S    
Cu2   O9    S    
C11   C17   S    
Cu1   O7    S    
C8    C14   S    
C32   C34   A    
C27   C32   S    
C12   O7    A    
C10   H13   S    
C24   H18   S    
C10   C13   S    
C3    C26   S    
C2    H5    S    
C16   H14   S    
C3    C5    A    
C20   C31   A    
C21   H4    S    
