data_mof_unit_40058.cif
_audit_creation_date              2012-10-26T21:21:03-0400
_audit_creation_method            fapswitch 2.2
_symmetry_space_group_name_H-M    P1
_symmetry_Int_Tables_number       1
_space_group_crystal_system       triclinic
_cell_length_a                    10.779679
_cell_length_b                    10.928188
_cell_length_c                    9.696315
_cell_angle_alpha                 90.295595
_cell_angle_beta                  89.983133
_cell_angle_gamma                 90.041006
_cell_volume                      1142.2332356

loop_
_atom_site_label
_atom_site_type_symbol
_atom_type_description
_atom_site_fract_x
_atom_site_fract_y
_atom_site_fract_z
_atom_type_partial_charge
C1    C     C_R   0.504177 0.265531 0.499681 0.550558
C2    C     C_2   0.518532 0.134237 0.501130 -0.081965
C3    C     C_2   0.428116 0.429834 0.921736 -0.015898
C4    C     C_R   0.262610 0.503784 0.500075 0.542569
C5    C     C_2   0.428262 0.429648 0.077450 -0.017249
C6    C     C_R   0.494963 0.734946 0.500748 0.542150
C7    C     C_R   0.737379 0.504034 0.499983 0.537391
C8    C     C_R   0.129624 0.700793 0.642273 -0.091913
C9    C     C_R   0.064898 0.792979 0.711264 -0.108503
C10   C     C_R   0.935854 0.793076 0.711325 -0.127464
C11   C     C_R   0.870763 0.701015 0.642343 -0.109661
C12   C     C_R   0.065677 0.605439 0.573313 0.021386
C13   C     C_R   0.934472 0.605552 0.573288 0.026522
C14   C     C_3   0.439659 0.902836 0.735182 -0.129826
C15   C     C_R   0.128886 0.512125 0.499991 0.002952
C16   C     C_R   0.063919 0.424824 0.423289 -0.149624
C17   C     C_R   0.935939 0.424916 0.423239 -0.150245
C18   C     C_R   0.871108 0.512331 0.499861 0.003981
C19   C     C_2   0.518825 0.932516 0.393956 -0.123730
C20   C     C_2   0.477838 0.867733 0.502477 0.258876
C21   C     C_2   0.506393 0.065754 0.387248 -0.132594
Cu1   Cu    Cu3+1 0.500020 0.500020 0.638630 0.918277
Cu2   Cu    Cu3+1 0.499980 0.499980 0.361370 0.931819
H1    H     H_    0.112702 0.354528 0.365598 0.124277
H2    H     H_    0.564411 0.887482 0.307582 0.097916
H3    H     H_    0.492165 0.107474 0.287058 0.132772
H4    H     H_    0.229629 0.706642 0.641440 0.154707
H5    H     H_    0.887041 0.354651 0.365556 0.126683
H6    H     H_    0.542556 0.896055 0.744398 0.099666
H7    H     H_    0.394116 0.820397 0.778449 0.148374
H8    H     H_    0.410078 0.981846 0.799478 0.126406
H9    H     H_    0.542972 0.093550 0.599097 0.135845
H10   H     H_    0.364542 0.367823 0.870005 0.142618
H11   H     H_    0.559257 0.557780 0.894175 0.201087
H12   H     H_    0.364966 0.367348 0.128497 0.135010
H13   H     H_    0.558781 0.558166 0.106394 0.203995
H14   H     H_    0.115138 0.865475 0.763423 0.126438
H15   H     H_    0.885911 0.865657 0.763575 0.107283
H16   H     H_    0.770691 0.707124 0.641686 0.127833
N1    N     N_2   0.498640 0.498660 0.846910 -0.350622
N2    N     N_2   0.498610 0.498630 0.153040 -0.345336
O1    O     O_R   0.500020 0.321960 0.617040 -0.490951
O2    O     O_R   0.499980 0.321920 0.382900 -0.496341
O3    O     O_R   0.319670 0.500020 0.617100 -0.501526
O4    O     O_R   0.319630 0.499980 0.382950 -0.490167
O5    O     O_R   0.500020 0.678080 0.617100 -0.522210
O6    O     O_R   0.499980 0.678040 0.382960 -0.513775
O7    O     O_R   0.680370 0.500020 0.617050 -0.499866
O8    O     O_R   0.680330 0.499980 0.382900 -0.495586
O9    O     O_3   0.399022 0.922793 0.598610 -0.582340

loop_
_geom_bond_atom_site_label_1
_geom_bond_atom_site_label_2
_ccdc_geom_bond_type
Cu1   O7    S    
C21   H3    S    
Cu2   O4    S    
C6    C20   S    
C9    C10   A    
C19   C20   D    
Cu2   N2    S    
C12   C15   A    
C8    C12   A    
C14   H8    S    
C10   H15   S    
C7    C18   S    
Cu1   N1    S    
C7    O7    A    
C4    C15   S    
C9    H14   S    
C17   C18   A    
C16   H1    S    
Cu1   O1    S    
C11   H16   S    
C11   C13   A    
H13   N2    S    
C14   O9    S    
C13   C18   A    
C2    C21   D    
H11   N1    S    
C5    H12   S    
Cu1   O5    S    
C14   H7    S    
C3    N1    D    
C4    O4    A    
C6    O5    A    
C19   H2    S    
Cu2   O8    S    
Cu2   O6    S    
C6    O6    A    
C3    H10   S    
C14   H6    S    
C15   C16   A    
C1    O1    A    
Cu2   O2    S    
C12   C13   A    
C7    O8    A    
C2    H9    S    
C1    C2    S    
C10   C11   A    
C8    H4    S    
C5    N2    D    
Cu1   Cu2   S    
C8    C9    A    
C20   O9    S    
C4    O3    A    
C19   C21   S    
C17   H5    S    
C1    O2    A    
Cu1   O3    S    
C16   C17   A    
C3    C5    S    
