data_mof_unit_6433.cif
_audit_creation_date              2012-12-11T14:29:23-0500
_audit_creation_method            fapswitch 2.2
_symmetry_space_group_name_H-M    P1
_symmetry_Int_Tables_number       1
_space_group_crystal_system       triclinic
_cell_length_a                    6.935097
_cell_length_b                    14.77411
_cell_length_c                    16.22262
_cell_angle_alpha                 90.372289
_cell_angle_beta                  89.910087
_cell_angle_gamma                 90.366288
_cell_volume                      1662.0968018

loop_
_atom_site_label
_atom_site_type_symbol
_atom_type_description
_atom_site_fract_x
_atom_site_fract_y
_atom_site_fract_z
_atom_type_partial_charge
O1    O     O_R   0.494400 0.416610 0.413880 -0.545830
O2    O     O_R   0.823920 0.406790 0.585520 -0.544540
O3    O     O_R   0.994250 0.583390 0.586120 -0.535265
C1    C     C_R   0.654222 0.385971 0.614266 0.737738
O4    O     O_R   0.824110 0.405730 0.414490 -0.543515
O5    O     O_R   0.994440 0.582310 0.413870 -0.538620
C2    C     C_R   0.654558 0.384359 0.385879 0.769221
O6    O     O_R   0.494210 0.417690 0.586130 -0.545208
O7    O     O_3   0.660810 0.557940 0.500000 -0.362451
V1    V     V_3+5 0.935650 0.489250 0.500000 1.421508
O8    O     O_R   0.324160 0.593210 0.414480 -0.543117
C3    C     C_R   0.155971 0.614712 0.386132 0.773641
O9    O     O_R   0.323970 0.594270 0.585510 -0.539900
C4    C     C_R   0.155228 0.616251 0.613823 0.691720
V2    V     V_3+5 0.435660 0.510750 0.500000 1.431639
O10   O     O_3   0.160630 0.442060 0.500000 -0.379031
C5    C     C_R   0.998705 0.571409 0.773675 -0.150011
C6    C     C_R   0.922936 0.546875 0.849853 -0.124224
C7    C     C_R   0.913204 0.610026 0.913336 -0.123744
C8    C     C_R   0.978464 0.698251 0.900993 -0.151430
C9    C     C_R   0.052711 0.726143 0.823559 0.061865
C10   C     C_R   0.063777 0.661006 0.758676 0.075620
C11   C     C_R   0.120234 0.816246 0.811245 -0.145749
C12   C     C_R   0.202809 0.840954 0.733135 -0.084539
C13   C     C_R   0.216224 0.774191 0.669223 -0.027753
C14   C     C_R   0.144820 0.684962 0.681526 -0.115496
C15   C     C_R   0.271962 0.930605 0.715476 0.326725
C16   C     C_R   0.366493 0.949899 0.640748 0.395678
C17   C     C_R   0.383327 0.882608 0.580296 0.189815
C18   C     C_R   0.301841 0.797897 0.593120 -0.244210
H1    H     H_    0.007844 0.518632 0.727410 0.105865
H2    H     H_    0.873832 0.478105 0.859943 0.111547
H3    H     H_    0.856615 0.590288 0.972834 0.097737
H4    H     H_    0.971852 0.743446 0.953523 0.096429
H5    H     H_    0.311742 0.750352 0.542511 0.178410
C19   C     C_2   0.985014 0.711788 0.286319 -0.195933
C20   C     C_2   0.151566 0.679972 0.317350 -0.363650
H6    H     H_    0.850348 0.690005 0.314379 0.169890
H7    H     H_    0.289553 0.699802 0.291708 0.146634
C21   C     C_2   0.967082 0.774895 0.214664 0.505159
C22   C     C_2   0.121363 0.816303 0.179294 -0.387060
H8    H     H_    0.265733 0.802795 0.200926 0.118821
C23   C     C_2   0.772354 0.227974 0.797188 -0.181571
C24   C     C_2   0.614958 0.177754 0.815053 -0.253787
H9    H     H_    0.899140 0.222345 0.835811 0.117527
H10   H     H_    0.484412 0.183579 0.778953 0.158804
C25   C     C_2   0.787760 0.291477 0.726438 -0.123868
C26   C     C_2   0.636301 0.320410 0.682288 -0.293081
H11   H     H_    0.930856 0.317418 0.712295 0.125934
H12   H     H_    0.491197 0.299090 0.698075 0.123417
C27   C     C_2   0.785490 0.214918 0.210372 0.503051
C28   C     C_2   0.618496 0.179650 0.179684 -0.388679
H13   H     H_    0.480865 0.198522 0.205969 0.109144
C29   C     C_2   0.791406 0.277245 0.283610 -0.213541
C30   C     C_2   0.638088 0.319827 0.316241 -0.381322
H14   H     H_    0.932459 0.289725 0.310556 0.160064
H15   H     H_    0.495385 0.310232 0.290511 0.133792
O11   O     O_R   0.770210 0.079270 0.910680 -0.558014
O12   O     O_R   0.440150 0.091160 0.082270 -0.550928
O13   O     O_R   0.269970 0.914530 0.082860 -0.545263
C31   C     C_R   0.609689 0.113140 0.110732 0.780667
O14   O     O_R   0.440480 0.090100 0.911240 -0.529214
O15   O     O_R   0.270310 0.913460 0.910610 -0.515865
C32   C     C_R   0.609535 0.112322 0.883581 0.750506
O16   O     O_R   0.769870 0.080340 0.082930 -0.502639
O17   O     O_3   0.603660 0.938980 0.996790 -0.372450
V3    V     V_3+5 0.328750 0.007610 0.996740 1.486814
O18   O     O_R   0.940600 0.902510 0.911180 -0.557441
C33   C     C_R   0.109422 0.882246 0.881348 0.753190
O19   O     O_R   0.940270 0.903570 0.082200 -0.508456
C34   C     C_R   0.108539 0.882245 0.110861 0.782528
V4    V     V_3+5 0.828770 0.986010 0.996670 1.501475
O20   O     O_3   0.103730 0.054750 0.996710 -0.375978
Br1   Br    Br    0.524673 0.901961 0.480128 -0.525272
O21   O     O_3   0.782840 0.797119 0.188926 -0.526528
C35   C     C_3   0.700936 0.722158 0.147286 -0.227156
H16   H     H_    0.665663 0.666581 0.190746 0.111425
H17   H     H_    0.796615 0.697150 0.096973 0.104410
H18   H     H_    0.564092 0.743787 0.118341 0.156770
O22   O     O_3   0.960377 0.186574 0.177968 -0.531296
C36   C     C_3   0.049500 0.259826 0.137210 -0.233082
H19   H     H_    0.101485 0.311884 0.181853 0.111171
H20   H     H_    0.951589 0.290718 0.090975 0.106558
H21   H     H_    0.177177 0.234186 0.103333 0.162428
O23   O     O_3   0.259881 0.000013 0.772305 -0.543178
C37   C     C_3   0.087623 0.047657 0.759033 -0.182878
H22   H     H_    0.958718 0.002278 0.758082 0.128673
H23   H     H_    0.094648 0.087875 0.701640 0.132923
H24   H     H_    0.070426 0.095545 0.810992 0.157840
O24   O     O_3   0.455761 0.033428 0.631444 -0.531844
C38   C     C_3   0.355015 0.086632 0.573698 -0.155016
H25   H     H_    0.205658 0.062487 0.559704 0.116202
H26   H     H_    0.438721 0.090555 0.515507 0.192273
H27   H     H_    0.343756 0.156525 0.598625 0.126376

loop_
_geom_bond_atom_site_label_1
_geom_bond_atom_site_label_2
_ccdc_geom_bond_type
O21   C35   S    
C22   H8    S    
C11   C33   S    
C7    C8    A    
C12   C15   A    
C2    C30   S    
C1    O6    A    
C36   H19   S    
C25   H11   S    
O23   C37   S    
C24   C32   S    
C18   H5    S    
C16   C17   A    
C35   H17   S    
C28   C31   S    
O5    C3    A    
C37   H23   S    
V2    O10   S    
C6    C7    A    
C3    C20   S    
C15   O23   S    
C27   O22   S    
O14   C32   A    
O12   V3    S    
O8    V2    S    
O17   V4    S    
O15   C33   A    
O13   V3    S    
O18   C33   A    
C11   C12   A    
C35   H18   S    
O19   C34   A    
V3    O20   S    
O7    V1    S    
C22   C34   S    
C8    H4    S    
C26   H12   S    
O17   V3    S    
O9    C4    A    
C36   H20   S    
C24   H10   S    
O15   V3    S    
C35   H16   S    
O11   C32   A    
C29   H14   S    
O12   C31   A    
C27   C28   D    
C19   C21   S    
C12   C13   A    
C7    H3    S    
C38   H25   S    
O4    C2    A    
C37   H22   S    
O22   C36   S    
C17   Br1   S    
O13   C34   A    
C13   C14   A    
O2    C1    A    
C23   C24   D    
C17   C18   A    
C38   H26   S    
C25   C26   D    
O9    V2    S    
O18   V4    S    
C5    C6    A    
C4    C14   S    
C23   H9    S    
O3    C4    A    
O1    V2    S    
O14   V3    S    
C21   C22   D    
O6    V2    S    
C30   H15   S    
C5    H1    S    
C6    H2    S    
O2    V1    S    
C36   H21   S    
C28   H13   S    
C1    C26   S    
C13   C18   A    
C29   C30   D    
C19   C20   D    
O1    C2    A    
V4    O20   S    
C37   H24   S    
O5    V1    S    
O19   V4    S    
O8    C3    A    
O16   V4    S    
C5    C10   A    
C21   O21   S    
C27   C29   S    
C9    C11   A    
O7    V2    S    
O4    V1    S    
C20   H7    S    
O3    V1    S    
V1    O10   S    
C38   H27   S    
O11   V4    S    
O24   C38   S    
C19   H6    S    
C31   O16   A    
C8    C9    A    
C10   C14   A    
C15   C16   A    
C16   O24   S    
C9    C10   A    
C23   C25   S    
