data_mof_unit_17067.cif
_audit_creation_date              2012-10-26T17:12:31-0400
_audit_creation_method            fapswitch 2.2
_symmetry_space_group_name_H-M    P1
_symmetry_Int_Tables_number       1
_space_group_crystal_system       triclinic
_cell_length_a                    16.893652
_cell_length_b                    16.890943
_cell_length_c                    16.89308
_cell_angle_alpha                 67.46524
_cell_angle_beta                  67.458413
_cell_angle_gamma                 67.465104
_cell_volume                      3951.28104129

loop_
_atom_site_label
_atom_site_type_symbol
_atom_type_description
_atom_site_fract_x
_atom_site_fract_y
_atom_site_fract_z
_atom_type_partial_charge
C1    C     C_R   0.026323 0.828784 0.565206 0.560573
C2    C     C_R   0.016384 0.568757 0.830771 0.563412
C3    C     C_R   0.169213 0.983661 0.431222 0.549788
C4    C     C_R   0.828799 0.026249 0.565235 0.560186
C5    C     C_R   0.485502 0.970310 0.730222 -0.115515
C6    C     C_R   0.544224 0.945352 0.291091 -0.112470
C7    C     C_R   0.055342 0.708785 0.455595 -0.111749
C8    C     C_R   0.030958 0.269345 0.513859 -0.116091
C9    C     C_R   0.709089 0.455962 0.053704 -0.116924
C10   C     C_R   0.270231 0.515098 0.028448 -0.113997
C11   C     C_R   0.270118 0.028679 0.515040 -0.115548
C12   C     C_R   0.983865 0.169144 0.431144 0.549447
C13   C     C_R   0.708970 0.054187 0.455906 -0.112440
C14   C     C_R   0.544260 0.291187 0.944943 -0.111733
C15   C     C_R   0.485662 0.730355 0.969943 -0.116128
C16   C     C_R   0.946545 0.543905 0.290884 -0.116899
C17   C     C_R   0.972440 0.484424 0.729484 -0.113992
C18   C     C_R   0.550266 0.007062 0.545899 0.035944
C19   C     C_R   0.454407 0.991950 0.450093 0.035941
C20   C     C_R   0.009324 0.549474 0.545198 0.036244
C21   C     C_R   0.994270 0.453705 0.449258 0.036050
C22   C     C_R   0.550438 0.546032 0.006530 0.036055
C23   C     C_R   0.828798 0.565246 0.026211 0.546974
C24   C     C_R   0.454540 0.450240 0.991450 0.036244
C25   C     C_R   0.588953 0.009728 0.454948 0.012016
C26   C     C_R   0.412144 0.002531 0.536600 0.012947
C27   C     C_R   0.999049 0.462838 0.587336 0.012703
C28   C     C_R   0.991504 0.544691 0.410652 0.011886
C29   C     C_R   0.464052 0.588424 0.995687 0.012863
C30   C     C_R   0.545467 0.411483 0.988815 0.011964
C31   C     C_R   0.545323 0.989393 0.411324 0.012024
C32   C     C_R   0.463874 0.996214 0.588271 0.012934
C33   C     C_R   0.412302 0.536757 0.002018 0.012686
C34   C     C_R   0.169201 0.431211 0.983693 0.563360
C35   C     C_R   0.589131 0.455091 0.009124 0.011925
C36   C     C_R   0.005398 0.411215 0.535530 0.012869
C37   C     C_R   0.011811 0.588308 0.454310 0.011966
C38   C     C_R   0.433797 0.974315 0.681231 -0.145933
C39   C     C_R   0.590106 0.962839 0.332799 -0.142818
C40   C     C_R   0.038122 0.666970 0.409621 -0.142800
C41   C     C_R   0.027359 0.318228 0.565479 -0.146483
C42   C     C_R   0.667520 0.410205 0.035880 -0.146035
C43   C     C_R   0.319355 0.566932 0.023946 -0.145985
C44   C     C_R   0.319201 0.024361 0.566798 -0.146003
C45   C     C_R   0.568811 0.016253 0.830818 0.549854
C46   C     C_R   0.667342 0.036503 0.410094 -0.142810
C47   C     C_R   0.590198 0.332941 0.962294 -0.142751
C48   C     C_R   0.433977 0.681391 0.973847 -0.146568
C49   C     C_R   0.964483 0.589636 0.332410 -0.146036
C50   C     C_R   0.977248 0.432533 0.680275 -0.146049
C51   C     C_R   0.563070 0.000647 0.688318 0.010134
C52   C     C_R   0.450035 0.964553 0.319530 0.009479
C53   C     C_R   0.036066 0.680303 0.549792 0.009561
C54   C     C_R   0.000247 0.311406 0.436533 0.009713
C55   C     C_R   0.680694 0.550148 0.034649 0.008688
C56   C     C_R   0.434773 0.973728 0.171207 0.560140
C57   C     C_R   0.311967 0.437310 0.998451 0.008779
C58   C     C_R   0.311889 0.998683 0.437247 0.010191
C59   C     C_R   0.680593 0.035004 0.550090 0.009493
C60   C     C_R   0.450081 0.319606 0.964255 0.009543
C61   C     C_R   0.563188 0.688405 0.000337 0.009759
C62   C     C_R   0.965690 0.449727 0.319200 0.008647
C63   C     C_R   0.002103 0.562426 0.687853 0.008846
C64   C     C_R   0.607957 0.015387 0.735853 -0.024789
C65   C     C_R   0.398906 0.965400 0.268397 -0.027432
C66   C     C_R   0.034833 0.731548 0.601027 -0.026957
C67   C     C_R   0.434784 0.171208 0.973696 0.560600
C68   C     C_R   0.984996 0.264025 0.391875 -0.024883
C69   C     C_R   0.731679 0.601162 0.034295 -0.027500
C70   C     C_R   0.264254 0.392180 0.984278 -0.025436
C71   C     C_R   0.264234 0.984352 0.392171 -0.024809
C72   C     C_R   0.731644 0.034453 0.601137 -0.027451
C73   C     C_R   0.398921 0.268414 0.965282 -0.026977
C74   C     C_R   0.608007 0.735888 0.015247 -0.024894
C75   C     C_R   0.965834 0.398783 0.268277 -0.027512
C76   C     C_R   0.015945 0.607708 0.735665 -0.025437
C77   C     C_R   0.692287 0.029652 0.691697 -0.168202
C78   C     C_R   0.568822 0.830827 0.016218 0.549359
C79   C     C_R   0.308322 0.970317 0.307736 -0.168236
C80   C     C_R   0.029747 0.692250 0.691651 -0.166458
C81   C     C_R   0.970478 0.308256 0.307659 -0.169516
C82   C     C_R   0.692301 0.691708 0.029581 -0.169566
C83   C     C_R   0.308319 0.307717 0.970293 -0.166413
C84   C     C_R   0.597889 0.014853 0.594803 0.034080
C85   C     C_R   0.405410 0.984426 0.402386 0.034068
C86   C     C_R   0.016501 0.597292 0.594312 0.034404
C87   C     C_R   0.986162 0.404910 0.401733 0.033708
C88   C     C_R   0.598028 0.594897 0.014439 0.033706
C89   C     C_R   0.973811 0.434744 0.171194 0.546918
C90   C     C_R   0.405497 0.402490 0.984065 0.034428
Cu1   Cu    Cu3+1 0.995180 0.995180 0.424630 0.905308
Cu2   Cu    Cu3+1 0.004820 0.004820 0.575370 0.903464
Cu3   Cu    Cu3+1 0.995180 0.424630 0.995180 0.902065
Cu4   Cu    Cu3+1 0.004820 0.575370 0.004820 0.902161
Cu5   Cu    Cu3+1 0.424630 0.995180 0.995180 0.903442
Cu6   Cu    Cu3+1 0.575370 0.004820 0.004820 0.905317
H1    H     H_    0.463879 0.939645 0.800577 0.144641
H2    H     H_    0.464049 0.800723 0.939337 0.144732
H3    H     H_    0.915219 0.584692 0.238087 0.149669
H4    H     H_    0.941488 0.462633 0.799761 0.158102
H5    H     H_    0.373024 0.953989 0.717033 0.105979
H6    H     H_    0.661751 0.950096 0.305930 0.105675
H7    H     H_    0.050811 0.693901 0.337996 0.105223
H8    H     H_    0.047918 0.282339 0.626117 0.105919
H9    H     H_    0.694329 0.338554 0.048605 0.105588
H10   H     H_    0.283665 0.627825 0.044077 0.107300
H11   H     H_    0.283471 0.044491 0.627687 0.105953
H12   H     H_    0.584917 0.914479 0.237940 0.149488
H13   H     H_    0.694126 0.049315 0.338442 0.105700
H14   H     H_    0.661835 0.306086 0.949495 0.105247
H15   H     H_    0.373212 0.717215 0.953523 0.105904
H16   H     H_    0.951612 0.661302 0.305727 0.105641
H17   H     H_    0.957354 0.371504 0.715917 0.107265
H18   H     H_    0.729186 0.034288 0.729179 0.158692
H19   H     H_    0.270765 0.965958 0.270740 0.158722
H20   H     H_    0.033767 0.729363 0.729306 0.160036
H21   H     H_    0.965489 0.270872 0.270879 0.157458
H22   H     H_    0.729153 0.729155 0.034359 0.157476
H23   H     H_    0.086007 0.762090 0.414980 0.150573
H24   H     H_    0.270727 0.270671 0.966067 0.160027
H25   H     H_    0.061519 0.198936 0.535346 0.144665
H26   H     H_    0.762035 0.415158 0.084804 0.149705
H27   H     H_    0.199926 0.536740 0.059373 0.158057
H28   H     H_    0.199808 0.059395 0.536812 0.144723
H29   H     H_    0.761974 0.085236 0.415170 0.149460
H30   H     H_    0.584879 0.238003 0.914118 0.150560
O1    O     O_R   0.124540 0.978640 0.385460 -0.513510
O2    O     O_R   0.124540 0.385460 0.978640 -0.502609
O3    O     O_R   0.021360 0.875460 0.614540 -0.502760
O4    O     O_R   0.978640 0.124540 0.385460 -0.514244
O5    O     O_R   0.013780 0.867370 0.487190 -0.514129
O6    O     O_R   0.986220 0.132630 0.512810 -0.525950
O7    O     O_R   0.867370 0.487190 0.013780 -0.526270
O8    O     O_R   0.132630 0.512810 0.986220 -0.517124
O9    O     O_R   0.487190 0.013780 0.867370 -0.525745
O10   O     O_R   0.512810 0.986220 0.132630 -0.514169
O11   O     O_R   0.512810 0.132630 0.986220 -0.514119
O12   O     O_R   0.875460 0.021360 0.614540 -0.503524
O13   O     O_R   0.487190 0.867370 0.013780 -0.526134
O14   O     O_R   0.986220 0.512810 0.132630 -0.526348
O15   O     O_R   0.013780 0.487190 0.867370 -0.517225
O16   O     O_R   0.132630 0.986220 0.512810 -0.525935
O17   O     O_R   0.867370 0.013780 0.487190 -0.514173
O18   O     O_R   0.978640 0.385460 0.124540 -0.513135
O19   O     O_R   0.021360 0.614540 0.875460 -0.502555
O20   O     O_R   0.385460 0.124540 0.978640 -0.502748
O21   O     O_R   0.614540 0.875460 0.021360 -0.514246
O22   O     O_R   0.614540 0.021360 0.875460 -0.513505
O23   O     O_R   0.385460 0.978640 0.124540 -0.503555
O24   O     O_R   0.875460 0.614540 0.021360 -0.513097

loop_
_geom_bond_atom_site_label_1
_geom_bond_atom_site_label_2
_ccdc_geom_bond_type
C25   C31   A    
C21   C87   A    
C26   C32   A    
Cu3   Cu4   S    
C65   C79   A    
C22   C29   A    
C79   H19   S    
C45   O22   A    
Cu4   O14   S    
C64   C77   A    
C23   C69   S    
Cu5   Cu6   S    
C3    O16   A    
Cu3   O15   S    
Cu2   O12   S    
C78   O13   A    
C4    O17   A    
C71   C79   A    
C26   C44   A    
C66   C80   A    
Cu6   O10   S    
Cu1   O4    S    
C2    O19   A    
C22   C35   A    
C12   C68   S    
C9    C42   A    
Cu1   O1    S    
C30   C35   A    
C68   C81   A    
C52   C85   A    
Cu2   O6    S    
C37   C40   A    
C1    O3    A    
C54   C87   A    
C3    O1    A    
C8    H25   S    
Cu1   O5    S    
C63   C76   A    
C34   O8    A    
C56   C65   S    
C81   H21   S    
C60   C73   A    
Cu5   O20   S    
C55   C88   A    
C35   C42   A    
C19   C26   A    
C69   C82   A    
C14   C47   A    
C11   H28   S    
C29   C33   A    
C20   C86   A    
C18   C84   A    
C7    C40   A    
C53   C86   A    
C9    C55   A    
C32   C38   A    
C57   C70   A    
C11   C58   A    
Cu2   O16   S    
C34   C70   S    
C27   C50   A    
C59   C72   A    
C13   H29   S    
Cu4   O19   S    
C17   H4    S    
C19   C31   A    
C5    C38   A    
C36   C41   A    
C18   C25   A    
C16   C62   A    
C15   C48   A    
C74   C82   A    
C67   O11   A    
C56   O10   A    
C9    H26   S    
Cu1   O17   S    
Cu6   O22   S    
C45   O9    A    
C57   C90   A    
C23   O7    A    
C29   C48   A    
C33   C43   A    
C7    H23   S    
C30   C47   A    
C10   C57   A    
C16   C49   A    
C10   H27   S    
C8    C54   A    
Cu1   Cu2   S    
C21   C36   A    
C75   C81   A    
C1    O5    A    
C43   H10   S    
C83   H24   S    
C3    C71   S    
C72   C77   A    
C70   C83   A    
C61   C88   A    
C28   C49   A    
C89   O14   A    
C67   O20   A    
Cu5   O9    S    
C1    C66   S    
C15   C61   A    
C11   C44   A    
C8    C41   A    
C53   C66   A    
C55   C69   A    
Cu3   O18   S    
C12   O4    A    
C78   O21   A    
C49   H16   S    
C67   C73   S    
Cu5   O13   S    
C21   C28   A    
C5    H1    S    
C22   C88   A    
C63   C86   A    
C61   C74   A    
C62   C75   A    
C18   C32   A    
C7    C53   A    
C15   H2    S    
C77   H18   S    
C89   O18   A    
C58   C85   A    
C4    C72   S    
C2    C76   S    
C39   H6    S    
C44   H11   S    
C59   C84   A    
Cu6   O21   S    
C6    H12   S    
C12   O6    A    
C10   C43   A    
C23   O24   A    
Cu6   O11   S    
C80   H20   S    
C51   C64   A    
C76   C80   A    
C19   C85   A    
C24   C90   A    
C17   C50   A    
C16   H3    S    
Cu5   O23   S    
C13   C59   A    
C20   C27   A    
C60   C90   A    
C27   C36   A    
C38   H5    S    
C47   H14   S    
C14   C60   A    
C62   C87   A    
C45   C64   S    
Cu3   O7    S    
C24   C33   A    
C14   H30   S    
C41   H8    S    
C50   H17   S    
Cu2   O3    S    
Cu3   O2    S    
C17   C63   A    
C40   H7    S    
C20   C37   A    
C13   C46   A    
C28   C37   A    
C51   C84   A    
Cu4   O8    S    
C31   C39   A    
C58   C71   A    
C42   H9    S    
C24   C30   A    
C75   C89   S    
C4    O12   A    
Cu4   O24   S    
C48   H15   S    
C54   C68   A    
C34   O2    A    
C74   C78   S    
C46   H13   S    
C2    O15   A    
C82   H22   S    
C6    C39   A    
C5    C51   A    
C6    C52   A    
C56   O23   A    
C25   C46   A    
C73   C83   A    
C52   C65   A    
