data_mof_unit_23832.cif
_audit_creation_date              2012-12-10T17:03:41-0500
_audit_creation_method            fapswitch 2.2
_symmetry_space_group_name_H-M    P1
_symmetry_Int_Tables_number       1
_space_group_crystal_system       triclinic
_cell_length_a                    10.042734
_cell_length_b                    10.687357
_cell_length_c                    13.091418
_cell_angle_alpha                 90.125226
_cell_angle_beta                  71.108035
_cell_angle_gamma                 89.450521
_cell_volume                      1329.33173462

loop_
_atom_site_label
_atom_site_type_symbol
_atom_type_description
_atom_site_fract_x
_atom_site_fract_y
_atom_site_fract_z
_atom_type_partial_charge
C1    C     C_R   0.496978 0.737410 0.505099 0.932303
C2    C     C_R   0.437942 0.558896 0.984358 0.099947
C3    C     C_R   0.471001 0.575742 0.872136 0.077400
C4    C     C_R   0.542860 0.582662 0.031740 0.000923
C5    C     C_R   0.684012 0.597110 0.965473 0.135606
C6    C     C_R   0.711313 0.630859 0.858152 -0.215254
C7    C     C_R   0.602041 0.630370 0.814506 -0.191503
C8    C     C_R   0.513522 0.586010 0.143194 0.162235
C9    C     C_R   0.759827 0.537458 0.115834 -0.251423
C10   C     C_R   0.376679 0.529820 0.820475 -0.112833
C11   C     C_2   0.568548 0.066155 0.565790 -0.005767
C12   C     C_R   0.423070 0.510193 0.703541 0.899215
C13   C     C_2   0.501922 0.130118 0.507458 -0.393588
C14   C     C_2   0.583676 0.931548 0.549551 -0.211505
C15   C     C_2   0.483169 0.868113 0.526732 -0.360459
C16   C     C_2   0.093224 0.411678 0.455490 -0.025485
C17   C     C_2   0.946504 0.417564 0.448760 -0.163429
C18   C     C_R   0.499302 0.262716 0.503932 0.995511
C19   C     C_R   0.576681 0.508176 0.296646 0.915576
C20   C     C_R   0.793140 0.576190 0.008643 -0.189742
C21   C     C_R   0.618592 0.539717 0.182739 -0.098298
C22   C     C_R   0.243910 0.485907 0.882292 -0.172898
C23   C     C_R   0.210308 0.473241 0.993190 -0.158907
C24   C     C_R   0.308903 0.503358 0.042954 -0.176711
H1    H     H_    0.843394 0.511332 0.147348 0.166822
H2    H     H_    0.458343 0.084805 0.451286 0.155874
H3    H     H_    0.676682 0.884750 0.556959 0.202987
H4    H     H_    0.383524 0.911501 0.530097 0.179316
H5    H     H_    0.090438 0.578779 0.526256 0.152574
H6    H     H_    0.916922 0.347401 0.400207 0.168440
H7    H     H_    0.876192 0.560359 0.550508 0.162335
H8    H     H_    0.816329 0.656339 0.808122 0.147956
H9    H     H_    0.902380 0.582317 0.958470 0.147918
H10   H     H_    0.169937 0.452582 0.844094 0.161469
H11   H     H_    0.286504 0.475571 0.125795 0.176355
H12   H     H_    0.111197 0.432051 0.039670 0.144788
H13   H     H_    0.624635 0.666195 0.733630 0.171306
N1    N     N_2   0.148270 0.498670 0.498870 -0.237958
N2    N     N_2   0.852610 0.498640 0.498840 -0.192865
O1    O     O_R   0.386950 0.680940 0.500020 -0.617937
O2    O     O_R   0.613110 0.680900 0.499980 -0.624510
O3    O     O_R   0.330780 0.500000 0.653640 -0.616805
O4    O     O_R   0.556930 0.499960 0.653610 -0.596710
O5    O     O_R   0.386890 0.319100 0.500020 -0.590066
O6    O     O_R   0.613050 0.319060 0.499980 -0.589886
O7    O     O_R   0.443070 0.500040 0.346390 -0.555248
O8    O     O_R   0.669220 0.500000 0.346360 -0.626667
Zn1   Zn    Zn3+2 0.349000 0.500030 0.500020 0.974482
Zn2   Zn    Zn3+2 0.651000 0.499970 0.499980 0.957190
C25   C     C_2   0.175863 0.299777 0.406086 0.980811
O9    O     O_2   0.137433 0.196701 0.443929 -0.627598
O10   O     O_R   0.292450 0.310541 0.312990 -0.813642
H14   H     H_    0.339181 0.226803 0.286265 0.325986
N3    N     N_2   0.427343 0.686631 0.202636 -0.302080
H15   H     H_    0.452684 0.772797 0.166515 0.227721
C26   C     C_3   0.277070 0.670289 0.250023 -0.721765
H16   H     H_    0.223640 0.691147 0.189793 0.222739
H17   H     H_    0.236072 0.737168 0.318259 0.242166
H18   H     H_    0.251115 0.574803 0.282327 0.268173
C27   C     C_2   0.626063 0.124396 0.646021 0.962052
O11   O     O_2   0.728613 0.077496 0.662705 -0.625592
O12   O     O_R   0.559491 0.229012 0.706000 -0.797976
H19   H     H_    0.607935 0.258897 0.758435 0.346934

loop_
_geom_bond_atom_site_label_1
_geom_bond_atom_site_label_2
_ccdc_geom_bond_type
H5    N1    S    
C2    C4    A    
C23   C24   A    
C18   O6    A    
O12   H19   S    
C1    C15   S    
C18   O5    A    
C14   H3    S    
C9    C20   A    
N1    Zn1   S    
C26   H18   S    
O6    Zn2   S    
C4    C8    A    
C25   O9    D    
C7    H13   S    
C19   O7    A    
C9    H1    S    
O8    Zn2   S    
C3    C10   A    
O3    Zn1   S    
C10   C22   A    
C17   H6    S    
C11   C13   D    
C9    C21   A    
C15   H4    S    
C6    C7    A    
C10   C12   S    
C13   C18   S    
C20   H9    S    
O2    Zn2   S    
C19   C21   S    
H7    N2    S    
C2    C3    A    
C12   O4    A    
C3    C7    A    
C26   H17   S    
C2    C24   A    
C5    C6    A    
C22   H10   S    
C11   C14   S    
N3    C26   S    
C13   H2    S    
C24   H11   S    
C16   C17   S    
C26   H16   S    
C11   C27   S    
O7    Zn1   S    
O5    Zn1   S    
C16   N1    D    
O10   H14   S    
C27   O12   S    
C23   H12   S    
C17   N2    D    
C19   O8    A    
C8    N3    S    
C25   O10   S    
C5    C20   A    
O1    Zn1   S    
N3    H15   S    
C4    C5    A    
C12   O3    A    
C1    O1    A    
N2    Zn2   S    
C14   C15   D    
C22   C23   A    
O4    Zn2   S    
C1    O2    A    
C16   C25   S    
C27   O11   D    
C6    H8    S    
C8    C21   A    
