data_mof_unit_14207.cif
_audit_creation_date              2013-03-05T15:44:24-0500
_audit_creation_method            fapswitch 2.2
_symmetry_space_group_name_H-M    P1
_symmetry_Int_Tables_number       1
_space_group_crystal_system       triclinic
_cell_length_a                    18.931531
_cell_length_b                    10.963279
_cell_length_c                    18.869793
_cell_angle_alpha                 90.037669
_cell_angle_beta                  90.64522
_cell_angle_gamma                 90.624114
_cell_volume                      3915.9749337

loop_
_atom_site_label
_atom_site_type_symbol
_atom_site_description
_atom_site_fract_x
_atom_site_fract_y
_atom_site_fract_z
_atom_type_partial_charge
O1    O     O_R   0.784320 0.290430 0.830510 -0.530606
O2    O     O_R   0.215680 0.290430 0.169490 -0.533471
O3    O     O_R   0.284320 0.790430 0.830510 -0.530774
O4    O     O_R   0.715680 0.790430 0.169490 -0.532176
O5    O     O_R   0.762640 0.040960 0.825200 -0.504620
O6    O     O_R   0.237360 0.040960 0.174800 -0.509452
O7    O     O_R   0.262640 0.540960 0.825200 -0.504739
O8    O     O_R   0.737360 0.540960 0.174800 -0.510149
C1    C     C_R   0.726279 0.958381 0.854877 0.572879
C2    C     C_R   0.273429 0.958062 0.145475 0.561248
C3    C     C_R   0.226178 0.458570 0.854980 0.573916
C4    C     C_R   0.773554 0.458278 0.145353 0.560188
O9    O     O_R   0.667400 0.923970 0.829950 -0.493900
O10   O     O_R   0.332600 0.923970 0.170050 -0.508146
O11   O     O_R   0.167400 0.423970 0.829950 -0.493732
O12   O     O_R   0.832600 0.423970 0.170050 -0.495254
O13   O     O_R   0.553960 0.081340 0.821780 -0.507408
O14   O     O_R   0.446040 0.081340 0.178220 -0.506587
O15   O     O_R   0.053960 0.581340 0.821780 -0.507857
O16   O     O_R   0.946040 0.581340 0.178220 -0.506135
C5    C     C_R   0.530321 0.177374 0.850998 0.546335
C6    C     C_R   0.469584 0.177937 0.148943 0.544923
C7    C     C_R   0.030306 0.677376 0.850989 0.546287
C8    C     C_R   0.969579 0.677934 0.148938 0.542749
O17   O     O_R   0.543180 0.283240 0.826740 -0.492399
O18   O     O_R   0.456820 0.283240 0.173260 -0.494379
O19   O     O_R   0.043180 0.783240 0.826740 -0.492100
O20   O     O_R   0.956820 0.783240 0.173260 -0.496683
O21   O     O_R   0.678360 0.375140 0.822710 -0.453092
O22   O     O_R   0.321640 0.375140 0.177290 -0.456221
O23   O     O_R   0.178360 0.875140 0.822710 -0.453286
O24   O     O_R   0.821640 0.875140 0.177290 -0.456058
C9    C     C_R   0.738865 0.364970 0.852560 0.568848
C10   C     C_R   0.261260 0.366001 0.147646 0.570117
C11   C     C_R   0.238812 0.864670 0.852670 0.569650
C12   C     C_R   0.761265 0.865844 0.147580 0.564697
O25   O     O_R   0.785050 0.289380 0.670560 -0.532021
O26   O     O_R   0.214950 0.289380 0.329440 -0.527429
O27   O     O_R   0.285050 0.789380 0.670560 -0.531883
O28   O     O_R   0.714950 0.789380 0.329440 -0.528252
O29   O     O_R   0.763320 0.039990 0.676930 -0.508191
O30   O     O_R   0.236680 0.039990 0.323070 -0.515650
O31   O     O_R   0.263320 0.539990 0.676930 -0.508193
O32   O     O_R   0.736680 0.539990 0.323070 -0.516566
C13   C     C_R   0.709357 0.999509 0.639452 0.549466
C14   C     C_R   0.271640 0.954354 0.352204 0.566868
C15   C     C_R   0.209359 0.499507 0.639452 0.549581
C16   C     C_R   0.771642 0.454360 0.352207 0.565763
O33   O     O_R   0.668130 0.922920 0.670000 -0.405776
O34   O     O_R   0.331870 0.922920 0.330000 -0.436117
O35   O     O_R   0.168130 0.422920 0.670000 -0.405602
O36   O     O_R   0.831870 0.422920 0.330000 -0.433231
O37   O     O_R   0.554640 0.080370 0.673500 -0.501989
O38   O     O_R   0.445360 0.080370 0.326500 -0.501393
O39   O     O_R   0.054640 0.580370 0.673500 -0.502049
O40   O     O_R   0.945360 0.580370 0.326500 -0.501543
C17   C     C_R   0.530009 0.176117 0.644811 0.522231
C18   C     C_R   0.469387 0.176141 0.355426 0.527830
C19   C     C_R   0.030009 0.676116 0.644811 0.522210
C20   C     C_R   0.969387 0.676140 0.355425 0.526318
O41   O     O_R   0.543920 0.282180 0.666790 -0.482706
O42   O     O_R   0.456080 0.282180 0.333210 -0.464859
O43   O     O_R   0.043920 0.782180 0.666790 -0.482681
O44   O     O_R   0.956080 0.782180 0.333210 -0.464536
O45   O     O_R   0.679040 0.374160 0.674430 -0.446257
O46   O     O_R   0.320960 0.374160 0.325570 -0.431720
O47   O     O_R   0.179040 0.874160 0.674430 -0.446168
O48   O     O_R   0.820960 0.874160 0.325570 -0.430931
C21   C     C_R   0.738881 0.360194 0.645231 0.562374
C22   C     C_R   0.261633 0.362313 0.354175 0.562943
C23   C     C_R   0.238879 0.860184 0.645227 0.562702
C24   C     C_R   0.761634 0.862308 0.354178 0.561836
Cr1   Cr    Cr6+3 0.769270 0.163730 0.750710 1.043526
Cr2   Cr    Cr6+3 0.230730 0.163730 0.249290 1.044546
Cr3   Cr    Cr6+3 0.269270 0.663730 0.750710 1.043136
Cr4   Cr    Cr6+3 0.730730 0.663730 0.249290 1.045008
Cr5   Cr    Cr6+3 0.612620 0.009790 0.748780 1.105036
Cr6   Cr    Cr6+3 0.387380 0.009790 0.251220 1.084026
Cr7   Cr    Cr6+3 0.112620 0.509790 0.748780 1.104469
Cr8   Cr    Cr6+3 0.887380 0.509790 0.251220 1.098503
Cr9   Cr    Cr6+3 0.614160 0.322500 0.747710 1.135742
Cr10  Cr    Cr6+3 0.385840 0.322500 0.252290 1.143463
Cr11  Cr    Cr6+3 0.114160 0.822500 0.747710 1.135900
Cr12  Cr    Cr6+3 0.885840 0.822500 0.252290 1.153798
O49   O     O_3   0.665350 0.165340 0.749070 -0.313214
O50   O     O_3   0.334650 0.165340 0.250930 -0.289930
O51   O     O_3   0.165350 0.665340 0.749070 -0.313368
O52   O     O_3   0.834650 0.665340 0.250930 -0.292590
C25   C     C_2   0.498130 0.168107 0.921009 -0.101576
C26   C     C_2   0.501719 0.169380 0.078907 -0.102813
C27   C     C_2   0.998094 0.668142 0.920994 -0.101111
C28   C     C_2   0.001676 0.669367 0.078883 -0.102296
C29   C     C_2   0.491466 0.069993 0.038069 -0.162949
C30   C     C_2   0.508692 0.069817 0.962229 -0.162599
C31   C     C_2   0.991375 0.569986 0.038045 -0.163498
C32   C     C_2   0.008523 0.569780 0.962184 -0.163817
H1    H     H_    0.469244 0.986679 0.060091 0.159124
H2    H     H_    0.531131 0.987239 0.940520 0.154642
H3    H     H_    0.969177 0.486676 0.060091 0.155698
H4    H     H_    0.030786 0.487103 0.940427 0.152048
H5    H     H_    0.525766 0.251287 0.056935 0.140396
H6    H     H_    0.473851 0.249184 0.942689 0.137734
H7    H     H_    0.025720 0.751268 0.056901 0.137544
H8    H     H_    0.973929 0.749301 0.942701 0.138591
C33   C     C_R   0.699527 0.481373 0.960884 0.034165
C34   C     C_R   0.303384 0.478766 0.038775 0.034918
C35   C     C_R   0.200058 0.981998 0.960880 0.034360
C36   C     C_R   0.802647 0.980274 0.038821 0.035108
C37   C     C_R   0.703425 0.486835 0.034914 -0.135360
C38   C     C_R   0.298455 0.483847 0.964711 -0.143582
C39   C     C_R   0.203741 0.987768 0.034908 -0.136002
C40   C     C_R   0.797998 0.985285 0.964793 -0.138534
H9    H     H_    0.666339 0.542833 0.063345 0.171767
H10   H     H_    0.337858 0.534674 0.935316 0.157282
H11   H     H_    0.167391 0.045644 0.063031 0.167309
H12   H     H_    0.836735 0.038044 0.935646 0.165913
C41   C     C_R   0.757950 0.427772 0.071939 0.003276
C42   C     C_R   0.240713 0.430073 0.928861 0.006903
C43   C     C_R   0.257369 0.926860 0.072280 0.004706
C44   C     C_R   0.741123 0.929365 0.928604 0.004383
C45   C     C_R   0.808718 0.363031 0.034982 -0.132786
C46   C     C_R   0.187096 0.372872 0.967138 -0.127963
C47   C     C_R   0.307134 0.859294 0.035750 -0.131933
C48   C     C_R   0.688265 0.869453 0.966493 -0.129032
H13   H     H_    0.852870 0.320017 0.061588 0.174544
H14   H     H_    0.140466 0.334501 0.941461 0.165819
H15   H     H_    0.350543 0.814686 0.062651 0.171916
H16   H     H_    0.642282 0.829308 0.940542 0.169709
C49   C     C_R   0.806107 0.357875 0.962631 -0.158354
C50   C     C_R   0.190630 0.368685 0.039573 -0.157785
C51   C     C_R   0.304670 0.853590 0.963433 -0.156384
C52   C     C_R   0.691568 0.864997 0.038901 -0.157117
H17   H     H_    0.846891 0.305622 0.937098 0.156858
H18   H     H_    0.147793 0.322041 0.066325 0.155566
H19   H     H_    0.344722 0.799159 0.938273 0.156805
H20   H     H_    0.649268 0.816287 0.065287 0.161139
C53   C     C_R   0.750165 0.411107 0.924547 0.006573
C54   C     C_R   0.250088 0.414714 0.076288 0.011906
C55   C     C_R   0.249899 0.909558 0.924925 0.005913
C56   C     C_R   0.750105 0.913716 0.076025 0.005936
C57   C     C_R   0.564791 0.216032 0.524807 -0.061137
C58   C     C_R   0.551891 0.215039 0.452828 -0.082796
C59   C     C_R   0.064794 0.716023 0.524807 -0.061122
C60   C     C_R   0.051894 0.715029 0.452827 -0.082608
H21   H     H_    0.614376 0.253480 0.544611 0.105026
H22   H     H_    0.590317 0.253790 0.416878 0.115920
H23   H     H_    0.114380 0.753463 0.544611 0.104984
H24   H     H_    0.090322 0.753774 0.416878 0.116018
C61   C     C_R   0.488590 0.165165 0.428079 0.089378
C62   C     C_R   0.513706 0.169688 0.571291 0.089670
C63   C     C_R   0.988590 0.665164 0.428079 0.089260
C64   C     C_R   0.013707 0.669686 0.571291 0.089670
C65   C     C_R   0.437679 0.117182 0.474473 -0.025133
C66   C     C_R   0.450337 0.119438 0.546787 -0.054335
C67   C     C_R   0.937678 0.617186 0.474473 -0.025184
C68   C     C_R   0.950336 0.619442 0.546787 -0.054278
H25   H     H_    0.387611 0.081419 0.454704 0.115025
H26   H     H_    0.411235 0.083826 0.583048 0.118462
H27   H     H_    0.887608 0.581429 0.454705 0.114596
H28   H     H_    0.911233 0.583836 0.583048 0.118378
C69   C     C_R   0.793658 0.323415 0.531422 -0.166733
C70   C     C_R   0.180678 0.419213 0.446669 -0.140869
C71   C     C_R   0.293637 0.823363 0.531409 -0.166664
C72   C     C_R   0.680677 0.919207 0.446671 -0.140910
H29   H     H_    0.827588 0.256934 0.556624 0.188502
H30   H     H_    0.138002 0.392240 0.411017 0.195512
H31   H     H_    0.327561 0.756872 0.556611 0.188545
H32   H     H_    0.638002 0.892233 0.411019 0.195161
C73   C     C_R   0.794038 0.328114 0.458487 0.164952
C74   C     C_R   0.165693 0.435043 0.517833 0.174917
C75   C     C_R   0.294020 0.828072 0.458472 0.166134
C76   C     C_R   0.665691 0.935043 0.517834 0.174994
C77   C     C_R   0.751832 0.413964 0.423136 -0.046977
C78   C     C_R   0.221323 0.472211 0.564625 -0.050329
C79   C     C_R   0.251823 0.913943 0.423127 -0.046560
C80   C     C_R   0.721321 0.972214 0.564625 -0.050261
C81   C     C_R   0.703757 0.483809 0.461816 -0.164961
C82   C     C_R   0.290100 0.484964 0.538807 -0.142197
C83   C     C_R   0.203752 0.983792 0.461809 -0.165041
C84   C     C_R   0.790098 0.984966 0.538809 -0.142211
H33   H     H_    0.671390 0.551176 0.435329 0.192431
H34   H     H_    0.333105 0.512580 0.573824 0.194305
H35   H     H_    0.171390 0.051170 0.435326 0.192639
H36   H     H_    0.833102 0.012586 0.573826 0.194341
C85   C     C_R   0.701169 0.475427 0.535637 0.160650
C86   C     C_R   0.306284 0.453758 0.469524 0.204655
C87   C     C_R   0.201165 0.975407 0.535631 0.160537
C88   C     C_R   0.806283 0.953750 0.469528 0.204077
C89   C     C_R   0.747403 0.395053 0.570999 -0.045372
C90   C     C_R   0.250087 0.420626 0.422521 -0.023229
C91   C     C_R   0.247393 0.895021 0.570990 -0.045573
C92   C     C_R   0.750087 0.920617 0.422524 -0.023386
N1    N     N_R   0.839667 0.247607 0.421244 0.099601
O53   O     O_R   0.816519 0.188745 0.365561 -0.302491
O54   O     O_R   0.905236 0.236777 0.441501 -0.228806
N2    N     N_R   0.095022 0.404923 0.540237 0.086553
O55   O     O_R   0.085409 0.320101 0.587303 -0.194543
O56   O     O_R   0.042813 0.425240 0.496687 -0.342146
N3    N     N_R   0.339653 0.747577 0.421225 0.099198
O57   O     O_R   0.316517 0.688753 0.365523 -0.307823
O58   O     O_R   0.405225 0.736776 0.441474 -0.230312
N4    N     N_R   0.595019 0.904927 0.540237 0.086525
O59   O     O_R   0.585405 0.820108 0.587305 -0.194516
O60   O     O_R   0.542812 0.925240 0.496685 -0.342463
N5    N     N_R   0.652774 0.550570 0.573412 0.103325
O61   O     O_R   0.673753 0.610369 0.629553 -0.272308
O62   O     O_R   0.589789 0.569311 0.547622 -0.235559
N6    N     N_R   0.379946 0.444354 0.451885 0.102045
O63   O     O_R   0.405558 0.501776 0.397530 -0.199764
O64   O     O_R   0.424146 0.402858 0.499094 -0.334850
N7    N     N_R   0.152779 0.050563 0.573408 0.103315
O65   O     O_R   0.173768 0.110367 0.629544 -0.272046
O66   O     O_R   0.089792 0.069310 0.547624 -0.235391
N8    N     N_R   0.879946 0.944334 0.451894 0.101330
O67   O     O_R   0.905564 0.001763 0.397544 -0.196210
O68   O     O_R   0.924140 0.902833 0.499106 -0.335051
C93   C     C_2   0.644557 0.554280 0.924228 0.569681
O69   O     O_2   0.656760 0.601583 0.866905 -0.487017
O70   O     O_R   0.579683 0.573544 0.956928 -0.690418
H37   H     H_    0.546990 0.626332 0.927435 0.343862
C94   C     C_2   0.362459 0.545080 0.074702 0.568055
O71   O     O_2   0.420152 0.552691 0.046389 -0.518574
O72   O     O_R   0.351450 0.603180 0.139609 -0.670117
H38   H     H_    0.395450 0.646462 0.158306 0.344329
C95   C     C_2   0.146320 0.057000 0.923821 0.572884
O73   O     O_2   0.159403 0.103271 0.866418 -0.484789
O74   O     O_R   0.081641 0.079333 0.956219 -0.705951
H39   H     H_    0.049823 0.133256 0.926469 0.342245
C96   C     C_2   0.860752 0.049415 0.074544 0.566750
O75   O     O_2   0.851207 0.097706 0.132047 -0.490668
O76   O     O_R   0.925653 0.064185 0.040741 -0.702927
H40   H     H_    0.960633 0.114873 0.069640 0.346069

loop_
_geom_bond_atom_site_label_1
_geom_bond_atom_site_label_2
_geom_bond_distance
_ccdc_geom_bond_type
C18   O42   1.263066 A    
Cr11  O51   1.986048 S    
O4    C12   1.261815 A    
C86   C90   1.421393 A    
C29   C30   1.471348 S    
O25   C21   1.265298 A    
C25   H6    1.086914 S    
O20   Cr12  2.066822 S    
C58   H22   1.083805 S    
C71   H31   1.083410 S    
C31   C32   1.471398 S    
C38   H10   1.084107 S    
C40   H12   1.084041 S    
C27   H8    1.086903 S    
C60   H24   1.083805 S    
C43   C47   1.393072 A    
C38   C42   1.403180 A    
O26   C22   1.270078 A    
C24   C92   1.458781 S    
O1    C9    1.266650 A    
C5    C25   1.464236 S    
N5    O61   1.301446 A    
C59   H23   1.082994 S    
C76   C80   1.422685 A    
O5    C1    1.266034 A    
C94   O71   1.223332 D    
N4    O60   1.299445 A    
O36   Cr8   2.058276 S    
C69   H29   1.083410 S    
O24   C12   1.270463 A    
C58   C61   1.387798 A    
C33   C53   1.418722 A    
C66   H26   1.083526 S    
C60   C63   1.387797 A    
O39   C19   1.272042 A    
O26   Cr2   2.071389 S    
C31   H3    1.086252 S    
C34   C54   1.418981 A    
C34   C94   1.484429 S    
C83   C87   1.397458 A    
C30   H2    1.086142 S    
C81   C85   1.397465 A    
C59   C60   1.377324 A    
O21   C9    1.276750 A    
O8    Cr4   1.951482 S    
O23   Cr11  1.938570 S    
C48   C52   1.367991 A    
C39   C43   1.404720 A    
O30   C14   1.275824 A    
C25   C30   1.344779 D    
O32   Cr4   1.947711 S    
C81   H33   1.083597 S    
C61   C65   1.407350 A    
O44   Cr12  2.064741 S    
O7    C3    1.266476 A    
C1    O9    1.258920 A    
C2    C43   1.450779 S    
C84   C88   1.389541 A    
C28   H7    1.086877 S    
C11   C55   1.461364 S    
C27   C32   1.344721 D    
C70   H30   1.084005 S    
C3    O11   1.258553 A    
O41   Cr9   2.058100 S    
O11   Cr7   2.072223 S    
C64   C68   1.388992 A    
C9    C53   1.461844 S    
N6    O63   1.299553 A    
N1    O54   1.301404 A    
O47   C23   1.276004 A    
C75   N3    1.431288 S    
C62   C66   1.388992 A    
O27   Cr3   2.068382 S    
O8    C4    1.273338 A    
C71   C75   1.377408 A    
Cr4   O52   1.967146 S    
C87   C91   1.411458 A    
O2    Cr2   2.068771 S    
C18   C61   1.419902 S    
C37   H9    1.084013 S    
C48   H16   1.083092 S    
C69   C73   1.377378 A    
C73   N1    1.431270 S    
O2    C10   1.262448 A    
O42   Cr10  2.064741 S    
Cr5   O49   1.966598 S    
N3    O57   1.301973 A    
O18   Cr10  2.066822 S    
C94   O72   1.398881 S    
C78   C82   1.400931 A    
Cr8   O52   1.985373 S    
O17   Cr9   2.061129 S    
C50   H18   1.083744 S    
O34   Cr6   2.058276 S    
Cr7   O51   1.966598 S    
C57   C62   1.404220 A    
O6    Cr2   1.951482 S    
C67   C68   1.382944 A    
C83   H35   1.083597 S    
C36   C96   1.484401 S    
N5    O62   1.301257 A    
O31   Cr3   1.944725 S    
O24   Cr12  1.946989 S    
O16   Cr8   1.939839 S    
O9    Cr5   2.072223 S    
O30   Cr2   1.947711 S    
N4    O59   1.299117 A    
O22   C10   1.269891 A    
C67   H27   1.084004 S    
O48   Cr12  1.947790 S    
C4    O12   1.267219 A    
C72   H32   1.084008 S    
O32   C16   1.275826 A    
O72   H38   1.013930 S    
N2    O56   1.299446 A    
C2    O10   1.267767 A    
C13   C80   1.463768 S    
C21   C89   1.462401 S    
O70   H37   1.013996 S    
C40   C44   1.403580 A    
C88   N8    1.442103 S    
N8    O67   1.299547 A    
O7    Cr3   1.950869 S    
C93   O69   1.223154 D    
Cr10  O50   1.967619 S    
C75   C79   1.405166 A    
C10   C54   1.462885 S    
C28   C31   1.345299 D    
O13   C5    1.275852 A    
C36   C40   1.399815 A    
C71   C91   1.403694 A    
C44   C48   1.395118 A    
O48   C24   1.257089 A    
O12   Cr8   2.061021 S    
C20   C63   1.419906 S    
C46   H14   1.083065 S    
O15   C7    1.275906 A    
C26   H5    1.086888 S    
C45   H13   1.082841 S    
C96   O75   1.223141 D    
C85   N5    1.434063 S    
O46   Cr10  1.947790 S    
O39   Cr7   1.950968 S    
O3    C11   1.265899 A    
C80   C84   1.400924 A    
O45   Cr9   1.940523 S    
O74   H39   1.013927 S    
C70   C74   1.386787 A    
C13   O33   1.281789 A    
C52   H20   1.083683 S    
Cr1   O49   1.967531 S    
C17   C62   1.419361 S    
O13   Cr5   1.948867 S    
C95   O73   1.223117 D    
C6    C26   1.464451 S    
O47   Cr11  1.940523 S    
Cr2   O50   1.967146 S    
O15   Cr7   1.948867 S    
C12   C56   1.462928 S    
C74   C78   1.422681 A    
C82   H34   1.083216 S    
C42   C46   1.395891 A    
C85   C89   1.411464 A    
C49   H17   1.083559 S    
Cr3   O51   1.967531 S    
O14   Cr6   1.939839 S    
N7    O66   1.301259 A    
C87   N7    1.434062 S    
O21   Cr9   1.938570 S    
C7    O19   1.269983 A    
C79   C83   1.405995 A    
O37   Cr5   1.950968 S    
C8    C28   1.464494 S    
C8    O20   1.268749 A    
C7    C27   1.464271 S    
C19   O43   1.258458 A    
C72   C76   1.386785 A    
C52   C56   1.404707 A    
C50   C54   1.404036 A    
C29   H1    1.086290 S    
C47   H15   1.082529 S    
C70   C90   1.395560 A    
O3    Cr3   2.063265 S    
C22   C90   1.458782 S    
C26   C29   1.345246 D    
C36   C56   1.419629 A    
C16   C77   1.461710 S    
O38   C18   1.261146 A    
O25   Cr1   2.068382 S    
C5    O17   1.270004 A    
C59   C64   1.404218 A    
O37   C17   1.272045 A    
O22   Cr10  1.946989 S    
O28   C24   1.270071 A    
C47   C51   1.366256 A    
O14   C6    1.273349 A    
C35   C39   1.399190 A    
O5    Cr1   1.950869 S    
Cr12  O52   1.967619 S    
C45   C49   1.366687 A    
N2    O55   1.299115 A    
O6    C2    1.272716 A    
C15   O35   1.281788 A    
C37   C41   1.404228 A    
C17   O41   1.258455 A    
C35   C95   1.484274 S    
C68   H28   1.083525 S    
C41   C45   1.393980 A    
C93   O70   1.398670 S    
C88   C92   1.421394 A    
C14   O34   1.270271 A    
C51   H19   1.083533 S    
C63   C67   1.407351 A    
O40   Cr8   1.940717 S    
C86   N6    1.442113 S    
C20   O44   1.263070 A    
O1    Cr1   2.063265 S    
C69   C89   1.403677 A    
O19   Cr11  2.061129 S    
C65   C66   1.382945 A    
C96   O76   1.398645 S    
N6    O64   1.301053 A    
O29   C13   1.309267 A    
C57   C58   1.377323 A    
C76   N4    1.442594 S    
C33   C93   1.484232 S    
C74   N2    1.442592 S    
C73   C77   1.405166 A    
Cr6   O50   1.985373 S    
O46   C22   1.257082 A    
C33   C37   1.399254 A    
O45   C21   1.276000 A    
C32   H4    1.086045 S    
O23   C11   1.277078 A    
C57   H21   1.082996 S    
C95   O74   1.398657 S    
O33   Cr5   2.067942 S    
N8    O68   1.301056 A    
O10   Cr6   2.061021 S    
C65   H25   1.084007 S    
O16   C8    1.273333 A    
O35   Cr7   2.067942 S    
O4    Cr4   2.068771 S    
C15   C78   1.463776 S    
C51   C55   1.406110 A    
O29   Cr1   1.944725 S    
N7    O65   1.301446 A    
C82   C86   1.389552 A    
C19   C64   1.419360 S    
O40   C20   1.261146 A    
C16   O36   1.270273 A    
C49   C53   1.405538 A    
C34   C38   1.400818 A    
N1    O53   1.301960 A    
C6    O18   1.268710 A    
O28   Cr4   2.071389 S    
O43   Cr11  2.058100 S    
O76   H40   1.013993 S    
N3    O58   1.301402 A    
C1    C44   1.452366 S    
O27   C23   1.265291 A    
C14   C79   1.461702 S    
C39   H11   1.084026 S    
C4    C41   1.451289 S    
C23   C91   1.462415 S    
C77   C81   1.405996 A    
C72   C92   1.395562 A    
C3    C42   1.452830 S    
O31   C15   1.309264 A    
C46   C50   1.368553 A    
C35   C55   1.418236 A    
Cr9   O49   1.986048 S    
C84   H36   1.083218 S    
O38   Cr6   1.940717 S    
