data_mof_unit_6786.cif
_audit_creation_date              2013-03-05T16:28:34-0500
_audit_creation_method            fapswitch 2.2
_symmetry_space_group_name_H-M    P1
_symmetry_Int_Tables_number       1
_space_group_crystal_system       triclinic
_cell_length_a                    18.467838
_cell_length_b                    18.380179
_cell_length_c                    42.879767
_cell_angle_alpha                 90.009854
_cell_angle_beta                  90.043215
_cell_angle_gamma                 89.934038
_cell_volume                      14555.1870828

loop_
_atom_site_label
_atom_site_type_symbol
_atom_site_description
_atom_site_fract_x
_atom_site_fract_y
_atom_site_fract_z
_atom_type_partial_charge
Zn1   Zn    Zn3+2 1.000000 0.586730 0.025950 0.958605
Zn2   Zn    Zn3+2 0.413270 0.000000 0.025950 0.970006
Zn3   Zn    Zn3+2 0.000000 0.413270 0.025950 0.958491
Zn4   Zn    Zn3+2 0.586730 0.000000 0.025950 0.968870
Zn5   Zn    Zn3+2 0.500000 0.086730 0.525950 0.958300
Zn6   Zn    Zn3+2 0.913270 0.500000 0.525950 0.978632
Zn7   Zn    Zn3+2 0.500000 0.913270 0.525950 0.960666
Zn8   Zn    Zn3+2 0.086730 0.500000 0.525950 0.976894
Zn9   Zn    Zn3+2 0.913260 0.500000 0.974020 0.942091
Zn10  Zn    Zn3+2 0.500000 0.913260 0.974020 0.945881
Zn11  Zn    Zn3+2 0.086740 0.500000 0.974020 0.960073
Zn12  Zn    Zn3+2 0.500000 0.086740 0.974020 0.946176
Zn13  Zn    Zn3+2 0.413260 0.000000 0.474020 0.938635
Zn14  Zn    Zn3+2 0.000000 0.413260 0.474020 0.943336
Zn15  Zn    Zn3+2 0.586740 0.000000 0.474020 0.939618
Zn16  Zn    Zn3+2 1.000000 0.586740 0.474020 0.941636
O1    O     O_3   1.000000 0.500000 0.999980 -0.492335
O2    O     O_3   0.500000 0.000000 0.999980 -0.495651
O3    O     O_3   0.500000 0.000000 0.499980 -0.489488
O4    O     O_3   0.000000 0.500000 0.499980 -0.498178
O5    O     O_R   0.060770 0.500000 0.930670 -0.647521
O6    O     O_R   0.500000 0.060770 0.930670 -0.659405
O7    O     O_R   0.939230 0.500000 0.930670 -0.658054
O8    O     O_R   0.500000 0.939230 0.930670 -0.654412
O9    O     O_R   0.560770 0.000000 0.430670 -0.656977
O10   O     O_R   0.000000 0.560770 0.430670 -0.657125
O11   O     O_R   0.439230 0.000000 0.430670 -0.656825
O12   O     O_R   1.000000 0.439230 0.430670 -0.656259
O13   O     O_R   1.000000 0.560690 0.069300 -0.649682
O14   O     O_R   0.439310 0.000000 0.069300 -0.653349
O15   O     O_R   1.000000 0.439310 0.069300 -0.649015
O16   O     O_R   0.560690 0.000000 0.069300 -0.653740
O17   O     O_R   0.500000 0.060690 0.569300 -0.651296
O18   O     O_R   0.939310 0.500000 0.569300 -0.651093
O19   O     O_R   0.500000 0.939310 0.569300 -0.656676
O20   O     O_R   0.060690 0.500000 0.569300 -0.654450
O21   O     O_R   0.853850 0.585430 0.981810 -0.647981
O22   O     O_R   0.414570 0.853850 0.981810 -0.636727
O23   O     O_R   0.146150 0.414570 0.981810 -0.642598
O24   O     O_R   0.585430 0.146150 0.981810 -0.625274
O25   O     O_R   0.146150 0.585430 0.981810 -0.623934
O26   O     O_R   0.585430 0.853850 0.981810 -0.657094
O27   O     O_R   0.853850 0.414570 0.981810 -0.640309
O28   O     O_R   0.414570 0.146150 0.981810 -0.656663
O29   O     O_R   0.353850 0.085430 0.481810 -0.653155
O30   O     O_R   0.914570 0.353850 0.481810 -0.630778
O31   O     O_R   0.646150 0.914570 0.481810 -0.653291
O32   O     O_R   0.085430 0.646150 0.481810 -0.631706
O33   O     O_R   0.646150 0.085430 0.481810 -0.638586
O34   O     O_R   0.085430 0.353850 0.481810 -0.652339
O35   O     O_R   0.353850 0.914570 0.481810 -0.638479
O36   O     O_R   0.914570 0.646150 0.481810 -0.653963
O37   O     O_R   0.085450 0.353830 0.018160 -0.619332
O38   O     O_R   0.646170 0.085450 0.018160 -0.608528
O39   O     O_R   0.914550 0.646170 0.018160 -0.617864
O40   O     O_R   0.353830 0.914550 0.018160 -0.603094
O41   O     O_R   0.914550 0.353830 0.018160 -0.635617
O42   O     O_R   0.353830 0.085450 0.018160 -0.618399
O43   O     O_R   0.085450 0.646170 0.018160 -0.633534
O44   O     O_R   0.646170 0.914550 0.018160 -0.618762
O45   O     O_R   0.585450 0.853830 0.518160 -0.610535
O46   O     O_R   0.146170 0.585450 0.518160 -0.601686
O47   O     O_R   0.414550 0.146170 0.518160 -0.618031
O48   O     O_R   0.853830 0.414550 0.518160 -0.603977
O49   O     O_R   0.414550 0.853830 0.518160 -0.636880
O50   O     O_R   0.853830 0.585450 0.518160 -0.614225
O51   O     O_R   0.585450 0.146170 0.518160 -0.634075
O52   O     O_R   0.146170 0.414550 0.518160 -0.615384
C1    C     C_R   0.000119 0.500495 0.916000 0.825895
C2    C     C_R   0.500073 0.999974 0.915854 0.852363
C3    C     C_R   0.499971 0.000008 0.415959 0.843139
C4    C     C_R   0.999985 0.499994 0.415965 0.842122
C5    C     C_R   0.000005 0.500008 0.084176 0.829374
C6    C     C_R   0.500022 0.000017 0.084160 0.822964
C7    C     C_R   0.499928 0.999988 0.584214 0.833307
C8    C     C_R   0.000034 0.500174 0.584117 0.816481
C9    C     C_R   0.860701 0.640821 0.999614 0.863388
C10   C     C_R   0.359634 0.860572 0.999660 0.857628
C11   C     C_R   0.139190 0.359115 0.999598 0.858799
C12   C     C_R   0.640212 0.139716 0.999800 0.858098
C13   C     C_R   0.139795 0.640131 0.000099 0.864487
C14   C     C_R   0.640107 0.859957 0.000094 0.873212
C15   C     C_R   0.860080 0.359824 0.000139 0.870102
C16   C     C_R   0.359919 0.140072 0.000129 0.872395
C17   C     C_R   0.360821 0.140851 0.499584 0.860103
C18   C     C_R   0.859563 0.360492 0.499650 0.858083
C19   C     C_R   0.639401 0.859344 0.499747 0.861220
C20   C     C_R   0.140411 0.639508 0.499661 0.858642
C21   C     C_R   0.639684 0.140460 0.499921 0.871700
C22   C     C_R   0.140188 0.359937 0.500136 0.870377
C23   C     C_R   0.360292 0.859485 0.499965 0.870681
C24   C     C_R   0.860071 0.640278 0.500257 0.871876
C25   C     C_R   0.260111 0.687687 0.985515 -0.052252
C26   C     C_R   0.308184 0.255325 0.980854 -0.111597
C27   C     C_R   0.733900 0.318514 0.991309 -0.095681
C28   C     C_R   0.690353 0.743319 0.981516 -0.112407
C29   C     C_R   0.743306 0.689850 0.981345 -0.110093
C30   C     C_R   0.681015 0.266873 0.991596 -0.109572
C31   C     C_R   0.255134 0.308757 0.980609 -0.111603
C32   C     C_R   0.311743 0.739535 0.985135 -0.056772
C33   C     C_R   0.766019 0.181431 0.491110 -0.104987
C34   C     C_R   0.810976 0.758522 0.482873 -0.119936
C35   C     C_R   0.233986 0.818400 0.491284 -0.108932
C36   C     C_R   0.188765 0.241302 0.483072 -0.121020
C37   C     C_R   0.241802 0.187935 0.482866 -0.112936
C38   C     C_R   0.180882 0.766369 0.491552 -0.121948
C39   C     C_R   0.757999 0.811818 0.482739 -0.109338
C40   C     C_R   0.819010 0.233608 0.491355 -0.120402
C41   C     C_R   0.193818 0.697390 0.000111 -0.241419
C42   C     C_R   0.304588 0.196596 0.001381 -0.164028
C43   C     C_R   0.803744 0.304689 0.001956 -0.188872
C44   C     C_R   0.695312 0.803364 0.001336 -0.165109
C45   C     C_R   0.805378 0.697381 0.999783 -0.172790
C46   C     C_R   0.695608 0.195603 0.000775 -0.176815
C47   C     C_R   0.194218 0.302294 0.999702 -0.175198
C48   C     C_R   0.302121 0.807075 0.998943 -0.236546
C49   C     C_R   0.695607 0.196235 0.501079 -0.173462
C50   C     C_R   0.805381 0.697462 0.502038 -0.162158
C51   C     C_R   0.304356 0.803636 0.501364 -0.169350
C52   C     C_R   0.195732 0.303501 0.501505 -0.160979
C53   C     C_R   0.305692 0.197443 0.499767 -0.161556
C54   C     C_R   0.196354 0.694922 0.500162 -0.153286
C55   C     C_R   0.695196 0.803372 0.500442 -0.167679
C56   C     C_R   0.803664 0.304977 0.500192 -0.161509
C57   C     C_R   0.181135 0.765738 0.014655 0.320891
C58   C     C_R   0.245002 0.191545 0.021979 0.301164
C59   C     C_R   0.816804 0.236178 0.016158 0.314009
C60   C     C_R   0.755709 0.809222 0.021486 0.301823
C61   C     C_R   0.813723 0.760556 0.018172 0.382029
C62   C     C_R   0.764732 0.180342 0.013503 0.361214
C63   C     C_R   0.186696 0.239878 0.018610 0.385344
C64   C     C_R   0.233490 0.821742 0.012311 0.366063
C65   C     C_R   0.681541 0.265510 0.514313 0.316264
C66   C     C_R   0.745514 0.692030 0.522533 0.326821
C67   C     C_R   0.318334 0.734494 0.514899 0.336546
C68   C     C_R   0.258008 0.311225 0.520537 0.329958
C69   C     C_R   0.316108 0.262576 0.516536 0.362237
C70   C     C_R   0.266144 0.678648 0.511730 0.339197
C71   C     C_R   0.686902 0.740187 0.518806 0.358732
C72   C     C_R   0.733954 0.320950 0.511957 0.356917
C73   C     C_3   0.365017 0.692798 0.968378 0.322740
C74   C     C_3   0.256446 0.312964 0.945645 0.347230
C75   C     C_3   0.638525 0.304143 0.966460 0.357088
C76   C     C_3   0.739745 0.683051 0.946464 0.340988
C77   C     C_3   0.682703 0.743322 0.946817 0.319097
C78   C     C_3   0.698673 0.362627 0.966408 0.319325
C79   C     C_3   0.313219 0.252596 0.946132 0.295248
C80   C     C_3   0.305451 0.633293 0.968700 0.328043
C81   C     C_3   0.857315 0.200901 0.463952 0.351531
C82   C     C_3   0.763299 0.820935 0.448082 0.342173
C83   C     C_3   0.142558 0.799166 0.464144 0.352186
C84   C     C_3   0.235111 0.177843 0.448284 0.342625
C85   C     C_3   0.177596 0.237297 0.448621 0.340933
C86   C     C_3   0.201482 0.858469 0.464351 0.326932
C87   C     C_3   0.820708 0.761284 0.448342 0.337935
C88   C     C_3   0.798638 0.141323 0.464227 0.326700
H1    H     H_    0.413190 0.680998 0.983310 -0.023375
H2    H     H_    0.276504 0.366932 0.937679 0.007287
H3    H     H_    0.584901 0.323427 0.975036 -0.006884
H4    H     H_    0.719236 0.628306 0.939591 0.002084
H5    H     H_    0.627589 0.725433 0.939445 -0.012363
H6    H     H_    0.681300 0.416733 0.975610 -0.020197
H7    H     H_    0.367498 0.269834 0.937862 0.021846
H8    H     H_    0.317589 0.585059 0.983625 -0.023558
H9    H     H_    0.912862 0.181894 0.470068 0.001125
H10   H     H_    0.784350 0.876051 0.441913 -0.022089
H11   H     H_    0.087149 0.818457 0.470302 0.000447
H12   H     H_    0.214053 0.122500 0.442496 -0.022434
H13   H     H_    0.121977 0.218012 0.442721 -0.008248
H14   H     H_    0.181773 0.913115 0.471963 -0.018326
H15   H     H_    0.876100 0.780220 0.441910 -0.005299
H16   H     H_    0.818656 0.086858 0.471931 -0.018697
C89   C     C_R   0.976158 0.561354 0.134880 -0.264180
C90   C     C_R   0.436783 0.983324 0.134962 -0.265707
C91   C     C_R   0.023867 0.438756 0.134908 -0.265373
C92   C     C_R   0.563315 0.017031 0.134984 -0.266084
C93   C     C_R   0.487977 0.064700 0.635051 -0.262496
C94   C     C_R   0.936624 0.517665 0.634723 -0.260431
C95   C     C_R   0.510471 0.934961 0.635046 -0.267242
C96   C     C_R   0.063953 0.487068 0.634889 -0.262267
H17   H     H_    0.956244 0.608331 0.122226 0.198947
H18   H     H_    0.387521 0.970715 0.122353 0.201755
H19   H     H_    0.043815 0.391773 0.122274 0.198849
H20   H     H_    0.612572 0.029574 0.122392 0.201648
H21   H     H_    0.478158 0.114869 0.622478 0.197851
H22   H     H_    0.887296 0.529983 0.622124 0.199311
H23   H     H_    0.520669 0.884919 0.622433 0.204120
H24   H     H_    0.113145 0.473607 0.622448 0.197787
C97   C     C_R   0.973912 0.561447 0.167514 0.300004
C98   C     C_R   0.435682 0.983907 0.167611 0.293258
C99   C     C_R   0.026066 0.438706 0.167543 0.300051
C100  C     C_R   0.564392 0.016707 0.167637 0.294077
C101  C     C_R   0.485964 0.065218 0.667681 0.299039
C102  C     C_R   0.936540 0.521718 0.667266 0.300401
C103  C     C_R   0.511372 0.934119 0.667711 0.294142
C104  C     C_R   0.064509 0.486402 0.667471 0.300531
C105  C     C_R   0.999980 0.500090 0.184153 -0.177667
C106  C     C_R   0.500036 0.000358 0.184182 -0.175540
C107  C     C_R   0.498340 0.999655 0.684196 -0.172414
C108  C     C_R   0.000629 0.504834 0.684020 -0.169863
C109  C     C_R   0.000010 0.500038 0.118477 -0.114030
C110  C     C_R   0.500052 0.000106 0.118517 -0.112026
C111  C     C_R   0.499510 0.999901 0.618584 -0.113741
C112  C     C_R   0.000157 0.501448 0.618388 -0.108214
N1    N     N_R   0.974609 0.441925 0.234569 -0.125358
N2    N     N_R   0.520472 0.060555 0.234470 -0.129089
N3    N     N_R   0.025252 0.558345 0.234585 -0.125266
N4    N     N_R   0.479494 0.940263 0.234448 -0.129004
N5    N     N_R   0.451095 0.957519 0.734409 -0.130744
N6    N     N_R   0.057939 0.532210 0.734461 -0.117053
N7    N     N_R   0.544812 0.042974 0.734334 -0.124372
N8    N     N_R   0.943239 0.479025 0.734442 -0.116643
N9    N     N_R   0.450852 0.958128 0.765429 -0.114701
N10   N     N_R   0.058192 0.531544 0.765466 -0.101454
N11   N     N_R   0.544676 0.043288 0.765347 -0.103640
N12   N     N_R   0.943224 0.479387 0.765428 -0.100642
N13   N     N_R   0.974827 0.441922 0.265589 -0.125713
N14   N     N_R   0.520275 0.060542 0.265499 -0.134281
N15   N     N_R   0.024954 0.558411 0.265606 -0.125480
N16   N     N_R   0.479515 0.940335 0.265474 -0.134886
C113  C     C_R   0.497678 0.000947 0.781525 0.325039
C114  C     C_R   0.000816 0.505212 0.781669 0.310327
C115  C     C_R   0.999864 0.500184 0.281792 0.382926
C116  C     C_R   0.499841 0.000453 0.281660 0.390717
C117  C     C_R   0.999952 0.500118 0.218514 0.412606
C118  C     C_R   0.500029 0.000390 0.218442 0.433082
C119  C     C_R   0.498116 0.999958 0.718386 0.417558
C120  C     C_R   0.000562 0.505580 0.718378 0.376681
C121  C     C_R   0.517951 0.064182 0.832662 0.467256
C122  C     C_R   0.051837 0.546352 0.833408 0.453764
C123  C     C_R   0.478645 0.937368 0.832631 0.437133
C124  C     C_R   0.950806 0.460275 0.832821 0.467690
C125  C     C_R   0.049197 0.544601 0.333070 0.437579
C126  C     C_R   0.549101 0.044662 0.332917 0.439852
C127  C     C_R   0.950491 0.455744 0.333012 0.437794
C128  C     C_R   0.450457 0.956141 0.332836 0.439449
C129  C     C_R   0.521501 0.061994 0.865285 -0.327734
C130  C     C_R   0.052944 0.542105 0.866044 -0.320702
C131  C     C_R   0.477581 0.938140 0.865207 -0.307679
C132  C     C_R   0.949290 0.462554 0.865410 -0.319461
C133  C     C_R   0.049318 0.543066 0.365772 -0.329187
C134  C     C_R   0.549270 0.042938 0.365601 -0.333510
C135  C     C_R   0.950525 0.457042 0.365721 -0.332545
C136  C     C_R   0.450401 0.957563 0.365524 -0.333941
H25   H     H_    0.540795 0.109320 0.877775 0.177877
H26   H     H_    0.093619 0.572025 0.878957 0.170652
H27   H     H_    0.460962 0.889586 0.877563 0.184235
H28   H     H_    0.909674 0.430775 0.877904 0.171972
H29   H     H_    0.089512 0.573704 0.378622 0.159783
H30   H     H_    0.587591 0.075460 0.378470 0.171960
H31   H     H_    0.910287 0.426457 0.378534 0.160042
H32   H     H_    0.412047 0.925015 0.378330 0.172276
C137  C     C_R   0.499716 0.999982 0.881656 -0.131448
C138  C     C_R   0.000651 0.502010 0.881981 -0.116204
C139  C     C_R   0.999967 0.499996 0.381968 -0.102437
C140  C     C_R   0.499897 0.000144 0.381859 -0.110088
C141  C     C_R   0.497973 0.000929 0.815998 -0.147112
C142  C     C_R   0.001054 0.504182 0.816313 -0.149840
C143  C     C_R   0.999850 0.500186 0.316396 -0.119346
C144  C     C_R   0.499791 0.000434 0.316212 -0.127291
O53   O     O_3   0.115758 0.780710 0.028977 -0.628333
C145  C     C_3   0.124204 0.771938 0.061502 0.121515
H33   H     H_    0.160232 0.815047 0.071102 0.166294
H34   H     H_    0.147456 0.717431 0.067167 0.133718
C146  C     C_3   0.050012 0.778215 0.077005 -0.333810
H35   H     H_    0.028246 0.833906 0.073256 0.218002
H36   H     H_    0.012157 0.738475 0.066224 0.277214
C147  C     C_3   0.054454 0.763469 0.111954 -0.863333
H37   H     H_    0.073381 0.706971 0.116305 0.266549
H38   H     H_    0.999941 0.770188 0.122456 0.298457
H39   H     H_    0.092168 0.802408 0.123284 0.270095
O54   O     O_3   0.237843 0.133565 0.042268 -0.622978
C148  C     C_3   0.261044 0.155893 0.072121 0.123420
H40   H     H_    0.225240 0.199849 0.081268 0.156654
H41   H     H_    0.318071 0.175796 0.071321 0.118811
C149  C     C_3   0.257392 0.090861 0.094245 -0.314253
H42   H     H_    0.200574 0.071238 0.095680 0.234000
H43   H     H_    0.291575 0.045969 0.084986 0.254191
C150  C     C_3   0.283694 0.111003 0.126861 -0.890064
H44   H     H_    0.341397 0.127936 0.126131 0.258640
H45   H     H_    0.278735 0.063114 0.142469 0.304801
H46   H     H_    0.250444 0.156015 0.136567 0.277534
O55   O     O_3   0.882960 0.220229 0.029616 -0.630205
C151  C     C_3   0.876578 0.228779 0.062241 0.121045
H47   H     H_    0.840057 0.186424 0.072097 0.164596
H48   H     H_    0.854951 0.283768 0.068235 0.135384
C152  C     C_3   0.951383 0.220573 0.077048 -0.337037
H49   H     H_    0.971511 0.164364 0.073067 0.217572
H50   H     H_    0.989606 0.259446 0.065967 0.277355
C153  C     C_3   0.949137 0.235213 0.112045 -0.857795
H51   H     H_    0.931575 0.292049 0.116630 0.267014
H52   H     H_    0.004063 0.227341 0.122029 0.297391
H53   H     H_    0.911265 0.196985 0.123687 0.269475
O56   O     O_3   0.763809 0.868174 0.041207 -0.624109
C154  C     C_3   0.742364 0.847220 0.071470 0.124284
H54   H     H_    0.779188 0.804246 0.080734 0.158190
H55   H     H_    0.685573 0.826546 0.071375 0.119486
C155  C     C_3   0.746239 0.913514 0.092902 -0.316404
H56   H     H_    0.802833 0.934006 0.093622 0.233214
H57   H     H_    0.710939 0.957402 0.083513 0.255537
C156  C     C_3   0.721923 0.894823 0.125942 -0.888931
H58   H     H_    0.664484 0.876916 0.125900 0.259301
H59   H     H_    0.726870 0.943670 0.141008 0.304487
H60   H     H_    0.756395 0.850920 0.135808 0.277742
O57   O     O_3   0.879943 0.777512 0.031537 -0.623278
C157  C     C_3   0.915757 0.829937 0.012715 0.127856
H61   H     H_    0.953819 0.860391 0.027897 0.155479
H62   H     H_    0.878335 0.871452 0.002747 0.159542
C158  C     C_3   0.959450 0.793472 0.986529 -0.326250
H63   H     H_    0.000276 0.756575 0.996993 0.276788
H64   H     H_    0.923361 0.760627 0.971397 0.226360
C159  C     C_3   0.997550 0.849186 0.965936 -0.970621
H65   H     H_    0.958488 0.873123 0.949161 0.272962
H66   H     H_    0.041158 0.822037 0.952417 0.266983
H67   H     H_    0.021543 0.893358 0.980195 0.253698
O58   O     O_3   0.783126 0.110091 0.022137 -0.609411
C160  C     C_3   0.827498 0.078257 0.998843 0.133766
H68   H     H_    0.876659 0.056352 0.010490 0.154515
H69   H     H_    0.846283 0.116920 0.980429 0.137559
C161  C     C_3   0.787520 0.015382 0.983095 -0.321879
H70   H     H_    0.776098 0.972737 0.000677 0.275831
H71   H     H_    0.735312 0.034773 0.973285 0.212959
C162  C     C_3   0.832470 0.982808 0.956741 -1.019025
H72   H     H_    0.835185 0.021369 0.936836 0.275021
H73   H     H_    0.807343 0.931279 0.948673 0.301139
H74   H     H_    0.888253 0.971363 0.964965 0.263405
O59   O     O_3   0.120848 0.222964 0.032263 -0.622475
C163  C     C_3   0.084628 0.170486 0.013568 0.123111
H75   H     H_    0.047383 0.139581 0.028914 0.154353
H76   H     H_    0.121917 0.129328 0.003293 0.159958
C164  C     C_3   0.039730 0.206930 0.987728 -0.323310
H77   H     H_    0.999226 0.243583 0.998532 0.277749
H78   H     H_    0.075047 0.239994 0.972391 0.228432
C165  C     C_3   0.000961 0.151351 0.967278 -0.965980
H79   H     H_    0.039350 0.127834 0.950135 0.273170
H80   H     H_    0.956713 0.178549 0.954146 0.267439
H81   H     H_    0.977715 0.106923 0.981584 0.252619
O60   O     O_3   0.216054 0.891257 0.022214 -0.607379
C166  C     C_3   0.170596 0.924926 0.999775 0.133153
H82   H     H_    0.122369 0.946744 0.012139 0.152297
H83   H     H_    0.150127 0.887540 0.981189 0.137520
C167  C     C_3   0.210393 0.988017 0.984179 -0.318669
H84   H     H_    0.221851 0.030360 0.001890 0.274942
H85   H     H_    0.262614 0.968886 0.974302 0.213982
C168  C     C_3   0.165118 0.020815 0.957957 -1.029217
H86   H     H_    0.164482 0.983644 0.937532 0.274479
H87   H     H_    0.188501 0.073825 0.950800 0.306735
H88   H     H_    0.108665 0.029555 0.965900 0.263999
O61   O     O_3   0.614099 0.282189 0.526356 -0.629159
C169  C     C_3   0.618241 0.279558 0.559244 0.120416
H89   H     H_    0.650579 0.326230 0.568219 0.172745
H90   H     H_    0.643371 0.227550 0.567340 0.131210
C170  C     C_3   0.541795 0.284244 0.572687 -0.340842
H91   H     H_    0.516994 0.337120 0.566048 0.223555
H92   H     H_    0.508170 0.239493 0.562934 0.280513
C171  C     C_3   0.542546 0.278251 0.608150 -0.853494
H93   H     H_    0.567022 0.225659 0.615462 0.273527
H94   H     H_    0.486129 0.280921 0.617048 0.289428
H95   H     H_    0.574013 0.323819 0.618477 0.271189
O62   O     O_3   0.739170 0.633946 0.542967 -0.625756
C172  C     C_3   0.743786 0.658886 0.574174 0.161775
H96   H     H_    0.718516 0.616862 0.589256 0.182027
H97   H     H_    0.712947 0.710152 0.578327 0.152907
C173  C     C_3   0.822982 0.668273 0.584185 -0.436433
H98   H     H_    0.852480 0.616351 0.580549 0.261414
H99   H     H_    0.849165 0.710948 0.569733 0.202400
C174  C     C_3   0.828681 0.689981 0.618440 -0.868039
H100  H     H_    0.801875 0.743327 0.622369 0.268949
H101  H     H_    0.886591 0.694591 0.625137 0.267870
H102  H     H_    0.802772 0.648277 0.633456 0.303522
O63   O     O_3   0.386408 0.718042 0.526684 -0.633945
C175  C     C_3   0.382435 0.701501 0.558956 0.126626
H103  H     H_    0.425586 0.661147 0.564196 0.160227
H104  H     H_    0.330374 0.675969 0.566202 0.160999
C176  C     C_3   0.396095 0.769786 0.578556 -0.374182
H105  H     H_    0.450330 0.792276 0.572849 0.275550
H106  H     H_    0.354339 0.811455 0.573070 0.215793
C177  C     C_3   0.393098 0.753025 0.613363 -0.866537
H107  H     H_    0.339520 0.729917 0.619669 0.263140
H108  H     H_    0.401174 0.803994 0.626803 0.286885
H109  H     H_    0.436372 0.713747 0.619777 0.288075
O64   O     O_3   0.267257 0.372245 0.539146 -0.623602
C178  C     C_3   0.269554 0.351966 0.571017 0.152681
H110  H     H_    0.297984 0.395983 0.583867 0.175904
H111  H     H_    0.301111 0.301241 0.575376 0.150347
C179  C     C_3   0.192890 0.344561 0.584323 -0.428049
H112  H     H_    0.163141 0.396400 0.580820 0.264842
H113  H     H_    0.163379 0.300648 0.571855 0.203894
C180  C     C_3   0.194620 0.326725 0.619063 -0.863628
H114  H     H_    0.222107 0.273732 0.623012 0.267653
H115  H     H_    0.138408 0.323155 0.628110 0.271776
H116  H     H_    0.223723 0.369942 0.632102 0.302133
O65   O     O_3   0.384258 0.281610 0.527337 -0.638948
C181  C     C_3   0.416721 0.330845 0.505985 0.123592
H117  H     H_    0.455025 0.365547 0.519243 0.156131
H118  H     H_    0.377223 0.368976 0.495016 0.153160
C182  C     C_3   0.459189 0.289970 0.480668 -0.323564
H119  H     H_    0.499836 0.253951 0.491853 0.272751
H120  H     H_    0.421959 0.255764 0.466630 0.225527
C183  C     C_3   0.497659 0.342105 0.458553 -0.968985
H121  H     H_    0.457519 0.370833 0.443730 0.269648
H122  H     H_    0.534765 0.310994 0.443135 0.267122
H123  H     H_    0.529656 0.382674 0.471805 0.258130
O66   O     O_3   0.284798 0.607424 0.518713 -0.616498
C184  C     C_3   0.326177 0.577319 0.494031 0.129226
H124  H     H_    0.375766 0.553041 0.504390 0.150196
H125  H     H_    0.344181 0.617643 0.476129 0.137844
C185  C     C_3   0.283404 0.516908 0.477841 -0.314964
H126  H     H_    0.271798 0.473086 0.494887 0.272280
H127  H     H_    0.231187 0.538655 0.468988 0.208267
C186  C     C_3   0.325649 0.485159 0.450472 -1.010942
H128  H     H_    0.329784 0.525860 0.431414 0.274393
H129  H     H_    0.297386 0.436174 0.441477 0.294637
H130  H     H_    0.380993 0.469478 0.457965 0.261221
O67   O     O_3   0.620577 0.723213 0.532049 -0.620761
C187  C     C_3   0.584519 0.671162 0.513115 0.136668
H131  H     H_    0.544960 0.642223 0.528147 0.162177
H132  H     H_    0.621603 0.628588 0.503758 0.149032
C188  C     C_3   0.542839 0.707887 0.486325 -0.321725
H133  H     H_    0.503391 0.747073 0.496213 0.279142
H134  H     H_    0.580562 0.738212 0.470990 0.222078
C189  C     C_3   0.502551 0.652873 0.466150 -0.967193
H135  H     H_    0.540502 0.626660 0.449578 0.268608
H136  H     H_    0.460045 0.681164 0.452387 0.266777
H137  H     H_    0.476802 0.610446 0.480741 0.254985
O68   O     O_3   0.715193 0.391725 0.519533 -0.607668
C190  C     C_3   0.675198 0.423189 0.494700 0.127341
H138  H     H_    0.621903 0.440708 0.504101 0.154520
H139  H     H_    0.664146 0.385592 0.474722 0.132027
C191  C     C_3   0.715071 0.490076 0.482330 -0.311906
H140  H     H_    0.719679 0.530853 0.501282 0.272150
H141  H     H_    0.770406 0.474748 0.474639 0.215396
C192  C     C_3   0.675124 0.523799 0.454770 -1.022791
H142  H     H_    0.678391 0.487305 0.434167 0.273617
H143  H     H_    0.700002 0.576940 0.448751 0.305577
H144  H     H_    0.617422 0.532483 0.460792 0.263536
O69   O     O_3   0.378785 0.720466 0.938186 -0.569553
C193  C     C_3   0.447441 0.696937 0.927724 0.110517
H145  H     H_    0.460046 0.640179 0.935229 0.086542
H146  H     H_    0.489732 0.734019 0.937124 0.153086
C194  C     C_3   0.448875 0.699330 0.892115 -0.291330
H147  H     H_    0.403834 0.665707 0.882775 0.233772
H148  H     H_    0.441014 0.756236 0.884054 0.225660
C195  C     C_3   0.520267 0.670185 0.879309 -1.034757
H149  H     H_    0.565896 0.704701 0.887227 0.247014
H150  H     H_    0.518591 0.670714 0.853463 0.280487
H151  H     H_    0.529359 0.613327 0.887189 0.265371
O70   O     O_3   0.189314 0.291758 0.932556 -0.607636
C196  C     C_3   0.191397 0.296745 0.899617 0.123880
H152  H     H_    0.177067 0.242507 0.889983 0.170626
H153  H     H_    0.245448 0.311505 0.889873 0.092166
C197  C     C_3   0.135797 0.352354 0.888376 -0.347408
H154  H     H_    0.081190 0.337376 0.897165 0.221271
H155  H     H_    0.150143 0.406902 0.897654 0.244608
C198  C     C_3   0.134080 0.355446 0.852820 -0.939814
H156  H     H_    0.092422 0.394809 0.845116 0.270867
H157  H     H_    0.120420 0.301237 0.843019 0.261812
H158  H     H_    0.187420 0.373169 0.843615 0.276925
O71   O     O_3   0.636137 0.261497 0.938987 -0.573290
C199  C     C_3   0.596347 0.298017 0.915474 0.148842
H159  H     H_    0.621488 0.284449 0.892676 0.159684
H160  H     H_    0.597896 0.358415 0.917688 0.106163
C200  C     C_3   0.517671 0.272431 0.914928 -0.361715
H161  H     H_    0.515764 0.213411 0.909545 0.233504
H162  H     H_    0.492989 0.281115 0.938224 0.216519
C201  C     C_3   0.474321 0.314454 0.890440 -1.039298
H163  H     H_    0.501515 0.311631 0.867394 0.269305
H164  H     H_    0.468954 0.372397 0.897451 0.270667
H165  H     H_    0.419418 0.290912 0.888003 0.251749
O72   O     O_3   0.806496 0.703245 0.932720 -0.604456
C202  C     C_3   0.804458 0.693582 0.900005 0.113607
H166  H     H_    0.792278 0.746607 0.888875 0.172536
H167  H     H_    0.763442 0.653096 0.892040 0.103226
C203  C     C_3   0.878912 0.668988 0.888776 -0.357349
H168  H     H_    0.920576 0.708856 0.896383 0.226152
H169  H     H_    0.891940 0.615500 0.899341 0.240051
C204  C     C_3   0.880962 0.662300 0.853324 -0.953612
H170  H     H_    0.839880 0.622679 0.845056 0.280804
H171  H     H_    0.935072 0.642908 0.846038 0.265478
H172  H     H_    0.870680 0.716001 0.842294 0.269153
O73   O     O_3   0.708369 0.809860 0.934380 -0.605990
C205  C     C_3   0.671173 0.827456 0.906653 0.066074
H173  H     H_    0.614106 0.842542 0.911979 0.168306
H174  H     H_    0.671443 0.780747 0.890109 0.105374
C206  C     C_3   0.709109 0.892290 0.891425 -0.320517
H175  H     H_    0.699902 0.941798 0.905797 0.221735
H176  H     H_    0.768378 0.881895 0.890423 0.232031
C207  C     C_3   0.681725 0.905795 0.858386 -0.969425
H177  H     H_    0.692205 0.857592 0.843413 0.259274
H178  H     H_    0.710060 0.953483 0.848250 0.280580
H179  H     H_    0.622975 0.917272 0.858720 0.266258
O74   O     O_3   0.740003 0.361828 0.938611 -0.585006
C208  C     C_3   0.735109 0.429584 0.923128 0.097079
H180  H     H_    0.777275 0.466651 0.932617 0.196704
H181  H     H_    0.681094 0.456138 0.925833 0.077774
C209  C     C_3   0.747706 0.417757 0.888279 -0.323670
H182  H     H_    0.797047 0.384277 0.884768 0.230951
H183  H     H_    0.701265 0.387500 0.878183 0.206284
C210  C     C_3   0.755724 0.489940 0.871099 -0.949734
H184  H     H_    0.705680 0.523023 0.873586 0.250794
H185  H     H_    0.765523 0.479597 0.845943 0.301189
H186  H     H_    0.802286 0.520811 0.880661 0.271641
O75   O     O_3   0.286515 0.185183 0.934948 -0.606620
C211  C     C_3   0.322388 0.164785 0.907270 0.073793
H187  H     H_    0.380712 0.153979 0.912012 0.164066
H188  H     H_    0.317626 0.208187 0.889332 0.110270
C212  C     C_3   0.287450 0.095277 0.894759 -0.329292
H189  H     H_    0.301376 0.049057 0.910389 0.220724
H190  H     H_    0.227583 0.101705 0.894530 0.232748
C213  C     C_3   0.312563 0.078105 0.861707 -0.957192
H191  H     H_    0.293061 0.120596 0.845319 0.267074
H192  H     H_    0.290326 0.024759 0.854266 0.278492
H193  H     H_    0.372366 0.075525 0.860720 0.269106
O76   O     O_3   0.275469 0.618835 0.938979 -0.566450
C214  C     C_3   0.305323 0.554067 0.926846 0.106815
H194  H     H_    0.288631 0.506648 0.941320 0.129181
H195  H     H_    0.365477 0.557161 0.926262 0.115450
C215  C     C_3   0.277178 0.542871 0.893654 -0.290412
H196  H     H_    0.218170 0.531333 0.894455 0.224546
H197  H     H_    0.285544 0.593365 0.879864 0.233805
C216  C     C_3   0.315951 0.480103 0.877384 -0.980466
H198  H     H_    0.374594 0.492287 0.875001 0.266921
H199  H     H_    0.292638 0.472194 0.853753 0.285817
H200  H     H_    0.309327 0.429011 0.890802 0.249724
O77   O     O_3   0.853617 0.248063 0.437908 -0.579604
C217  C     C_3   0.889519 0.217136 0.411963 0.138656
H201  H     H_    0.855234 0.227449 0.391167 0.150200
H202  H     H_    0.897562 0.157077 0.413693 0.106874
C218  C     C_3   0.962304 0.254216 0.406541 -0.353783
H203  H     H_    0.953161 0.312792 0.401670 0.237862
H204  H     H_    0.996337 0.249498 0.427809 0.223628
C219  C     C_3   0.001623 0.219525 0.378912 -1.049989
H205  H     H_    0.964469 0.212886 0.358784 0.275064
H206  H     H_    0.023220 0.165316 0.385620 0.268871
H207  H     H_    0.046991 0.254539 0.371266 0.264549
O78   O     O_3   0.698372 0.798920 0.433252 -0.601498
C220  C     C_3   0.689929 0.836439 0.404829 0.098726
H208  H     H_    0.740338 0.833867 0.390570 0.117661
H209  H     H_    0.675933 0.894254 0.409632 0.152528
C221  C     C_3   0.628309 0.801477 0.386420 -0.320331
H210  H     H_    0.639712 0.742493 0.383362 0.233487
H211  H     H_    0.576844 0.807387 0.399630 0.215468
C222  C     C_3   0.619714 0.836472 0.354380 -0.953683
H212  H     H_    0.606925 0.895149 0.356786 0.274147
H213  H     H_    0.574852 0.809550 0.341639 0.254751
H214  H     H_    0.670230 0.830160 0.340595 0.277027
O79   O     O_3   0.145842 0.751902 0.438114 -0.579245
C223  C     C_3   0.109187 0.782553 0.412285 0.136351
H215  H     H_    0.142771 0.771858 0.391337 0.149530
H216  H     H_    0.101417 0.842660 0.413914 0.106736
C224  C     C_3   0.036140 0.745568 0.407297 -0.351255
H217  H     H_    0.045033 0.686963 0.402393 0.238694
H218  H     H_    0.002787 0.750395 0.428740 0.224605
C225  C     C_3   0.995985 0.780217 0.379863 -1.048460
H219  H     H_    0.975323 0.834799 0.386556 0.268608
H220  H     H_    0.949856 0.745634 0.372694 0.263133
H221  H     H_    0.032319 0.786029 0.359432 0.274583
O80   O     O_3   0.299400 0.199725 0.432947 -0.601328
C226  C     C_3   0.307152 0.161524 0.404659 0.097899
H222  H     H_    0.256233 0.163268 0.390688 0.117318
H223  H     H_    0.321835 0.103969 0.409651 0.152505
C227  C     C_3   0.367818 0.196632 0.385748 -0.320912
H224  H     H_    0.355631 0.255382 0.382435 0.233675
H225  H     H_    0.419738 0.191754 0.398737 0.215671
C228  C     C_3   0.375927 0.160815 0.353852 -0.951121
H226  H     H_    0.389893 0.102485 0.356514 0.274222
H227  H     H_    0.419869 0.188105 0.340693 0.255288
H228  H     H_    0.324832 0.165764 0.340333 0.277214
O81   O     O_3   0.201181 0.302490 0.434190 -0.595006
C229  C     C_3   0.164444 0.312352 0.405734 0.094389
H229  H     H_    0.106232 0.323553 0.410359 0.166888
H230  H     H_    0.170284 0.263313 0.390662 0.127609
C230  C     C_3   0.196219 0.377826 0.388670 -0.338650
H231  H     H_    0.185747 0.427957 0.402479 0.220741
H232  H     H_    0.255745 0.370805 0.386221 0.232849
C231  C     C_3   0.162701 0.386287 0.356322 -0.922338
H233  H     H_    0.177017 0.338928 0.341451 0.266723
H234  H     H_    0.183590 0.436526 0.345137 0.288463
H235  H     H_    0.102850 0.390161 0.358032 0.263489
O82   O     O_3   0.246217 0.855972 0.437518 -0.585027
C232  C     C_3   0.238763 0.920720 0.419868 0.099092
H236  H     H_    0.279401 0.960888 0.428204 0.185095
H237  H     H_    0.183780 0.945660 0.421700 0.078553
C233  C     C_3   0.251925 0.904028 0.385377 -0.345142
H238  H     H_    0.302581 0.872240 0.382674 0.230321
H239  H     H_    0.207004 0.870482 0.376164 0.198308
C234  C     C_3   0.255931 0.973466 0.365974 -0.927651
H240  H     H_    0.205263 0.005550 0.368502 0.248152
H241  H     H_    0.263108 0.959253 0.341004 0.305869
H242  H     H_    0.302481 0.007117 0.373509 0.262077
O83   O     O_3   0.796323 0.695663 0.434530 -0.597586
C235  C     C_3   0.831955 0.684502 0.405928 0.094628
H243  H     H_    0.890389 0.673593 0.410239 0.165586
H244  H     H_    0.825422 0.732816 0.390485 0.127611
C236  C     C_3   0.799550 0.618204 0.389662 -0.339910
H245  H     H_    0.810783 0.568731 0.403794 0.221229
H246  H     H_    0.739896 0.624955 0.387650 0.234425
C237  C     C_3   0.831553 0.608431 0.357118 -0.920950
H247  H     H_    0.815938 0.654844 0.341941 0.266910
H248  H     H_    0.810705 0.557388 0.346586 0.288206
H249  H     H_    0.891524 0.605378 0.358339 0.264232
O84   O     O_3   0.753831 0.143349 0.437376 -0.585463
C238  C     C_3   0.761020 0.078184 0.419976 0.097877
H250  H     H_    0.720178 0.038398 0.428429 0.186685
H251  H     H_    0.815877 0.053009 0.421950 0.078707
C239  C     C_3   0.748039 0.094167 0.385399 -0.345207
H252  H     H_    0.697882 0.126681 0.382528 0.230886
H253  H     H_    0.793485 0.126741 0.376038 0.197723
C240  C     C_3   0.742880 0.024289 0.366321 -0.926426
H254  H     H_    0.793056 0.991487 0.369002 0.247768
H255  H     H_    0.735820 0.037963 0.341286 0.305651
H256  H     H_    0.695836 0.991552 0.374000 0.261565
N17   N     N_R   0.942081 0.622788 0.183230 0.218517
O85   O     O_R   0.950220 0.688018 0.171997 -0.395466
O86   O     O_R   0.896003 0.612755 0.205767 -0.371972
N18   N     N_R   0.368439 0.969651 0.183426 0.207372
O87   O     O_R   0.321730 0.924740 0.171364 -0.393020
O88   O     O_R   0.349291 0.008442 0.207442 -0.374573
N19   N     N_R   0.057841 0.377369 0.183293 0.218475
O89   O     O_R   0.049688 0.312130 0.172056 -0.395110
O90   O     O_R   0.103876 0.387403 0.205879 -0.372075
N20   N     N_R   0.631608 0.031134 0.183485 0.208009
O91   O     O_R   0.678173 0.076196 0.171461 -0.394099
O92   O     O_R   0.650839 0.992452 0.207528 -0.373858
N21   N     N_R   0.469122 0.132143 0.683582 0.218656
O93   O     O_R   0.489860 0.194063 0.671944 -0.393986
O94   O     O_R   0.425560 0.132391 0.707427 -0.394068
N22   N     N_R   0.871867 0.545997 0.682738 0.213771
O95   O     O_R   0.808708 0.525338 0.672611 -0.382844
O96   O     O_R   0.875280 0.597435 0.703546 -0.377502
N23   N     N_R   0.527971 0.867032 0.683606 0.217286
O97   O     O_R   0.510922 0.804980 0.670983 -0.395143
O98   O     O_R   0.568522 0.866971 0.708443 -0.390061
N24   N     N_R   0.129404 0.463731 0.683233 0.215522
O99   O     O_R   0.192317 0.484603 0.672955 -0.385110
O100  O     O_R   0.126546 0.413230 0.704465 -0.376985
O101  O     O_3   0.538357 0.126739 0.816914 -0.614690
C241  C     C_3   0.487304 0.183081 0.822034 0.058655
H257  H     H_    0.515553 0.235639 0.818210 0.180055
H258  H     H_    0.466054 0.184732 0.846344 0.129042
C242  C     C_3   0.424504 0.177751 0.798774 -0.327356
H259  H     H_    0.446134 0.178986 0.774598 0.279916
H260  H     H_    0.395328 0.125535 0.802150 0.216460
C243  C     C_3   0.371220 0.240496 0.803084 -0.904809
H261  H     H_    0.348962 0.240362 0.827149 0.243726
H262  H     H_    0.325730 0.234596 0.786333 0.286490
H263  H     H_    0.398544 0.293323 0.798714 0.275187
O102  O     O_3   0.104013 0.587383 0.818252 -0.614008
C244  C     C_3   0.091929 0.662676 0.823229 0.075822
H264  H     H_    0.145465 0.690162 0.822933 0.177655
H265  H     H_    0.067309 0.675659 0.846315 0.121914
C245  C     C_3   0.045525 0.694416 0.796890 -0.335149
H266  H     H_    0.074068 0.687180 0.774289 0.252269
H267  H     H_    0.993028 0.665158 0.795594 0.225325
C246  C     C_3   0.030686 0.775190 0.802052 -0.928394
H268  H     H_    0.000591 0.783482 0.824198 0.263040
H269  H     H_    0.997391 0.796603 0.782525 0.278579
H270  H     H_    0.082360 0.805993 0.802951 0.268228
O103  O     O_3   0.460308 0.873985 0.817206 -0.616374
C247  C     C_3   0.523607 0.831663 0.813465 0.053795
H271  H     H_    0.542761 0.811395 0.836538 0.141031
H272  H     H_    0.567665 0.863803 0.802195 0.157897
C248  C     C_3   0.506479 0.766523 0.792631 -0.286902
H273  H     H_    0.464948 0.731967 0.804106 0.221388
H274  H     H_    0.484186 0.786124 0.770046 0.269757
C249  C     C_3   0.574119 0.721064 0.786307 -0.887369
H275  H     H_    0.614941 0.753901 0.773539 0.288887
H276  H     H_    0.559558 0.673213 0.771804 0.283282
H277  H     H_    0.598164 0.701508 0.808529 0.245434
O104  O     O_3   0.900487 0.417911 0.817150 -0.621157
C250  C     C_3   0.915922 0.342978 0.821412 0.073059
H278  H     H_    0.864215 0.312732 0.818848 0.177642
H279  H     H_    0.936906 0.329547 0.845116 0.122291
C251  C     C_3   0.968832 0.315862 0.796445 -0.333122
H280  H     H_    0.945288 0.325403 0.772938 0.253265
H281  H     H_    0.020550 0.346384 0.798139 0.222381
C252  C     C_3   0.984648 0.234871 0.800286 -0.930032
H282  H     H_    0.009169 0.224132 0.823500 0.257725
H283  H     H_    0.023266 0.217003 0.781981 0.279026
H284  H     H_    0.933978 0.202826 0.797927 0.269466
O105  O     O_3   0.102207 0.583058 0.317237 -0.625151
C253  C     C_3   0.094418 0.658359 0.323080 0.079637
H285  H     H_    0.113591 0.671673 0.346996 0.141788
H286  H     H_    0.036921 0.676078 0.320325 0.150515
C254  C     C_3   0.140768 0.700409 0.299754 -0.289490
H287  H     H_    0.198089 0.682853 0.302048 0.229552
H288  H     H_    0.122247 0.688042 0.275659 0.252627
C255  C     C_3   0.136084 0.782316 0.305224 -0.964012
H289  H     H_    0.079220 0.801270 0.302837 0.277588
H290  H     H_    0.169715 0.811063 0.287678 0.283252
H291  H     H_    0.156486 0.796164 0.328862 0.247174
O106  O     O_3   0.602054 0.083421 0.317279 -0.623571
C256  C     C_3   0.588677 0.158704 0.320619 0.085106
H292  H     H_    0.594408 0.175983 0.345379 0.127289
H293  H     H_    0.533298 0.172591 0.312132 0.146941
C257  C     C_3   0.643756 0.200635 0.301120 -0.294655
H294  H     H_    0.699257 0.187673 0.309476 0.227076
H295  H     H_    0.639245 0.183628 0.276312 0.256980
C258  C     C_3   0.631374 0.282557 0.303400 -0.954542
H296  H     H_    0.575732 0.296650 0.295590 0.273313
H297  H     H_    0.670623 0.311313 0.288193 0.272110
H298  H     H_    0.639164 0.301269 0.327808 0.263261
O107  O     O_3   0.897188 0.417735 0.317120 -0.625327
C259  C     C_3   0.904378 0.342348 0.322881 0.079106
H299  H     H_    0.884878 0.329037 0.346734 0.142486
H300  H     H_    0.961765 0.324210 0.320235 0.151015
C260  C     C_3   0.857917 0.300823 0.299383 -0.288989
H301  H     H_    0.800704 0.318792 0.301571 0.229429
H302  H     H_    0.876739 0.313243 0.275351 0.252651
C261  C     C_3   0.861935 0.218838 0.304720 -0.963823
H303  H     H_    0.918667 0.199468 0.302404 0.277608
H304  H     H_    0.828218 0.190509 0.287054 0.283463
H305  H     H_    0.841247 0.204935 0.328293 0.247184
O108  O     O_3   0.397261 0.917775 0.317132 -0.623482
C262  C     C_3   0.410497 0.842411 0.320201 0.084725
H306  H     H_    0.405606 0.824771 0.344943 0.127320
H307  H     H_    0.465518 0.828515 0.311340 0.148081
C263  C     C_3   0.354619 0.800920 0.300909 -0.295252
H308  H     H_    0.299454 0.813789 0.309663 0.226587
H309  H     H_    0.358216 0.818387 0.276137 0.257435
C264  C     C_3   0.366993 0.718945 0.302812 -0.953840
H310  H     H_    0.422346 0.704948 0.294635 0.273406
H311  H     H_    0.327207 0.690523 0.287720 0.272118
H312  H     H_    0.360018 0.699766 0.327192 0.263221

loop_
_geom_bond_atom_site_label_1
_geom_bond_atom_site_label_2
_geom_bond_distance
_ccdc_geom_bond_type
C94   C112  1.398757 A    
C246  H270  1.110822 S    
C76   O72   1.416675 S    
O71   C199  1.416011 S    
C241  H257  1.110688 S    
C186  H129  1.110185 S    
C153  H53   1.110811 S    
C247  C248  1.526968 S    
C121  C141  1.413735 A    
Zn5   O51   1.949461 S    
C74   O70   1.415623 S    
C125  C143  1.417279 A    
C95   C103  1.400820 A    
O69   C193  1.412592 S    
C220  C221  1.526830 S    
C60   O56   1.382541 S    
C28   C77   1.494493 S    
C262  H307  1.114476 S    
N17   O85   1.301073 A    
C93   C101  1.399741 A    
C130  C138  1.394821 A    
C58   O54   1.382332 S    
C151  H47   1.114151 S    
C12   C46   1.451160 S    
C245  H267  1.110559 S    
C251  H280  1.111312 S    
C182  H120  1.109321 S    
C263  H309  1.111785 S    
C30   C46   1.393813 A    
C229  H230  1.114185 S    
C148  C149  1.527717 S    
C135  C139  1.393902 A    
C175  H103  1.110913 S    
C86   H14   1.116716 S    
C89   C109  1.399283 A    
C200  H161  1.109650 S    
N20   O91   1.301460 A    
C72   O68   1.384486 S    
N10   C114  1.357263 A    
Zn13  O35   1.945678 S    
C39   C82   1.498816 S    
C61   O57   1.385982 S    
O34   C22   1.285183 A    
C255  H291  1.110710 S    
O82   C232  1.416963 S    
C196  H153  1.116194 S    
N2    C118  1.355753 A    
C97   N17   1.438640 S    
O41   C15   1.272711 A    
C17   C53   1.454686 S    
Zn2   O42   1.943963 S    
C100  C106  1.417160 A    
C76   H4    1.115078 S    
C249  H276  1.110267 S    
C96   C104  1.397207 A    
C242  C243  1.526459 S    
Zn4   O2    1.950096 S    
C229  C230  1.526619 S    
N23   O98   1.301503 A    
C49   C65   1.417727 A    
N17   O86   1.301444 A    
O49   C23   1.273658 A    
O47   C17   1.275772 A    
C46   C62   1.415758 A    
C27   C78   1.489539 S    
C225  H220  1.106828 S    
C40   C56   1.394206 A    
C9    C45   1.456779 S    
N11   C113  1.357528 A    
C36   C37   1.385437 A    
C170  H92   1.112536 S    
C224  C225  1.528810 S    
C251  H281  1.110574 S    
C244  C245  1.532323 S    
C234  H241  1.110072 S    
C128  C144  1.415589 A    
C162  H72   1.110741 S    
C259  C260  1.527721 S    
Zn16  O36   1.946750 S    
C188  C189  1.524762 S    
C133  H29   1.082590 S    
C249  H277  1.110589 S    
C224  H218  1.110571 S    
C167  H84   1.107764 S    
C76   C77   1.527899 S    
C194  C195  1.525180 S    
O22   C10   1.277207 A    
C239  C240  1.525697 S    
O28   C16   1.284394 A    
C256  H292  1.113122 S    
O46   C20   1.275787 A    
C237  H249  1.110086 S    
C209  C210  1.525052 S    
N5    N9    1.330195 A    
O58   C160  1.418284 S    
C225  H221  1.109159 S    
Zn12  O24   1.948377 S    
C160  C161  1.528902 S    
C126  C144  1.415531 A    
C231  H235  1.110008 S    
C66   O62   1.386372 S    
C238  H251  1.116441 S    
C251  C252  1.525596 S    
C94   C102  1.397442 A    
C250  H278  1.110883 S    
Zn16  O4    1.944614 S    
C192  H144  1.108048 S    
Zn1   O13   1.919543 S    
C227  H224  1.111901 S    
C250  C251  1.532869 S    
C129  H25   1.082019 S    
C247  H271  1.114477 S    
C168  H88   1.108569 S    
Zn3   O15   1.919383 S    
C25   C32   1.348993 A    
C127  C135  1.402740 A    
Zn4   O16   1.920384 S    
C85   O81   1.417869 S    
Zn3   O41   1.948990 S    
C73   H1    1.116799 S    
C92   C100  1.400280 A    
C199  H160  1.114549 S    
C205  H174  1.113599 S    
C208  H181  1.116157 S    
O101  C241  1.416886 S    
C179  C180  1.525635 S    
C155  H56   1.111761 S    
C4    C139  1.457770 S    
C121  C129  1.400913 A    
C178  H110  1.110947 S    
C238  H250  1.112113 S    
O11   C3    1.287366 A    
C211  H187  1.113629 S    
C91   H19   1.083667 S    
C156  H60   1.110832 S    
C97   C105  1.418163 A    
C92   H20   1.083257 S    
O80   C226  1.408747 S    
O72   C202  1.414441 S    
N6    C120  1.355717 A    
C151  C152  1.527297 S    
C233  H238  1.108535 S    
C167  C168  1.524626 S    
C176  H105  1.111462 S    
C215  H196  1.110993 S    
C205  C206  1.529766 S    
O65   C181  1.420920 S    
C132  C138  1.389580 A    
C175  C176  1.531430 S    
Zn10  O22   1.948851 S    
C187  H131  1.110769 S    
C223  H216  1.116088 S    
C79   O75   1.417508 S    
C204  H171  1.105830 S    
N3    N15   1.330176 A    
C260  H302  1.111595 S    
C184  H124  1.110701 S    
O70   C196  1.415968 S    
C115  C143  1.483799 S    
C165  H81   1.108546 S    
C203  H168  1.111875 S    
Zn14  O34   1.946405 S    
C102  N22   1.437239 S    
Zn10  O2    1.944302 S    
C83   H11   1.114501 S    
C68   O64   1.386960 S    
C207  H177  1.110946 S    
C257  H295  1.111773 S    
Zn3   O1    1.944707 S    
C174  H102  1.110191 S    
C122  O102  1.386496 S    
C150  H45   1.109754 S    
C169  H89   1.114170 S    
C191  H141  1.110086 S    
C212  H190  1.111813 S    
C181  H117  1.109389 S    
C94   H22   1.082493 S    
O59   C163  1.421561 S    
C236  C237  1.526371 S    
C219  H205  1.108991 S    
C163  H76   1.113450 S    
Zn12  O28   1.946750 S    
C201  H163  1.110029 S    
C136  C140  1.392542 A    
C198  H157  1.110539 S    
C261  H304  1.110221 S    
C177  H107  1.110835 S    
C243  H262  1.110271 S    
C106  C118  1.469061 S    
O31   C19   1.279902 A    
N21   O94   1.301487 A    
C253  C254  1.527600 S    
C250  H279  1.115112 S    
N13   C115  1.357814 A    
Zn13  O29   1.943543 S    
O61   C169  1.413074 S    
C11   C47   1.456386 S    
O27   C15   1.281921 A    
C75   O71   1.415565 S    
C188  H133  1.108344 S    
O67   C187  1.420644 S    
C214  C215  1.528801 S    
C60   C61   1.402195 A    
C218  C219  1.528873 S    
C215  C216  1.526115 S    
C240  H254  1.110839 S    
O8    C2    1.284687 A    
C154  H55   1.115949 S    
C161  H71   1.110059 S    
C228  H226  1.108302 S    
Zn15  O33   1.945299 S    
C190  H139  1.119349 S    
N1    N13   1.330155 A    
C77   H5    1.115466 S    
C247  H272  1.116390 S    
C202  H167  1.115796 S    
O16   C6    1.289329 A    
O53   C145  1.412508 S    
O14   C6    1.289215 A    
Zn15  O9    1.919360 S    
O23   C11   1.279808 A    
C82   H10   1.117363 S    
C55   C71   1.411802 A    
O40   C10   1.274639 A    
C173  H98   1.109382 S    
C160  H69   1.118020 S    
C53   C69   1.409711 A    
C24   C50   1.458877 S    
C213  H192  1.110175 S    
O45   C19   1.275871 A    
N4    C118  1.355674 A    
O17   C7    1.286097 A    
C102  C108  1.418161 A    
C222  H212  1.108608 S    
C173  H99   1.111109 S    
Zn5   O17   1.919543 S    
C131  C137  1.398914 A    
C180  H116  1.110334 S    
C185  C186  1.525286 S    
C13   C41   1.451005 S    
O9    C3    1.287471 A    
C36   C85   1.493210 S    
C50   C66   1.416461 A    
C211  C212  1.528869 S    
C255  H290  1.110224 S    
C86   O82   1.417689 S    
O77   C217  1.414371 S    
Zn4   O44   1.944156 S    
C232  H236  1.112132 S    
C261  H305  1.110813 S    
C233  C234  1.525540 S    
C209  H183  1.110275 S    
O62   C172  1.416928 S    
C1    C138  1.459055 S    
C264  H310  1.110879 S    
C226  C227  1.527213 S    
C83   O79   1.415558 S    
C158  H64   1.108971 S    
C62   O58   1.385162 S    
Zn9   O27   1.945678 S    
C135  H31   1.082500 S    
C80   H8    1.115964 S    
C187  C188  1.538046 S    
C92   C110  1.399961 A    
C81   H9    1.114441 S    
O66   C184  1.417846 S    
C184  C185  1.529641 S    
C66   C71   1.406498 A    
C7    C111  1.473822 S    
C165  H79   1.108951 S    
Zn9   O7    1.920061 S    
O50   C24   1.272338 A    
Zn10  O8    1.919222 S    
C101  N21   1.440100 S    
C88   H16   1.116710 S    
C207  H179  1.105169 S    
O5    C1    1.284243 A    
C195  H149  1.108414 S    
C162  H73   1.110266 S    
C259  H300  1.116496 S    
C232  C233  1.529988 S    
C29   C76   1.502298 S    
C206  H175  1.111908 S    
C146  H36   1.111987 S    
C35   C86   1.494892 S    
O52   C22   1.271601 A    
C236  H245  1.112076 S    
C48   C64   1.417026 A    
C219  H207  1.106964 S    
C248  H273  1.111570 S    
C84   O80   1.416436 S    
C38   C54   1.393425 A    
C171  H94   1.110855 S    
O73   C205  1.410099 S    
C222  H214  1.110747 S    
C34   C39   1.383710 A    
C185  H126  1.108972 S    
C216  H199  1.110258 S    
C126  C134  1.401855 A    
C158  C159  1.525245 S    
C126  O106  1.384306 S    
C95   C111  1.401247 A    
O57   C157  1.421237 S    
C252  H284  1.110808 S    
C82   C87   1.524324 S    
C18   C56   1.452549 S    
C189  H135  1.108241 S    
C23   C51   1.458418 S    
C234  H242  1.107589 S    
N24   O100  1.301417 A    
C214  H194  1.113980 S    
C103  C107  1.417004 A    
C240  H256  1.107715 S    
C180  H115  1.110529 S    
C176  C177  1.525110 S    
C125  C133  1.402560 A    
C246  H269  1.110324 S    
C202  H166  1.108032 S    
C241  H258  1.114500 S    
C100  N20   1.439612 S    
C74   C79   1.525825 S    
C10   C48   1.448539 S    
C21   C49   1.456836 S    
C183  H121  1.109415 S    
C192  H142  1.110789 S    
C63   O59   1.385726 S    
O75   C211  1.410135 S    
C145  H33   1.113858 S    
C220  H209  1.112557 S    
C222  H213  1.108988 S    
C127  O107  1.386313 S    
Zn1   O1    1.944391 S    
C159  H67   1.108855 S    
O29   C17   1.278659 A    
Zn2   O14   1.919682 S    
C151  H48   1.116343 S    
O76   C214  1.410856 S    
Zn1   O39   1.947016 S    
C178  C179  1.533070 S    
C71   O67   1.386415 S    
C79   H7    1.110089 S    
C182  H119  1.109183 S    
C19   C55   1.455508 S    
Zn3   O37   1.947359 S    
C263  C264  1.525879 S    
C107  C119  1.466061 S    
Zn12  O2    1.944614 S    
C148  H41   1.115850 S    
C175  H104  1.114764 S    
C217  H202  1.116152 S    
C164  C165  1.524993 S    
N20   O92   1.301376 A    
C256  C257  1.526783 S    
C123  O103  1.381914 S    
C166  C167  1.528105 S    
C149  H42   1.111705 S    
C189  H137  1.107754 S    
C196  H152  1.111226 S    
Zn8   O46   1.946288 S    
O55   C151  1.412694 S    
C244  H265  1.115334 S    
C194  H148  1.110972 S    
C29   C45   1.399013 A    
O6    C2    1.285336 A    
C124  O104  1.386354 S    
C242  H260  1.110746 S    
C75   C78   1.546651 S    
C121  O101  1.386261 S    
O64   C178  1.417207 S    
Zn10  O26   1.946405 S    
N19   O90   1.301444 A    
N7    N11   1.329829 A    
O79   C223  1.414400 S    
C32   C48   1.386575 A    
C39   C55   1.395480 A    
C231  H233  1.110757 S    
C145  C146  1.527592 S    
N18   O88   1.301382 A    
C170  H91   1.110966 S    
Zn14  O30   1.948851 S    
Zn15  O3    1.951386 S    
C78   H6    1.116668 S    
C252  H282  1.110883 S    
C199  H159  1.110739 S    
C155  H57   1.111879 S    
C150  H46   1.110773 S    
C195  H151  1.110926 S    
C129  C137  1.398396 A    
C221  H210  1.111919 S    
C188  H134  1.109100 S    
C74   H2    1.113104 S    
C206  C207  1.524224 S    
C98   N18   1.439725 S    
C32   C73   1.490357 S    
Zn1   O43   1.949461 S    
C31   C47   1.397035 A    
O56   C154  1.410841 S    
C231  H234  1.110318 S    
C237  H248  1.110331 S    
C228  H228  1.110748 S    
C95   H23   1.083309 S    
O68   C190  1.418420 S    
O63   C175  1.418832 S    
C90   C110  1.399954 A    
C264  H312  1.110921 S    
C93   H21   1.083262 S    
O74   C208  1.414157 S    
Zn5   O47   1.947016 S    
C25   C80   1.489741 S    
C131  H27   1.082762 S    
C153  H51   1.111042 S    
C108  C120  1.473347 S    
Zn6   O48   1.945913 S    
C230  H232  1.111760 S    
C218  H203  1.109469 S    
C193  H145  1.116025 S    
N18   O87   1.301471 A    
C258  H298  1.110922 S    
C96   H24   1.082265 S    
O35   C23   1.282616 A    
N9    C113  1.357961 A    
O103  C247  1.412652 S    
C192  H143  1.110407 S    
C200  C201  1.528935 S    
C227  H225  1.112065 S    
C150  H44   1.110972 S    
C93   C111  1.400650 A    
N1    C117  1.356068 A    
C133  C139  1.393738 A    
Zn15  O31   1.943353 S    
C168  H87   1.109621 S    
O38   C12   1.275403 A    
C260  C261  1.525920 S    
C33   C40   1.371008 A    
C156  H59   1.109804 S    
C190  H138  1.111175 S    
C89   H17   1.083681 S    
C198  H156  1.105838 S    
C124  C142  1.420010 A    
C208  H180  1.112110 S    
C235  H243  1.112727 S    
C186  H130  1.108981 S    
C90   H18   1.083244 S    
O12   C4    1.282646 A    
C125  O105  1.386255 S    
C235  C236  1.526514 S    
O48   C18   1.275941 A    
C172  C173  1.533890 S    
C211  H188  1.111605 S    
C73   O69   1.414342 S    
C256  H293  1.114648 S    
Zn16  O10   1.919063 S    
C262  C263  1.526796 S    
C227  C228  1.525164 S    
O108  C262  1.412484 S    
Zn13  O3    1.950008 S    
C246  H268  1.111045 S    
C99   N19   1.438630 S    
C134  H30   1.078400 S    
Zn14  O4    1.944302 S    
C245  H266  1.111441 S    
C54   C70   1.412407 A    
C233  H239  1.106824 S    
C182  C183  1.524837 S    
C154  H54   1.114734 S    
C263  H308  1.111212 S    
C163  H75   1.109279 S    
C212  C213  1.524433 S    
C128  O108  1.384288 S    
C6    C110  1.473216 S    
C33   C88   1.494937 S    
C229  H229  1.112319 S    
C254  H287  1.110621 S    
O21   C9    1.278753 A    
C26   C42   1.394596 A    
C51   C67   1.420509 A    
O107  C259  1.413592 S    
C52   C68   1.416979 A    
C193  C194  1.527801 S    
C187  H132  1.114193 S    
C234  H240  1.110832 S    
C161  C162  1.524655 S    
C204  H170  1.110145 S    
Zn7   O49   1.948990 S    
C193  H146  1.112508 S    
C123  C141  1.415120 A    
C203  H169  1.108646 S    
C166  H82   1.111290 S    
C149  C150  1.525826 S    
C210  H186  1.109088 S    
O25   C13   1.280325 A    
C130  H26   1.083293 S    
C207  H178  1.110185 S    
C152  C153  1.525138 S    
C174  H101  1.110483 S    
O10   C4    1.282651 A    
Zn9   O1    1.950008 S    
C169  H90   1.117387 S    
C191  C192  1.524137 S    
C249  H275  1.110941 S    
C185  H127  1.110143 S    
C181  H118  1.114865 S    
C90   C98   1.400170 A    
C20   C54   1.451773 S    
C236  H246  1.111803 S    
C219  H206  1.110672 S    
C201  H164  1.110905 S    
N2    N14   1.330511 A    
O104  C250  1.417970 S    
C15   C43   1.455347 S    
O36   C24   1.285219 A    
C225  H219  1.110682 S    
C84   H12   1.117251 S    
C177  H108  1.109950 S    
C170  C171  1.524712 S    
O106  C256  1.412590 S    
C98   C106  1.417135 A    
C203  C204  1.525618 S    
N21   O93   1.300957 A    
C172  H96   1.110919 S    
C37   C84   1.499388 S    
Zn11  O1    1.951386 S    
C248  H274  1.111932 S    
C38   C83   1.497827 S    
C237  H247  1.110758 S    
C103  N23   1.441546 S    
C56   C72   1.413536 A    
C221  C222  1.525182 S    
C156  H58   1.111031 S    
O43   C13   1.272902 A    
C70   O66   1.386019 S    
C96   C112  1.398828 A    
C181  C182  1.535472 S    
C163  C164  1.536699 S    
C215  H197  1.111527 S    
N23   O97   1.301267 A    
C173  C174  1.525597 S    
C75   H3    1.114119 S    
Zn5   O3    1.944391 S    
C201  H165  1.107735 S    
Zn6   O4    1.951477 S    
C169  C170  1.527664 S    
C33   C49   1.395602 A    
C177  H109  1.110816 S    
C179  H112  1.109502 S    
C258  H296  1.110878 S    
C164  H77   1.107791 S    
C101  C107  1.416102 A    
C259  H299  1.111992 S    
C238  C239  1.530187 S    
O84   C238  1.417169 S    
C5    C109  1.470802 S    
C81   C88   1.541520 S    
N22   O96   1.301436 A    
C171  H95   1.111699 S    
C239  H252  1.108546 S    
C44   C60   1.414567 A    
O15   C5    1.285039 A    
C157  C158  1.536535 S    
N15   C115  1.357805 A    
C260  H301  1.110675 S    
N8    C120  1.354919 A    
Zn6   O18   1.919682 S    
C147  H37   1.111068 S    
C65   C72   1.409951 A    
C127  C143  1.417286 A    
C205  H173  1.113282 S    
C208  C209  1.527952 S    
C85   H13   1.115849 S    
C186  H128  1.110757 S    
C132  H28   1.079435 S    
C68   C69   1.406519 A    
Zn2   O40   1.945913 S    
N5    C119  1.355442 A    
C254  H288  1.111599 S    
C77   O73   1.416581 S    
C155  C156  1.525902 S    
C197  H154  1.111798 S    
C14   C44   1.456639 S    
C36   C52   1.395757 A    
C105  C117  1.473401 S    
O32   C20   1.276864 A    
N4    N16   1.330396 A    
C67   C70   1.415310 A    
C65   O61   1.382754 S    
C262  H306  1.113187 S    
C230  C231  1.526391 S    
Zn12  O6    1.919063 S    
C30   C75   1.498153 S    
Zn2   O2    1.951477 S    
C134  C140  1.392444 A    
O105  C253  1.413681 S    
O7    C1    1.288932 A    
C31   C74   1.501439 S    
C179  H113  1.111196 S    
C174  H100  1.110757 S    
O26   C14   1.282943 A    
C245  C246  1.525547 S    
C214  H195  1.112739 S    
C104  C108  1.417844 A    
Zn16  O32   1.948377 S    
C235  H244  1.114195 S    
N22   O95   1.301329 A    
O81   C229  1.407306 S    
C27   C30   1.362778 A    
C212  H189  1.111951 S    
C226  H223  1.112555 S    
C47   C63   1.411973 A    
C158  H63   1.108207 S    
C159  H65   1.109065 S    
C172  H97   1.114833 S    
C28   C44   1.395884 A    
O19   C7    1.285510 A    
C216  H200  1.108345 S    
Zn8   O4    1.950096 S    
C45   C61   1.412003 A    
C58   C63   1.402544 A    
C123  C131  1.397056 A    
C223  H215  1.109325 S    
O37   C11   1.276472 A    
C42   C58   1.414707 A    
C204  H172  1.110667 S    
C184  H125  1.118151 S    
C91   C99   1.399958 A    
O39   C9    1.276744 A    
C165  H80   1.110501 S    
C253  H286  1.116499 S    
O13   C5    1.284959 A    
C253  H285  1.112010 S    
C104  N24   1.436817 S    
C210  H184  1.110905 S    
O51   C21   1.275449 A    
C64   O60   1.384042 S    
C257  H294  1.111134 S    
C195  H150  1.108753 S    
C248  C249  1.526478 S    
C59   O55   1.381967 S    
C232  H237  1.116441 S    
C191  H140  1.108680 S    
C209  H182  1.109301 S    
O20   C8    1.288230 A    
C73   C80   1.552203 S    
C264  H311  1.109790 S    
C167  H85   1.110352 S    
O44   C14   1.272533 A    
N3    C117  1.356097 A    
C122  C142  1.420595 A    
C80   O76   1.414390 S    
C243  H261  1.111068 S    
C183  H123  1.108372 S    
C198  H158  1.110698 S    
N19   O89   1.301088 A    
O24   C12   1.277174 A    
C261  H303  1.110691 S    
C25   C41   1.386710 A    
C146  H35   1.110949 S    
C87   O83   1.417375 S    
C159  H66   1.110527 S    
C116  C144  1.481583 S    
C196  C197  1.525897 S    
C152  H50   1.111899 S    
C252  H283  1.110344 S    
N7    C119  1.355332 A    
C189  H136  1.110570 S    
C217  C218  1.525784 S    
C230  H231  1.112021 S    
C113  C141  1.478239 S    
C2    C137  1.466404 S    
C240  H255  1.110112 S    
C157  H61   1.109643 S    
C154  C155  1.527780 S    
C78   O74   1.415910 S    
C176  H106  1.111307 S    
C190  C191  1.529004 S    
C82   O78   1.416235 S    
C228  H227  1.109171 S    
N8    N12   1.328680 A    
O78   C220  1.408922 S    
C91   C109  1.399237 A    
C183  H122  1.110514 S    
C202  C203  1.525215 S    
C67   O63   1.387627 S    
C224  H217  1.109516 S    
C81   O77   1.415391 S    
C145  H34   1.116257 S    
C213  H193  1.106235 S    
C220  H208  1.115114 S    
N6    N10   1.329533 A    
C16   C42   1.457400 S    
O83   C235  1.407171 S    
C239  H253  1.107120 S    
C178  H111  1.114673 S    
C213  H191  1.110228 S    
O42   C16   1.272400 A    
Zn11  O5    1.919360 S    
C226  H222  1.115018 S    
C199  C200  1.527859 S    
C28   C29   1.385645 A    
C210  H185  1.110226 S    
Zn9   O21   1.943543 S    
C148  H40   1.114823 S    
C37   C53   1.395387 A    
C84   C85   1.523133 S    
Zn11  O23   1.943353 S    
C164  H78   1.108581 S    
C114  C142  1.485632 S    
C83   C86   1.541130 S    
C241  C242  1.532307 S    
C41   C57   1.421686 A    
C255  H289  1.110707 S    
C166  H83   1.118129 S    
C149  H43   1.111779 S    
Zn8   O52   1.944156 S    
C152  H49   1.110772 S    
C43   C59   1.419173 A    
C22   C52   1.459176 S    
C122  C130  1.401745 A    
C147  H39   1.110810 S    
O54   C148  1.410703 S    
C57   O53   1.382356 S    
N16   C116  1.357888 A    
C157  H62   1.114017 S    
C200  H162  1.109763 S    
C242  H259  1.111471 S    
C216  H198  1.110962 S    
C254  C255  1.525957 S    
C26   C79   1.492680 S    
C88   O84   1.417849 S    
C136  H32   1.078350 S    
Zn4   O38   1.946288 S    
C147  H38   1.109922 S    
Zn7   O19   1.919383 S    
C223  C224  1.526222 S    
C35   C51   1.395616 A    
C99   C105  1.418193 A    
O33   C21   1.280619 A    
O102  C244  1.417664 S    
C34   C50   1.395083 A    
C8    C112  1.469719 S    
Zn8   O20   1.920384 S    
C244  H264  1.110885 S    
Zn7   O3    1.944707 S    
C257  C258  1.525874 S    
C162  H74   1.108531 S    
C161  H70   1.108192 S    
C128  C136  1.401898 A    
C197  H155  1.110864 S    
C221  H211  1.112024 S    
C168  H86   1.110739 S    
C59   C62   1.411763 A    
C206  H176  1.111754 S    
C27   C43   1.391108 A    
C197  C198  1.525993 S    
C57   C64   1.416697 A    
C194  H147  1.111228 S    
C180  H114  1.110783 S    
C26   C31   1.386459 A    
C243  H263  1.110793 S    
C89   C97   1.399946 A    
C171  H93   1.111718 S    
C218  H204  1.110537 S    
Zn11  O25   1.945299 S    
C35   C38   1.370661 A    
C153  H52   1.110021 S    
N14   C116  1.357969 A    
C160  H68   1.111029 S    
C146  C147  1.525097 S    
N12   C114  1.357028 A    
C3    C140  1.462215 S    
C258  H297  1.109814 S    
C40   C81   1.497523 S    
C87   H15   1.115779 S    
Zn6   O50   1.943963 S    
O60   C166  1.418208 S    
O18   C8    1.288497 A    
C124  C132  1.398304 A    
C217  H201  1.109477 S    
Zn13  O11   1.920061 S    
Zn14  O12   1.919222 S    
N24   O99   1.301241 A    
C69   O65   1.385992 S    
C34   C87   1.492558 S    
Zn7   O45   1.947359 S    
O30   C18   1.277849 A    
