data_mof_unit_46816.cif
_audit_creation_date              2012-12-10T17:49:41-0500
_audit_creation_method            fapswitch 2.2
_symmetry_space_group_name_H-M    P1
_symmetry_Int_Tables_number       1
_space_group_crystal_system       triclinic
_cell_length_a                    10.511337
_cell_length_b                    10.647529
_cell_length_c                    9.976869
_cell_angle_alpha                 92.293328
_cell_angle_beta                  90.398656
_cell_angle_gamma                 92.398287
_cell_volume                      1114.69555617

loop_
_atom_site_label
_atom_site_type_symbol
_atom_type_description
_atom_site_fract_x
_atom_site_fract_y
_atom_site_fract_z
_atom_type_partial_charge
C1    C     C_R   0.501063 0.260909 0.496621 0.936823
C2    C     C_R   0.617838 0.075819 0.545262 -0.019796
C3    C     C_R   0.512347 0.129296 0.487195 -0.226048
C4    C     C_R   0.258182 0.503671 0.499844 0.895208
C5    C     C_R   0.410760 0.056623 0.431417 0.594354
C6    C     C_R   0.410727 0.928447 0.439625 -0.285125
C7    C     C_R   0.506710 0.874273 0.512187 -0.199248
C8    C     C_R   0.302832 0.376004 0.136989 -0.183113
C9    C     C_R   0.187502 0.345566 0.073630 0.604881
C10   C     C_R   0.178244 0.354511 0.936263 -0.336580
C11   C     C_R   0.289389 0.377512 0.862335 0.230400
C12   C     C_3   0.955780 0.461952 0.378028 -0.144185
C13   C     C_R   0.397596 0.442022 0.926387 0.106215
C14   C     C_R   0.400374 0.441478 0.070472 -0.105982
C15   C     C_R   0.598737 0.550721 0.073885 0.663662
C16   C     C_R   0.505944 0.740203 0.503556 0.937287
C17   C     C_R   0.600341 0.546781 0.931434 -0.240130
C18   C     C_R   0.742186 0.501701 0.500391 0.916025
C19   C     C_3   0.042596 0.546685 0.619060 0.163827
C20   C     C_3   0.956713 0.427485 0.596344 -0.297683
C21   C     C_3   0.876979 0.503168 0.500698 -0.163909
C22   C     C_3   0.961840 0.622058 0.526397 0.595578
C23   C     C_3   0.038294 0.386972 0.473987 -0.182815
C24   C     C_3   0.041863 0.580277 0.406685 0.123172
C25   C     C_3   0.572733 0.859711 0.859818 -0.730487
C26   C     C_3   0.339626 0.169560 0.786732 -0.743115
C27   C     C_3   0.003819 0.614296 0.851656 -0.743641
C28   C     C_3   0.999605 0.727848 0.232496 -0.653712
C29   C     C_3   0.123589 0.506421 0.499769 -0.179214
C30   C     C_R   0.731542 0.146799 0.575581 -0.131160
C31   C     C_R   0.831014 0.093144 0.642303 -0.165482
C32   C     C_R   0.812781 0.974070 0.692235 -0.087622
C33   C     C_R   0.698084 0.904299 0.667226 0.276634
C34   C     C_R   0.607819 0.948580 0.574985 0.047396
F1    F     F_    0.698912 0.606251 0.142375 -0.680291
F2    F     F_    0.090170 0.291800 0.142435 -0.665261
F3    F     F_    0.919060 0.741100 0.554082 -0.703959
F4    F     F_    0.310856 0.110211 0.372129 -0.670254
H1    H     H_    0.918052 0.368091 0.676501 0.162604
H2    H     H_    0.919018 0.146731 0.663570 0.142462
H3    H     H_    0.737969 0.772670 0.805010 0.219972
H4    H     H_    0.616444 0.941630 0.918496 0.232158
H5    H     H_    0.483927 0.888159 0.810461 0.243220
H6    H     H_    0.546346 0.785684 0.930383 0.242122
H7    H     H_    0.223775 0.287668 0.687912 0.226594
H8    H     H_    0.343792 0.106638 0.696020 0.230926
H9    H     H_    0.268647 0.126565 0.855164 0.231420
H10   H     H_    0.434879 0.175293 0.836196 0.252111
H11   H     H_    0.159923 0.668269 0.737890 0.239575
H12   H     H_    0.884054 0.940018 0.759139 0.147738
H13   H     H_    0.055155 0.638125 0.947443 0.233732
H14   H     H_    0.942885 0.528094 0.865250 0.247735
H15   H     H_    0.943656 0.693524 0.827254 0.246020
H16   H     H_    0.157171 0.618603 0.243489 0.245243
H17   H     H_    0.048679 0.794040 0.164716 0.226376
H18   H     H_    0.939502 0.783080 0.302104 0.299694
H19   H     H_    0.938664 0.659771 0.171058 0.266249
H20   H     H_    0.333790 0.871175 0.392498 0.191675
H21   H     H_    0.316280 0.342277 0.235401 0.253324
H22   H     H_    0.093425 0.313878 0.886299 0.174336
H23   H     H_    0.683449 0.583174 0.880875 0.171898
H24   H     H_    0.916004 0.428473 0.278961 0.224714
H25   H     H_    0.073832 0.291530 0.452682 0.216011
H26   H     H_    0.744620 0.242631 0.545140 0.132612
N1    N     N_R   0.498800 0.498800 0.142780 -0.144632
N2    N     N_R   0.498760 0.498720 0.857170 -0.123368
N3    N     N_2   0.661710 0.813041 0.760937 -0.278393
N4    N     N_2   0.302940 0.293812 0.750045 -0.227689
N5    N     N_2   0.095400 0.593489 0.746737 -0.284565
N6    N     N_2   0.093265 0.662011 0.305942 -0.311103
O1    O     O_R   0.500000 0.316780 0.614690 -0.592966
O2    O     O_R   0.499990 0.316750 0.385360 -0.616307
O3    O     O_R   0.313960 0.499980 0.614650 -0.616653
O4    O     O_R   0.313940 0.499960 0.385310 -0.648874
O5    O     O_R   0.500010 0.683250 0.614640 -0.595759
O6    O     O_R   0.500000 0.683220 0.385310 -0.588632
O7    O     O_R   0.686060 0.500040 0.614690 -0.631399
O8    O     O_R   0.686040 0.500020 0.385350 -0.566033
Zn1   Zn    Zn3+2 0.500010 0.500020 0.653130 0.967948
Zn2   Zn    Zn3+2 0.499990 0.499980 0.346870 1.005255

loop_
_geom_bond_atom_site_label_1
_geom_bond_atom_site_label_2
_ccdc_geom_bond_type
C30   H26   S    
C16   O5    A    
C6    H20   S    
C19   C20   S    
C25   N3    S    
C25   H5    S    
O1    Zn1   S    
C28   H18   S    
C24   N6    S    
H3    N3    S    
C28   H19   S    
C11   N4    S    
N2    Zn1   S    
C12   C23   S    
C17   N2    A    
C1    O1    A    
C23   C29   S    
C21   C22   S    
C8    H21   S    
C5    C6    A    
O8    Zn2   S    
C18   C21   S    
C31   H2    S    
C24   C29   S    
C17   H23   S    
C8    C9    A    
C9    F2    S    
C9    C10   A    
C4    O4    A    
C4    C29   S    
C27   N5    S    
C26   H10   S    
C2    C34   A    
C23   H25   S    
N1    Zn2   S    
H11   N5    S    
C5    F4    S    
C25   H6    S    
C15   F1    S    
C28   H17   S    
C27   H13   S    
C13   N2    A    
O7    Zn1   S    
C1    O2    A    
C19   C22   S    
C20   H1    S    
C22   F3    S    
C12   C21   S    
C1    C3    S    
C10   H22   S    
C12   H24   S    
C31   C32   A    
H16   N6    S    
C20   C23   S    
C18   O8    A    
H7    N4    S    
C33   C34   A    
O3    Zn1   S    
C32   H12   S    
C4    O3    A    
C26   H9    S    
C7    C16   S    
C7    C34   A    
C22   C24   S    
C19   N5    S    
C19   C29   S    
C27   H14   S    
C33   N3    S    
C15   C17   A    
C8    C14   A    
C16   O6    A    
C28   N6    S    
O6    Zn2   S    
C3    C5    A    
C25   H4    S    
C27   H15   S    
C6    C7    A    
C12   C24   S    
C2    C30   A    
C26   N4    S    
C32   C33   A    
C2    C3    A    
O2    Zn2   S    
C11   C13   A    
C30   C31   A    
C18   O7    A    
C14   N1    A    
C10   C11   A    
C26   H8    S    
C20   C21   S    
O4    Zn2   S    
C13   C14   A    
O5    Zn1   S    
C15   N1    A    
