data_mof_unit_66194.cif
_audit_creation_date              2012-12-10T20:17:14-0500
_audit_creation_method            fapswitch 2.2
_symmetry_space_group_name_H-M    P1
_symmetry_Int_Tables_number       1
_space_group_crystal_system       triclinic
_cell_length_a                    35.579427
_cell_length_b                    35.579425
_cell_length_c                    23.532756
_cell_angle_alpha                 89.999985
_cell_angle_beta                  89.999971
_cell_angle_gamma                 90.0
_cell_volume                      29790.0112053

loop_
_atom_site_label
_atom_site_type_symbol
_atom_type_description
_atom_site_fract_x
_atom_site_fract_y
_atom_site_fract_z
_atom_type_partial_charge
C1    C     C_R   0.000000 0.426613 0.500000 0.891744
C2    C     C_R   0.426613 0.000000 0.500000 0.891744
C3    C     C_R   0.000000 0.573387 0.500000 0.891744
C4    C     C_R   0.573387 0.000000 0.500000 0.891743
C5    C     C_R   0.500000 0.926613 0.000000 0.891744
C6    C     C_R   0.926613 0.500000 0.000000 0.891744
C7    C     C_R   0.500000 0.073387 0.000000 0.891744
C8    C     C_R   0.073387 0.500000 0.000000 0.891743
C9    C     C_1   1.000000 0.266842 0.500000 0.068665
C10   C     C_1   0.266842 1.000000 0.500000 0.068666
C11   C     C_1   1.000000 0.733158 0.500000 0.068665
C12   C     C_1   0.733158 1.000000 0.500000 0.068664
C13   C     C_1   0.500000 0.766842 1.000000 0.068665
C14   C     C_1   0.766842 0.500000 1.000000 0.068667
C15   C     C_1   0.500000 0.233158 0.000000 0.068665
C16   C     C_1   0.233158 0.500000 0.000000 0.068664
C17   C     C_R   0.965677 0.326505 0.504243 0.170784
C18   C     C_R   0.326506 0.034323 0.504243 0.170784
C19   C     C_R   0.034323 0.673494 0.504246 0.170785
C20   C     C_R   0.673494 0.965677 0.504255 0.170783
C21   C     C_R   0.034323 0.326506 0.495756 0.170783
C22   C     C_R   0.673494 0.034323 0.495746 0.170783
C23   C     C_R   0.965677 0.673494 0.495754 0.170784
C24   C     C_R   0.326506 0.965677 0.495757 0.170784
C25   C     C_R   0.465677 0.826506 0.004254 0.170786
C26   C     C_R   0.826506 0.534323 0.004243 0.170785
C27   C     C_R   0.534324 0.173494 0.004239 0.170785
C28   C     C_R   0.173494 0.465677 0.004250 0.170784
C29   C     C_R   0.534323 0.826506 0.995746 0.170786
C30   C     C_R   0.173494 0.534323 0.995750 0.170784
C31   C     C_R   0.465676 0.173494 0.995761 0.170785
C32   C     C_R   0.826506 0.465677 0.995757 0.170785
C33   C     C_R   0.966012 0.365739 0.504113 -0.187842
C34   C     C_R   0.365739 0.033987 0.504112 -0.187842
C35   C     C_R   0.033987 0.634261 0.504115 -0.187843
C36   C     C_R   0.634261 0.966013 0.504124 -0.187842
C37   C     C_R   0.033988 0.365739 0.495887 -0.187842
C38   C     C_R   0.634261 0.033987 0.495876 -0.187842
C39   C     C_R   0.966012 0.634261 0.495885 -0.187841
C40   C     C_R   0.365739 0.966012 0.495888 -0.187841
C41   C     C_R   0.466013 0.865739 0.004123 -0.187841
C42   C     C_R   0.865739 0.533987 0.004113 -0.187842
C43   C     C_R   0.533988 0.134261 0.004108 -0.187842
C44   C     C_R   0.134261 0.466013 0.004120 -0.187842
C45   C     C_R   0.533987 0.865739 0.995876 -0.187841
C46   C     C_R   0.134261 0.533987 0.995880 -0.187842
C47   C     C_R   0.466012 0.134261 0.995892 -0.187841
C48   C     C_R   0.865739 0.466012 0.995887 -0.187842
C49   C     C_R   1.000000 0.385455 0.500000 -0.131928
C50   C     C_R   0.385455 0.000000 0.500000 -0.131929
C51   C     C_R   1.000000 0.614545 0.500000 -0.131927
C52   C     C_R   0.614545 1.000000 0.500000 -0.131927
C53   C     C_R   0.500000 0.885455 1.000000 -0.131928
C54   C     C_R   0.885455 0.500000 0.000000 -0.131929
C55   C     C_R   0.500000 0.114545 0.000000 -0.131928
C56   C     C_R   0.114545 0.500000 0.000000 -0.131927
C57   C     C_R   1.000000 0.306957 0.500000 0.105458
C58   C     C_R   0.306957 1.000000 0.500000 0.105460
C59   C     C_R   1.000000 0.693043 0.500000 0.105458
C60   C     C_R   0.693043 1.000000 0.500000 0.105458
C61   C     C_R   0.500000 0.806957 1.000000 0.105461
C62   C     C_R   0.806957 0.500000 1.000000 0.105463
C63   C     C_R   0.500000 0.193043 0.000000 0.105457
C64   C     C_R   0.193043 0.500000 0.000000 0.105459
C65   C     C_R   0.926596 0.000000 0.500000 0.896034
C66   C     C_R   0.000000 0.073404 0.500000 0.896034
C67   C     C_R   0.073404 1.000000 0.500000 0.896032
C68   C     C_R   0.000000 0.926596 0.500000 0.896034
C69   C     C_R   0.426596 0.500000 0.000000 0.896035
C70   C     C_R   0.500000 0.573404 0.000000 0.896036
C71   C     C_R   0.573404 0.500000 1.000000 0.896034
C72   C     C_R   0.500000 0.426596 0.000000 0.896035
C73   C     C_R   1.000000 0.500000 0.609423 0.908458
C74   C     C_R   0.500000 1.000000 0.609423 0.908458
C75   C     C_R   0.000000 0.500000 0.390577 0.908459
C76   C     C_R   0.500000 0.000000 0.390577 0.908459
C77   C     C_R   0.500000 0.000000 0.109423 0.908458
C78   C     C_R   0.000000 0.500000 0.109423 0.908458
C79   C     C_R   0.500000 0.000000 0.890577 0.908459
C80   C     C_R   0.000000 0.500000 0.890577 0.908459
C81   C     C_1   1.000000 0.500000 0.669611 -0.178666
C82   C     C_1   0.500000 1.000000 0.669611 -0.178666
C83   C     C_1   1.000000 0.500000 0.330388 -0.178666
C84   C     C_1   0.500000 1.000000 0.330388 -0.178666
C85   C     C_1   0.500000 0.000000 0.169611 -0.178666
C86   C     C_1   0.000000 0.500000 0.169611 -0.178666
C87   C     C_1   0.500000 0.000000 0.830388 -0.178666
C88   C     C_1   1.000000 0.500000 0.830388 -0.178666
C89   C     C_1   1.000000 0.500000 0.720376 0.016768
C90   C     C_1   0.500000 1.000000 0.720376 0.016768
C91   C     C_1   0.000000 0.500000 0.279624 0.016768
C92   C     C_1   0.500000 0.000000 0.279624 0.016768
C93   C     C_1   0.500000 0.000000 0.220376 0.016768
C94   C     C_1   0.000000 0.500000 0.220376 0.016768
C95   C     C_1   0.500000 1.000000 0.779624 0.016768
C96   C     C_1   1.000000 0.500000 0.779624 0.016768
C97   C     C_R   0.003297 0.173496 0.447879 -0.021939
C98   C     C_R   0.173496 0.996704 0.447879 -0.021939
C99   C     C_R   0.996705 0.826504 0.447879 -0.021940
C100  C     C_R   0.826504 0.003293 0.447879 -0.021939
C101  C     C_R   0.996703 0.173496 0.552120 -0.021939
C102  C     C_R   0.826504 0.996707 0.552121 -0.021939
C103  C     C_R   0.003294 0.826504 0.552121 -0.021939
C104  C     C_R   0.173496 0.003296 0.552120 -0.021938
C105  C     C_R   0.503282 0.673496 0.947877 -0.021938
C106  C     C_R   0.673496 0.496709 0.947879 -0.021939
C107  C     C_R   0.496702 0.326504 0.947880 -0.021937
C108  C     C_R   0.326504 0.503293 0.947879 -0.021940
C109  C     C_R   0.496718 0.673496 0.052123 -0.021938
C110  C     C_R   0.326504 0.496707 0.052121 -0.021939
C111  C     C_R   0.503297 0.326504 0.052121 -0.021939
C112  C     C_R   0.673496 0.503291 0.052121 -0.021939
C113  C     C_R   0.002799 0.134215 0.448738 -0.219700
C114  C     C_R   0.134215 0.997202 0.448738 -0.219701
C115  C     C_R   0.997204 0.865785 0.448738 -0.219701
C116  C     C_R   0.865785 0.002794 0.448738 -0.219701
C117  C     C_R   0.997201 0.134215 0.551261 -0.219701
C118  C     C_R   0.865785 0.997206 0.551262 -0.219702
C119  C     C_R   0.002796 0.865785 0.551262 -0.219701
C120  C     C_R   0.134215 0.002798 0.551261 -0.219701
C121  C     C_R   0.502784 0.634215 0.948736 -0.219701
C122  C     C_R   0.634215 0.497207 0.948738 -0.219701
C123  C     C_R   0.497201 0.365785 0.948738 -0.219701
C124  C     C_R   0.365785 0.502794 0.948738 -0.219700
C125  C     C_R   0.497216 0.634215 0.051263 -0.219701
C126  C     C_R   0.365785 0.497205 0.051262 -0.219702
C127  C     C_R   0.502799 0.365785 0.051262 -0.219701
C128  C     C_R   0.634215 0.502793 0.051262 -0.219700
C129  C     C_R   0.000000 0.114557 0.500000 -0.092119
C130  C     C_R   0.114558 1.000000 0.500000 -0.092120
C131  C     C_R   1.000000 0.885442 0.500000 -0.092119
C132  C     C_R   0.885442 0.000000 0.500000 -0.092119
C133  C     C_R   0.500000 0.614558 1.000000 -0.092119
C134  C     C_R   0.614558 0.500000 1.000000 -0.092120
C135  C     C_R   0.500000 0.385442 0.000000 -0.092118
C136  C     C_R   0.385442 0.500000 0.000000 -0.092119
C137  C     C_R   1.000000 0.193168 0.500000 -0.033133
C138  C     C_R   0.193168 0.000000 0.500000 -0.033134
C139  C     C_R   1.000000 0.806832 0.500000 -0.033132
C140  C     C_R   0.806832 1.000000 0.500000 -0.033132
C141  C     C_R   0.500000 0.693168 1.000000 -0.033131
C142  C     C_R   0.693168 0.500000 1.000000 -0.033133
C143  C     C_R   0.500000 0.306832 0.000000 -0.033132
C144  C     C_R   0.306832 0.500000 0.000000 -0.033132
C145  C     C_1   1.000000 0.233277 0.500000 0.091630
C146  C     C_1   0.233277 1.000000 0.500000 0.091631
C147  C     C_1   1.000000 0.766723 0.500000 0.091630
C148  C     C_1   0.766723 1.000000 0.500000 0.091630
C149  C     C_1   0.500000 0.733277 1.000000 0.091624
C150  C     C_1   0.733277 0.500000 1.000000 0.091630
C151  C     C_1   0.500000 0.266723 0.000000 0.091628
C152  C     C_1   0.266723 0.500000 0.000000 0.091630
H1    H     H_    0.005336 0.118815 0.409189 0.197839
H2    H     H_    0.118815 0.994665 0.409189 0.197840
H3    H     H_    0.994668 0.881184 0.409188 0.197840
H4    H     H_    0.881184 0.005328 0.409188 0.197840
H5    H     H_    0.994663 0.118815 0.590811 0.197839
H6    H     H_    0.881184 0.994672 0.590812 0.197839
H7    H     H_    0.005331 0.881184 0.590812 0.197839
H8    H     H_    0.118816 0.005334 0.590811 0.197839
H9    H     H_    0.505309 0.618816 0.909185 0.197840
H10   H     H_    0.618816 0.494674 0.909187 0.197840
H11   H     H_    0.494663 0.381184 0.909189 0.197838
H12   H     H_    0.381184 0.505329 0.909188 0.197839
H13   H     H_    0.494691 0.618816 0.090815 0.197840
H14   H     H_    0.381184 0.494671 0.090812 0.197839
H15   H     H_    0.505337 0.381184 0.090811 0.197839
H16   H     H_    0.618816 0.505326 0.090812 0.197840
H17   H     H_    0.939696 0.380910 0.507405 0.171810
H18   H     H_    0.380910 0.060304 0.507404 0.171810
H19   H     H_    0.060304 0.619089 0.507409 0.171810
H20   H     H_    0.619089 0.939697 0.507424 0.171809
H21   H     H_    0.060304 0.380910 0.492595 0.171810
H22   H     H_    0.619089 0.060303 0.492576 0.171808
H23   H     H_    0.939696 0.619089 0.492591 0.171809
H24   H     H_    0.380910 0.939696 0.492596 0.171810
H25   H     H_    0.439697 0.880911 0.007424 0.171809
H26   H     H_    0.880910 0.560304 0.007405 0.171810
H27   H     H_    0.560304 0.119090 0.007397 0.171810
H28   H     H_    0.119089 0.439697 0.007417 0.171809
H29   H     H_    0.560303 0.880910 0.992576 0.171808
H30   H     H_    0.119089 0.560303 0.992583 0.171809
H31   H     H_    0.439695 0.119090 0.992603 0.171810
H32   H     H_    0.880910 0.439696 0.992595 0.171810
O1    O     O_R   0.031300 0.444560 0.499980 -0.622758
O2    O     O_R   0.444560 0.968700 0.499980 -0.622757
O3    O     O_R   0.968700 0.555440 0.499980 -0.622757
O4    O     O_R   0.555440 0.031300 0.499980 -0.622757
O5    O     O_R   0.968700 0.444560 0.500020 -0.622757
O6    O     O_R   0.555440 0.968700 0.500020 -0.622757
O7    O     O_R   0.031300 0.555440 0.500020 -0.622758
O8    O     O_R   0.444560 0.031300 0.500020 -0.622758
O9    O     O_R   0.531300 0.944560 0.999980 -0.622757
O10   O     O_R   0.944560 0.468700 0.999980 -0.622757
O11   O     O_R   0.468700 0.055440 0.999980 -0.622758
O12   O     O_R   0.055440 0.531300 0.999980 -0.622758
O13   O     O_R   0.468700 0.944560 0.000020 -0.622757
O14   O     O_R   0.055440 0.468700 0.000020 -0.622757
O15   O     O_R   0.531300 0.055440 0.000020 -0.622758
O16   O     O_R   0.944560 0.531300 0.000020 -0.622758
O17   O     O_R   0.031300 0.500000 0.582760 -0.610964
O18   O     O_R   0.500000 0.968700 0.582760 -0.610964
O19   O     O_R   0.968700 0.500000 0.582760 -0.610963
O20   O     O_R   0.500000 0.031300 0.582760 -0.610963
O21   O     O_R   0.968700 0.500000 0.417240 -0.610963
O22   O     O_R   0.500000 0.968700 0.417240 -0.610962
O23   O     O_R   0.031300 0.500000 0.417240 -0.610964
O24   O     O_R   0.500000 0.031300 0.417240 -0.610965
O25   O     O_R   0.531300 0.000000 0.082760 -0.610963
O26   O     O_R   0.000000 0.468700 0.082760 -0.610964
O27   O     O_R   0.468700 0.000000 0.082760 -0.610965
O28   O     O_R   0.000000 0.531300 0.082760 -0.610964
O29   O     O_R   0.468700 1.000000 0.917240 -0.610962
O30   O     O_R   0.000000 0.468700 0.917240 -0.610963
O31   O     O_R   0.531300 1.000000 0.917240 -0.610965
O32   O     O_R   0.000000 0.531300 0.917240 -0.610965
O33   O     O_R   0.944690 0.999980 0.546690 -0.617621
O34   O     O_R   0.999980 0.055310 0.546690 -0.617621
O35   O     O_R   0.055310 0.000020 0.546690 -0.617620
O36   O     O_R   0.000020 0.944690 0.546690 -0.617620
O37   O     O_R   0.055310 0.999980 0.453310 -0.617621
O38   O     O_R   0.000020 0.055310 0.453310 -0.617621
O39   O     O_R   0.944690 0.000020 0.453310 -0.617620
O40   O     O_R   0.999980 0.944690 0.453310 -0.617620
O41   O     O_R   0.444690 0.499980 0.046690 -0.617620
O42   O     O_R   0.499980 0.555310 0.046690 -0.617623
O43   O     O_R   0.555310 0.500020 0.046690 -0.617622
O44   O     O_R   0.500020 0.444690 0.046690 -0.617621
O45   O     O_R   0.555310 0.499980 0.953310 -0.617621
O46   O     O_R   0.500020 0.555310 0.953310 -0.617622
O47   O     O_R   0.444690 0.500020 0.953310 -0.617621
O48   O     O_R   0.499980 0.444690 0.953310 -0.617620
Zn1   Zn    Zn3+2 0.041800 0.500000 0.500000 0.980800
Zn2   Zn    Zn3+2 0.500000 0.958200 0.500000 0.980800
Zn3   Zn    Zn3+2 0.958200 0.500000 0.500000 0.980800
Zn4   Zn    Zn3+2 0.500000 0.041800 0.500000 0.980800
Zn5   Zn    Zn3+2 0.541800 0.000000 0.000000 0.980800
Zn6   Zn    Zn3+2 0.000000 0.458200 0.000000 0.980801
Zn7   Zn    Zn3+2 0.458200 0.000000 0.000000 0.980801
Zn8   Zn    Zn3+2 0.000000 0.541800 0.000000 0.980800
Zn9   Zn    Zn3+2 1.000000 0.000000 0.562390 1.008919
Zn10  Zn    Zn3+2 0.000000 0.000000 0.437610 1.008919
Zn11  Zn    Zn3+2 0.500000 0.500000 0.062390 1.008917
Zn12  Zn    Zn3+2 0.500000 0.500000 0.937610 1.008917
C153  C     C_2   0.007482 0.192802 0.391887 0.913599
O49   O     O_2   0.997537 0.176871 0.348329 -0.610566
O50   O     O_R   0.023530 0.228607 0.388339 -0.819196
H33   H     H_    0.024859 0.238340 0.347896 0.352929
C154  C     C_2   0.192802 0.992520 0.391887 0.913600
O51   O     O_2   0.176871 0.002466 0.348329 -0.610566
O52   O     O_R   0.228607 0.976473 0.388337 -0.819196
H34   H     H_    0.238340 0.975146 0.347895 0.352930
C155  C     C_2   0.992524 0.807197 0.391886 0.913600
O53   O     O_2   0.002471 0.823128 0.348329 -0.610566
O54   O     O_R   0.976476 0.771393 0.388336 -0.819195
H35   H     H_    0.975150 0.761660 0.347893 0.352929
C156  C     C_2   0.807197 0.007472 0.391886 0.913599
O55   O     O_2   0.823129 0.997523 0.348330 -0.610566
O56   O     O_R   0.771393 0.023519 0.388334 -0.819198
H36   H     H_    0.761660 0.024844 0.347891 0.352929
C157  C     C_2   0.992518 0.192802 0.608113 0.913600
O57   O     O_2   0.002462 0.176871 0.651671 -0.610565
O58   O     O_R   0.976470 0.228607 0.611661 -0.819197
H37   H     H_    0.975142 0.238340 0.652103 0.352929
C158  C     C_2   0.807197 0.992528 0.608114 0.913600
O59   O     O_2   0.823128 0.002477 0.651670 -0.610566
O60   O     O_R   0.771393 0.976480 0.611666 -0.819198
H38   H     H_    0.761660 0.975156 0.652109 0.352928
C159  C     C_2   0.007476 0.807197 0.608114 0.913597
O61   O     O_2   0.997529 0.823128 0.651671 -0.610567
O62   O     O_R   0.023523 0.771393 0.611664 -0.819195
H39   H     H_    0.024849 0.761660 0.652107 0.352929
C160  C     C_2   0.192803 0.007480 0.608113 0.913600
O63   O     O_2   0.176871 0.997534 0.651670 -0.610567
O64   O     O_R   0.228606 0.023527 0.611662 -0.819196
H40   H     H_    0.238340 0.024855 0.652104 0.352929
C161  C     C_2   0.507449 0.692803 0.891882 0.913596
O65   O     O_2   0.497490 0.676872 0.848331 -0.610567
O66   O     O_R   0.523497 0.728606 0.888322 -0.819187
H41   H     H_    0.524812 0.738340 0.847879 0.352929
C162  C     C_2   0.692802 0.492530 0.891885 0.913598
O67   O     O_2   0.676871 0.502480 0.848330 -0.610568
O68   O     O_R   0.728607 0.476483 0.888332 -0.819192
H42   H     H_    0.738340 0.475160 0.847890 0.352930
C163  C     C_2   0.492518 0.307197 0.891887 0.913598
O69   O     O_2   0.502463 0.323128 0.848329 -0.610566
O70   O     O_R   0.476469 0.271394 0.888339 -0.819193
H43   H     H_    0.475140 0.261661 0.847897 0.352929
C164  C     C_2   0.307197 0.507473 0.891886 0.913600
O71   O     O_2   0.323128 0.497524 0.848329 -0.610565
O72   O     O_R   0.271393 0.523521 0.888334 -0.819195
H44   H     H_    0.261660 0.524845 0.847892 0.352929
C165  C     C_2   0.492551 0.692803 0.108118 0.913595
O73   O     O_2   0.502510 0.676872 0.151669 -0.610566
O74   O     O_R   0.476503 0.728606 0.111678 -0.819187
H45   H     H_    0.475188 0.738340 0.152121 0.352929
C166  C     C_2   0.307197 0.492527 0.108114 0.913600
O75   O     O_2   0.323128 0.502475 0.151671 -0.610568
O76   O     O_R   0.271393 0.476480 0.111666 -0.819196
H46   H     H_    0.261660 0.475155 0.152109 0.352928
C167  C     C_2   0.507482 0.307197 0.108113 0.913598
O77   O     O_2   0.497538 0.323128 0.151671 -0.610565
O78   O     O_R   0.523530 0.271393 0.111661 -0.819194
H47   H     H_    0.524859 0.261660 0.152104 0.352929
C168  C     C_2   0.692802 0.507470 0.108115 0.913600
O79   O     O_2   0.676871 0.497520 0.151670 -0.610566
O80   O     O_R   0.728607 0.523517 0.111667 -0.819191
H48   H     H_    0.738340 0.524841 0.152110 0.352930
C169  C     C_3   0.928747 0.305916 0.508944 -0.863737
H49   H     H_    0.904591 0.325598 0.511896 0.238008
H50   H     H_    0.924592 0.287889 0.470941 0.246391
H51   H     H_    0.928792 0.288017 0.547600 0.268879
C170  C     C_3   0.305916 0.071253 0.508942 -0.863742
H52   H     H_    0.325598 0.095409 0.511894 0.238009
H53   H     H_    0.287889 0.075408 0.470939 0.246392
H54   H     H_    0.288017 0.071208 0.547599 0.268877
C171  C     C_3   0.071252 0.694084 0.508948 -0.863737
H55   H     H_    0.095409 0.674402 0.511902 0.238008
H56   H     H_    0.075409 0.712112 0.470946 0.246391
H57   H     H_    0.071207 0.711983 0.547605 0.268877
C172  C     C_3   0.694084 0.928748 0.508967 -0.863737
H58   H     H_    0.674402 0.904593 0.511927 0.238008
H59   H     H_    0.712111 0.924588 0.470966 0.246392
H60   H     H_    0.711983 0.928799 0.547624 0.268882
C173  C     C_3   0.071253 0.305916 0.491056 -0.863738
H61   H     H_    0.095409 0.325598 0.488103 0.238008
H62   H     H_    0.075408 0.287888 0.529059 0.246392
H63   H     H_    0.071208 0.288017 0.452399 0.268879
C174  C     C_3   0.694084 0.071251 0.491033 -0.863736
H64   H     H_    0.674402 0.095407 0.488073 0.238007
H65   H     H_    0.712111 0.075412 0.529034 0.246391
H66   H     H_    0.711983 0.071201 0.452376 0.268882
C175  C     C_3   0.928747 0.694084 0.491052 -0.863737
H67   H     H_    0.904591 0.674402 0.488098 0.238008
H68   H     H_    0.924591 0.712111 0.529054 0.246392
H69   H     H_    0.928793 0.711983 0.452395 0.268877
C176  C     C_3   0.305916 0.928747 0.491057 -0.863741
H70   H     H_    0.325598 0.904591 0.488105 0.238009
H71   H     H_    0.287889 0.924592 0.529061 0.246392
H72   H     H_    0.288017 0.928792 0.452401 0.268877
C177  C     C_3   0.428748 0.805916 0.008966 -0.863743
H73   H     H_    0.404593 0.825598 0.011927 0.238010
H74   H     H_    0.424588 0.787889 0.970965 0.246392
H75   H     H_    0.428799 0.788017 0.047623 0.268869
C178  C     C_3   0.805916 0.571253 0.008943 -0.863744
H76   H     H_    0.825598 0.595409 0.011896 0.238009
H77   H     H_    0.787889 0.575408 0.970941 0.246393
H78   H     H_    0.788017 0.571208 0.047600 0.268873
C179  C     C_3   0.571253 0.194084 0.008934 -0.863737
H79   H     H_    0.595410 0.174402 0.011883 0.238008
H80   H     H_    0.575407 0.212112 0.970930 0.246392
H81   H     H_    0.571211 0.211983 0.047591 0.268875
C180  C     C_3   0.194084 0.428748 0.008958 -0.863738
H82   H     H_    0.174402 0.404592 0.011916 0.238008
H83   H     H_    0.212111 0.424589 0.970956 0.246392
H84   H     H_    0.211983 0.428796 0.047615 0.268879
C181  C     C_3   0.571252 0.805916 0.991034 -0.863742
H85   H     H_    0.595407 0.825598 0.988073 0.238010
H86   H     H_    0.575412 0.787889 0.029035 0.246393
H87   H     H_    0.571201 0.788017 0.952377 0.268869
C182  C     C_3   0.194084 0.571252 0.991042 -0.863737
H88   H     H_    0.174402 0.595408 0.988085 0.238007
H89   H     H_    0.212111 0.575411 0.029044 0.246391
H90   H     H_    0.211983 0.571204 0.952385 0.268880
C183  C     C_3   0.428746 0.194084 0.991066 -0.863736
H91   H     H_    0.404590 0.174402 0.988117 0.238008
H92   H     H_    0.424593 0.212111 0.029070 0.246391
H93   H     H_    0.428789 0.211983 0.952409 0.268875
C184  C     C_3   0.805916 0.428747 0.991056 -0.863745
H94   H     H_    0.825598 0.404591 0.988104 0.238010
H95   H     H_    0.787889 0.424592 0.029059 0.246392
H96   H     H_    0.788017 0.428792 0.952400 0.268872

loop_
_geom_bond_atom_site_label_1
_geom_bond_atom_site_label_2
_ccdc_geom_bond_type
O1    Zn1   S    
C181  H85   S    
C166  O76   S    
C18   C170  S    
O72   H44   S    
C7    C55   S    
C66   O38   A    
C8    C56   S    
C15   C151  T    
C176  H70   S    
O38   Zn10  S    
C90   C95   S    
C80   O32   A    
C167  O77   D    
C98   C138  A    
O26   Zn6   S    
C68   O36   A    
C2    O8    A    
C30   C182  S    
C22   C60   A    
C98   C114  A    
O62   H39   S    
C22   C38   A    
C17   C169  S    
O34   Zn9   S    
C75   O23   A    
C18   C58   A    
O24   Zn4   S    
C184  H96   S    
C143  C151  S    
C126  C136  A    
C153  O49   D    
C80   C88   S    
C114  C130  A    
C76   C84   S    
C108  C124  A    
C73   C81   S    
C180  H83   S    
C76   O22   A    
C106  C142  A    
C182  H90   S    
C154  O52   S    
O21   Zn3   S    
C47   H31   S    
C25   C41   A    
C48   H32   S    
C101  C137  A    
C111  C167  S    
C73   O17   A    
C28   C44   A    
O35   Zn9   S    
C29   C45   A    
C171  H57   S    
C31   C63   A    
O18   Zn2   S    
C123  H11   S    
O78   H47   S    
C121  H9    S    
C127  H15   S    
C178  H78   S    
C79   C87   S    
C181  H87   S    
C159  O62   S    
C35   C51   A    
C118  H6    S    
O7    Zn1   S    
C107  C143  A    
C78   O28   A    
C108  C144  A    
C176  H72   S    
C157  O58   S    
C175  H69   S    
C100  C156  S    
O4    Zn4   S    
C70   O42   A    
C127  C135  A    
C3    O3    A    
C98   C154  S    
C80   O30   A    
C1    O1    A    
C32   C184  S    
C83   C91   T    
O36   Zn9   S    
C4    O4    A    
C89   C96   S    
C32   C62   A    
C163  O70   S    
C19   C35   A    
C183  H91   S    
C91   C94   S    
C97   C153  S    
O13   Zn7   S    
C109  C165  S    
C42   H26   S    
C105  C141  A    
C116  H4    S    
O46   Zn12  S    
C20   C172  S    
C119  H7    S    
C172  H58   S    
C120  H8    S    
C114  H2    S    
C76   O24   A    
C39   C51   A    
C179  H79   S    
C75   O21   A    
C8    O14   A    
C75   C83   S    
C2    O2    A    
C31   C183  S    
C29   C181  S    
C23   C59   A    
C73   O19   A    
C154  O51   D    
C41   H25   S    
O30   Zn6   S    
O25   Zn5   S    
C3    O7    A    
C157  O57   D    
C170  H53   S    
C14   C62   S    
C156  O55   D    
C173  H62   S    
C122  C134  A    
C2    C50   S    
C85   C93   T    
C168  O80   S    
C87   C95   T    
C119  C131  A    
O31   Zn5   S    
C117  C129  A    
C78   O26   A    
C36   C52   A    
C111  C143  A    
C77   C85   S    
C161  O65   D    
C174  H65   S    
C99   C139  A    
C68   O40   A    
C97   C137  A    
C177  H74   S    
C29   C61   A    
C36   H20   S    
O32   Zn8   S    
C4    O6    A    
C39   H23   S    
C183  H93   S    
C40   H24   S    
O45   Zn12  S    
C72   C135  S    
C5    O13   A    
C19   C59   A    
C123  C135  A    
C125  H13   S    
C165  O73   D    
C128  C134  A    
C116  C132  A    
C172  H60   S    
C106  C122  A    
C164  O71   D    
C71   O45   A    
O10   Zn6   S    
C158  O60   S    
C41   C53   A    
C10   C146  T    
C43   C55   A    
C110  C126  A    
C179  H81   S    
C178  H77   S    
C65   C132  S    
O23   Zn1   S    
C72   O48   A    
C30   C46   A    
O60   H38   S    
C162  O68   S    
C122  H10   S    
O22   Zn2   S    
C46   H30   S    
C67   O35   A    
O47   Zn12  S    
C144  C152  S    
C74   O20   A    
C138  C146  S    
C160  O64   S    
O5    Zn3   S    
C118  C132  A    
C46   C56   A    
O68   H42   S    
C109  C141  A    
C84   C92   T    
C124  H12   S    
O56   H36   S    
C184  H95   S    
C1    O5    A    
C88   C96   T    
C30   C64   A    
C35   H19   S    
O64   H40   S    
C100  C116  A    
C107  C123  A    
C33   H17   S    
C44   H28   S    
C71   C134  S    
C180  H82   S    
C45   H29   S    
O52   H34   S    
C182  H89   S    
C43   H27   S    
C175  H67   S    
C103  C159  S    
C137  C145  S    
C107  C163  S    
C6    C54   S    
C69   O47   A    
C99   C115  A    
C27   C179  S    
C33   C49   A    
C174  H64   S    
C171  H56   S    
O14   Zn6   S    
C112  C168  S    
C102  C158  S    
O66   H41   S    
C20   C60   A    
C66   C129  S    
C81   C89   T    
C175  H68   S    
C181  H86   S    
C31   C47   A    
C159  O61   D    
C32   C48   A    
C140  C148  S    
C17   C33   A    
C19   C171  S    
C11   C59   S    
O15   Zn5   S    
C176  H71   S    
C6    O10   A    
O8    Zn4   S    
C167  O78   S    
C124  C136  A    
O80   H48   S    
O74   H45   S    
C3    C51   S    
C74   O18   A    
C22   C174  S    
C177  H73   S    
C28   C180  S    
O76   H46   S    
O16   Zn8   S    
O19   Zn3   S    
C163  O69   D    
C37   C49   A    
C44   C56   A    
O17   Zn1   S    
O70   H43   S    
C14   C150  T    
C16   C152  T    
C25   C61   A    
C110  C144  A    
O28   Zn8   S    
C27   C63   A    
C28   C64   A    
C69   C136  S    
C153  O50   S    
C67   C130  S    
C7    O11   A    
C65   O39   A    
C180  H84   S    
C5    O9    A    
O11   Zn7   S    
C10   C58   S    
O48   Zn12  S    
C126  H14   S    
C69   O41   A    
O41   Zn11  S    
C82   C90   T    
C101  C117  A    
C142  C150  S    
C66   O34   A    
C42   C54   A    
C6    O16   A    
O40   Zn10  S    
C170  H52   S    
C155  O53   D    
O44   Zn11  S    
C40   C50   A    
C9    C145  T    
C92   C93   S    
C8    O12   A    
C26   C42   A    
C173  H61   S    
O33   Zn9   S    
C112  C128  A    
C38   H22   S    
C20   C36   A    
C27   C43   A    
C21   C37   A    
C24   C58   A    
C168  O79   D    
C72   O44   A    
C104  C160  S    
C17   C57   A    
C104  C120  A    
C24   C176  S    
C101  C157  S    
C68   C131  S    
C105  C161  S    
C166  O75   D    
C65   O33   A    
C25   C177  S    
C141  C149  S    
C115  C131  A    
C169  H49   S    
C23   C175  S    
C48   C54   A    
C139  C147  S    
C113  C129  A    
C4    C52   S    
C120  C130  A    
C5    C53   S    
C169  H51   S    
C183  H92   S    
O43   Zn11  S    
O42   Zn11  S    
C38   C52   A    
O39   Zn10  S    
C110  C166  S    
C67   O37   A    
C112  C142  A    
O20   Zn4   S    
C86   C94   T    
C24   C40   A    
C172  H59   S    
C70   C133  S    
O6    Zn2   S    
C100  C140  A    
C158  O59   D    
C102  C118  A    
C77   O25   A    
C78   C86   S    
C79   O31   A    
C179  H80   S    
O37   Zn10  S    
C34   C50   A    
C117  H5    S    
C99   C155  S    
C155  O54   S    
C170  H54   S    
C102  C140  A    
C162  O67   D    
C37   H21   S    
C11   C147  T    
C156  O56   S    
C173  H63   S    
C70   O46   A    
C21   C57   A    
C103  C139  A    
C108  C164  S    
C26   C178  S    
C160  O63   D    
C105  C121  A    
C18   C34   A    
O9    Zn5   S    
C109  C125  A    
C161  O66   S    
C111  C127  A    
C174  H66   S    
O27   Zn7   S    
C97   C113  A    
O54   H35   S    
C47   C55   A    
C184  H94   S    
C74   C82   S    
C177  H75   S    
C125  C133  A    
C115  H3    S    
C71   O43   A    
C103  C119  A    
C113  H1    S    
O29   Zn7   S    
C34   H18   S    
O50   H33   S    
C182  H88   S    
C106  C162  S    
C121  C133  A    
C12   C148  T    
O58   H37   S    
C26   C62   A    
C13   C149  T    
C165  O74   S    
C169  H50   S    
C23   C39   A    
C164  O72   S    
C104  C138  A    
C9    C57   S    
C7    O15   A    
C171  H55   S    
C77   O27   A    
C45   C53   A    
C12   C60   S    
C79   O29   A    
C13   C61   S    
O12   Zn8   S    
C128  H16   S    
C15   C63   S    
C16   C64   S    
O2    Zn2   S    
C178  H76   S    
C1    C49   S    
O3    Zn3   S    
C21   C173  S    
