data_mof_unit_51132.cif
_audit_creation_date              2012-10-26T21:13:37-0400
_audit_creation_method            fapswitch 2.2
_symmetry_space_group_name_H-M    P1
_symmetry_Int_Tables_number       1
_space_group_crystal_system       triclinic
_cell_length_a                    9.077645
_cell_length_b                    10.823371
_cell_length_c                    9.549354
_cell_angle_alpha                 90.045485
_cell_angle_beta                  89.988439
_cell_angle_gamma                 90.145572
_cell_volume                      938.227560008

loop_
_atom_site_label
_atom_site_type_symbol
_atom_type_description
_atom_site_fract_x
_atom_site_fract_y
_atom_site_fract_z
_atom_type_partial_charge
C1    C     C_R   0.497191 0.262329 0.499914 0.544230
C2    C     C_R   0.570981 0.591316 0.926349 0.108055
C3    C     C_3   0.731335 0.621453 0.920593 -0.225674
C4    C     C_R   0.220676 0.499987 0.499987 0.553031
C5    C     C_3   0.730662 0.622067 0.079457 0.233511
C6    C     C_R   0.497673 0.737696 0.499961 0.560605
C7    C     C_R   0.779307 0.500128 0.500016 0.563559
C8    C     C_1   0.065532 0.500091 0.500003 -0.050556
C9    C     C_1   0.934431 0.500148 0.500009 -0.051172
C10   C     C_R   0.481611 0.063714 0.625431 0.014301
C11   C     C_R   0.482566 0.129218 0.499623 0.008392
C12   C     C_R   0.463521 0.935428 0.373384 -0.128703
C13   C     C_R   0.463071 0.064252 0.373357 -0.151501
C14   C     C_R   0.483423 0.870805 0.499682 0.013994
C15   C     C_R   0.482265 0.936543 0.625443 0.015922
C16   C     C_3   0.585585 0.930818 0.746983 -0.255082
C17   C     C_3   0.584321 0.071078 0.747348 -0.257136
C18   C     C_R   0.570562 0.591565 0.073750 0.208946
C19   C     C_R   0.419027 0.416600 0.074346 -0.022385
C20   C     C_R   0.418985 0.416611 0.925494 -0.011754
Cu1   Cu    Cu3+1 0.499990 0.499980 0.640670 0.943452
Cu2   Cu    Cu3+1 0.500010 0.500020 0.359330 0.980964
F1    F     F_    0.754336 0.738808 0.134421 -0.631078
H1    H     H_    0.454638 0.112270 0.274215 0.133679
H2    H     H_    0.355667 0.347581 0.869684 0.121109
H3    H     H_    0.798451 0.545135 0.876184 0.113438
H4    H     H_    0.752645 0.713680 0.873843 0.155127
H5    H     H_    0.799869 0.548820 0.127240 0.133395
H6    H     H_    0.455349 0.887198 0.274242 0.165346
H7    H     H_    0.533023 0.889730 0.841303 0.156704
H8    H     H_    0.694448 0.891266 0.718328 0.141076
H9    H     H_    0.530375 0.110965 0.841578 0.138061
H10   H     H_    0.692534 0.112864 0.719668 0.146094
H11   H     H_    0.355736 0.347562 0.130068 0.119584
N1    N     N_R   0.500920 0.500930 0.147930 -0.262004
N2    N     N_R   0.500930 0.500890 0.852020 -0.240099
O1    O     O_R   0.500000 0.319640 0.618810 -0.507591
O2    O     O_R   0.500020 0.319680 0.381230 -0.517318
O3    O     O_R   0.288380 0.499980 0.618770 -0.496744
O4    O     O_R   0.288400 0.500020 0.381190 -0.496335
O5    O     O_R   0.499980 0.680320 0.618770 -0.501764
O6    O     O_R   0.500000 0.680360 0.381190 -0.471807
O7    O     O_R   0.711600 0.499980 0.618810 -0.506287
O8    O     O_R   0.711620 0.500020 0.381230 -0.487581

loop_
_geom_bond_atom_site_label_1
_geom_bond_atom_site_label_2
_ccdc_geom_bond_type
C7    O7    A    
C12   H6    S    
C2    C18   A    
C5    H5    S    
C18   N1    A    
C5    F1    S    
C19   C20   A    
Cu1   O3    S    
C4    O3    A    
C1    O1    A    
C4    C8    S    
Cu2   O4    S    
C3    H4    S    
C2    C3    S    
Cu1   N2    S    
C19   N1    A    
C7    O8    A    
C16   H8    S    
Cu2   N1    S    
C11   C13   A    
Cu2   O6    S    
C17   H10   S    
C1    O2    A    
Cu1   O5    S    
Cu1   Cu2   S    
C12   C14   A    
C10   C15   A    
C6    O6    A    
C6    C14   S    
C20   H2    S    
C10   C17   S    
C16   H7    S    
C15   C16   S    
Cu2   O2    S    
Cu1   O1    S    
C12   C13   A    
C10   C11   A    
C2    N2    A    
C7    C9    S    
C17   H9    S    
C14   C15   A    
C8    C9    T    
C20   N2    A    
C5    C18   S    
Cu1   O7    S    
C6    O5    A    
C3    H3    S    
Cu2   O8    S    
C4    O4    A    
C13   H1    S    
C16   C17   S    
C3    C5    S    
C19   H11   S    
C1    C11   S    
