data_mof_unit_10335.cif
_audit_creation_date              2012-12-11T16:19:50-0500
_audit_creation_method            fapswitch 2.2
_symmetry_space_group_name_H-M    P1
_symmetry_Int_Tables_number       1
_space_group_crystal_system       triclinic
_cell_length_a                    13.625866
_cell_length_b                    14.072015
_cell_length_c                    29.950946
_cell_angle_alpha                 97.022587
_cell_angle_beta                  90.368783
_cell_angle_gamma                 118.824263
_cell_volume                      4979.48448905

loop_
_atom_site_label
_atom_site_type_symbol
_atom_type_description
_atom_site_fract_x
_atom_site_fract_y
_atom_site_fract_z
_atom_type_partial_charge
C1    C     C_R   0.718485 0.097277 0.569366 0.530434
C2    C     C_R   0.368539 0.674219 0.676964 -0.025799
C3    C     C_R   0.321430 0.594930 0.637936 0.305553
C4    C     C_R   0.323883 0.630173 0.595530 0.277354
C5    C     C_R   0.247024 0.623548 0.824335 0.267968
C6    C     C_R   0.233220 0.624018 0.870927 -0.024375
C7    C     C_R   0.415367 0.636712 0.883493 -0.046655
C8    C     C_R   0.433868 0.647816 0.837986 -0.155529
C9    C     C_R   0.346673 0.631826 0.808008 0.038631
C10   C     C_1   0.361670 0.635685 0.760786 0.038270
C11   C     C_1   0.366908 0.647035 0.721627 0.004693
C12   C     C_R   0.383152 0.787022 0.550508 0.570281
C13   C     C_R   0.308863 0.611765 0.899209 -0.040035
C14   C     C_3   0.359979 0.069263 0.723999 0.172589
C15   C     C_3   0.224272 0.150484 0.712813 0.168896
C16   C     C_3   0.208920 0.150563 0.765090 0.280827
C17   C     C_1   0.302511 0.200661 0.878803 -0.035463
C18   C     C_3   0.340037 0.157123 0.702307 0.003885
C19   C     C_3   0.343749 0.072860 0.775625 0.167350
C20   C     C_3   0.321898 0.170538 0.790583 -0.015646
C21   C     C_3   0.427763 0.276267 0.778347 0.146176
C22   C     C_3   0.433864 0.275638 0.725522 0.448811
C23   C     C_R   0.398661 0.117696 0.569582 0.539590
C24   C     C_1   0.315100 0.184649 0.839602 -0.036458
C25   C     C_1   0.352143 0.143604 0.653525 0.011927
C26   C     C_1   0.368740 0.132974 0.614339 -0.017758
C27   C     C_3   0.671242 0.098402 0.726698 -0.208715
C28   C     C_3   0.861563 0.265283 0.726858 0.161884
C29   C     C_3   0.859371 0.273403 0.779161 0.140055
C30   C     C_1   0.875362 0.192547 0.882440 -0.014178
C31   C     C_3   0.787922 0.142887 0.705530 -0.003183
C32   C     C_3   0.682205 0.096932 0.778763 0.120687
C33   C     C_3   0.809282 0.156747 0.794660 0.020491
C34   C     C_R   0.721763 0.096527 0.443137 0.547474
C35   C     C_3   0.865096 0.090513 0.770996 -0.052879
C36   C     C_3   0.852173 0.082127 0.718726 0.138738
C37   C     C_1   0.833799 0.171274 0.844216 -0.010655
C38   C     C_1   0.774881 0.134923 0.656197 -0.005800
C39   C     C_1   0.756696 0.122937 0.615994 -0.007359
C40   C     C_3   0.386579 0.799222 0.269672 0.513475
C41   C     C_3   0.230617 0.595411 0.270407 -0.084516
C42   C     C_3   0.229861 0.567070 0.217740 -0.178494
C43   C     C_1   0.310105 0.607036 0.110351 0.028137
C44   C     C_3   0.354541 0.687098 0.289341 0.051971
C45   C     C_R   0.382224 0.784617 0.425110 0.542126
C46   C     C_3   0.355997 0.770217 0.216951 0.189855
C47   C     C_3   0.341211 0.654362 0.200061 -0.083488
C48   C     C_3   0.445937 0.650508 0.220007 -0.060768
C49   C     C_3   0.442062 0.647130 0.272802 0.483724
C50   C     C_1   0.329682 0.634465 0.150336 -0.003701
C51   C     C_1   0.359357 0.708535 0.339108 0.005695
C52   C     C_1   0.366229 0.735839 0.379150 -0.009222
C53   C     C_R   0.355042 0.142177 0.403636 -0.019655
C54   C     C_R   0.428006 0.236301 0.385028 -0.154304
C55   C     C_R   0.403274 0.249424 0.342050 -0.192209
C56   C     C_R   0.396012 0.116135 0.443526 0.541322
C57   C     C_R   0.304842 0.169809 0.317227 0.057615
C58   C     C_R   0.224572 0.080042 0.336575 0.281394
C59   C     C_R   0.250318 0.068016 0.380732 -0.127661
C60   C     C_R   0.212248 0.108266 0.153785 -0.124182
C61   C     C_R   0.211301 0.123704 0.108936 -0.170709
C62   C     C_R   0.409338 0.260328 0.119152 0.292107
C63   C     C_R   0.409000 0.244775 0.164660 -0.076131
C64   C     C_R   0.309272 0.172685 0.182122 -0.008883
C65   C     C_1   0.303457 0.170735 0.229610 -0.006962
C66   C     C_1   0.299924 0.170256 0.269568 0.027454
C67   C     C_R   0.370733 0.743036 0.593036 -0.009415
C68   C     C_R   0.307246 0.205419 0.091906 0.024841
C69   C     C_R   0.786359 0.137105 0.403420 -0.046429
C70   C     C_R   0.810996 0.066347 0.373544 0.228949
C71   C     C_R   0.833117 0.087780 0.329139 -0.146364
C72   C     C_R   0.834268 0.178817 0.315041 -0.006125
C73   C     C_R   0.824388 0.256544 0.345738 0.270701
C74   C     C_R   0.807374 0.239018 0.390853 -0.066486
C75   C     C_R   0.883006 0.300531 0.167477 0.285489
C76   C     C_R   0.915203 0.312013 0.123410 0.265357
C77   C     C_R   0.827022 0.112344 0.104542 -0.096379
C78   C     C_R   0.413433 0.819360 0.632217 -0.172668
C79   C     C_R   0.798714 0.101774 0.149444 -0.080321
C80   C     C_R   0.833589 0.196407 0.181120 -0.041626
C81   C     C_1   0.832440 0.189624 0.228392 0.046101
C82   C     C_1   0.834568 0.185734 0.268002 0.058905
C83   C     C_R   0.893959 0.218005 0.092313 -0.054368
C84   C     C_R   0.284843 0.232794 0.923330 0.536050
C85   C     C_R   0.268280 0.551127 0.938933 0.541768
C86   C     C_R   0.941793 0.220340 0.924422 0.538561
C87   C     C_R   0.291437 0.242585 0.049622 0.555845
C88   C     C_R   0.275125 0.558223 0.064618 0.553246
C89   C     C_R   0.412118 0.785084 0.673683 -0.186713
C90   C     C_R   0.953725 0.232936 0.050292 0.564385
Cr1   Cr    Cr6+3 0.583400 0.162540 0.509180 1.045587
Cr2   Cr    Cr6+3 0.584070 0.916690 0.495550 1.058020
Cr3   Cr    Cr6+3 0.332550 0.920810 0.495240 1.022926
Cr4   Cr    Cr6+3 0.086700 0.177000 0.983690 1.041891
Cr5   Cr    Cr6+3 0.336880 0.419130 0.994740 1.087781
Cr6   Cr    Cr6+3 0.084850 0.422220 0.995960 1.039745
H1    H     H_    0.227569 0.226295 0.703472 0.119510
H2    H     H_    0.503170 0.272319 0.790835 0.061197
H3    H     H_    0.451821 0.102175 0.722943 0.126026
H4    H     H_    0.425759 0.092164 0.792688 0.030708
H5    H     H_    0.644204 0.144643 0.796515 0.073409
H6    H     H_    0.636980 0.153779 0.721293 0.158212
H7    H     H_    0.950505 0.292930 0.718485 0.122665
H8    H     H_    0.800825 0.306517 0.788199 0.117718
H9    H     H_    0.939333 0.133128 0.709638 0.121874
H10   H     H_    0.607710 0.017533 0.709154 0.119312
H11   H     H_    0.955899 0.137363 0.781735 0.110352
H12   H     H_    0.272929 0.766066 0.210339 0.099997
H13   H     H_    0.158708 0.570448 0.200734 0.153272
H14   H     H_    0.521079 0.727277 0.213891 0.183309
H15   H     H_    0.132055 0.077372 0.088752 0.155242
H16   H     H_    0.135311 0.050740 0.166958 0.141784
H17   H     H_    0.192261 0.998855 0.396447 0.117327
H18   H     H_    0.508500 0.296144 0.402196 0.150789
H19   H     H_    0.449523 0.906321 0.630580 0.151417
H20   H     H_    0.484960 0.293302 0.186766 0.118279
H21   H     H_    0.465391 0.317636 0.326814 0.101626
H22   H     H_    0.514408 0.664318 0.825584 0.142107
H23   H     H_    0.840084 0.028619 0.304499 0.146412
H24   H     H_    0.445349 0.845603 0.703533 0.153151
O1    O     O_R   0.494060 0.188820 0.559230 -0.499392
O2    O     O_R   0.480140 0.824500 0.445020 -0.492850
O3    O     O_R   0.308480 0.808690 0.440220 -0.499483
O4    O     O_R   0.340970 0.020670 0.455610 -0.502113
O5    O     O_3   0.500010 0.000010 0.499990 -0.264077
O6    O     O_R   0.969690 0.151000 0.934080 -0.498797
O7    O     O_R   0.187530 0.180840 0.938210 -0.503268
O8    O     O_R   0.358160 0.327300 0.941250 -0.507222
O9    O     O_R   0.323950 0.507710 0.953980 -0.481267
O10   O     O_R   0.170530 0.527770 0.952070 -0.507117
O11   O     O_R   0.987720 0.318450 0.945940 -0.508256
O12   O     O_R   0.678470 0.153390 0.554100 -0.489497
O13   O     O_R   0.976400 0.159230 0.032040 -0.500849
O14   O     O_R   0.193740 0.188470 0.029020 -0.520329
O15   O     O_R   0.364860 0.335530 0.039220 -0.446785
O16   O     O_R   0.330170 0.515340 0.044800 -0.481148
O17   O     O_R   0.177230 0.536000 0.050040 -0.495625
O18   O     O_R   0.993930 0.326080 0.036750 -0.464031
O19   O     O_3   0.169480 0.339450 0.991460 -0.260492
O20   O     O_R   0.697870 0.003940 0.549410 -0.510766
O21   O     O_R   0.480980 0.827230 0.535590 -0.488585
O22   O     O_R   0.309390 0.811640 0.537920 -0.518598
O23   O     O_R   0.341810 0.023400 0.546180 -0.498538
O24   O     O_R   0.493150 0.185870 0.461540 -0.508197
O25   O     O_R   0.677630 0.150660 0.463530 -0.505784
O26   O     O_R   0.696960 0.000990 0.451710 -0.444245
C91   C     C_1   0.145058 0.642371 0.889508 0.187989
N1    N     N_1   0.074882 0.657635 0.904415 -0.323183
O27   O     O_3   0.320893 0.962615 0.699422 -0.586437
C92   C     C_3   0.204636 0.902325 0.687772 -0.016572
H25   H     H_    0.153294 0.912378 0.714428 0.249588
H26   H     H_    0.180274 0.814097 0.682345 0.100168
H27   H     H_    0.185103 0.921473 0.655132 0.161217
O28   O     O_3   0.132021 0.057256 0.687519 -0.549021
C93   C     C_3   0.090797 0.084069 0.650252 -0.108609
H28   H     H_    0.152683 0.110762 0.624363 0.101734
H29   H     H_    0.067515 0.148623 0.660517 0.097645
H30   H     H_    0.014012 0.009779 0.634433 0.179063
O29   O     O_3   0.114517 0.046451 0.770055 -0.504475
C94   C     C_3   0.075455 0.033583 0.813836 -0.066933
H31   H     H_    0.063475 0.102091 0.830008 0.102465
H32   H     H_    0.128196 0.017658 0.836271 0.145656
H33   H     H_    0.994397 0.957275 0.811014 0.159333
C95   C     C_1   0.185250 0.241651 0.780964 0.217107
N2    N     N_1   0.168192 0.313175 0.793294 -0.236962
O30   O     O_3   0.541748 0.292666 0.712944 -0.607910
C96   C     C_3   0.631146 0.397201 0.731007 -0.082294
H34   H     H_    0.676824 0.389019 0.759807 0.122593
H35   H     H_    0.605775 0.460013 0.741943 0.163854
H36   H     H_    0.690244 0.428995 0.704552 0.159710
O31   O     O_3   0.413556 0.361175 0.714002 -0.543087
C97   C     C_3   0.432257 0.382504 0.668962 -0.080637
H37   H     H_    0.497936 0.366459 0.653865 0.153198
H38   H     H_    0.460512 0.470606 0.668500 0.171891
H39   H     H_    0.352284 0.334846 0.647517 0.143056
O32   O     O_3   0.155449 0.591256 0.794084 -0.566179
C98   C     C_3   0.153665 0.683486 0.781615 -0.132758
H40   H     H_    0.131098 0.725152 0.810220 0.137408
H41   H     H_    0.086932 0.655461 0.754055 0.131382
H42   H     H_    0.233908 0.740294 0.768253 0.135686
O33   O     O_3   0.427619 0.372881 0.799102 -0.518022
C99   C     C_3   0.513700 0.429797 0.834268 -0.094083
H43   H     H_    0.597244 0.471271 0.820550 0.095342
H44   H     H_    0.513579 0.375602 0.858362 0.112681
H45   H     H_    0.499473 0.493159 0.853630 0.165937
O34   O     O_3   0.818954 0.330646 0.711034 -0.580652
C100  C     C_3   0.900660 0.413584 0.688816 -0.140260
H46   H     H_    0.865811 0.464396 0.677848 0.128380
H47   H     H_    0.922893 0.377238 0.658122 0.105638
H48   H     H_    0.976763 0.468321 0.711888 0.148226
O35   O     O_3   0.969106 0.344430 0.799438 -0.551875
C101  C     C_3   0.966909 0.414539 0.836991 -0.044925
H49   H     H_    0.037814 0.434062 0.861162 0.184457
H50   H     H_    0.890203 0.378086 0.855879 0.066167
H51   H     H_    0.973362 0.489447 0.825851 0.180894
O36   O     O_3   0.824089 0.977782 0.693789 -0.554601
C102  C     C_3   0.708486 0.901393 0.687627 -0.082385
H52   H     H_    0.665566 0.893825 0.719211 0.177596
H53   H     H_    0.699362 0.819512 0.675838 0.143943
H54   H     H_    0.666819 0.919652 0.660630 0.122909
C103  C     C_1   0.823498 0.981903 0.785907 0.313357
N3    N     N_1   0.788989 0.896629 0.797485 -0.293962
O37   O     O_3   0.279547 0.484200 0.639667 -0.560959
C104  C     C_3   0.178072 0.441913 0.661280 -0.121989
H55   H     H_    0.129884 0.486108 0.657297 0.076794
H56   H     H_    0.194820 0.442201 0.697613 0.174480
H57   H     H_    0.123593 0.355249 0.646184 0.116176
O38   O     O_3   0.630921 0.987757 0.788440 -0.565223
C105  C     C_3   0.520770 0.952543 0.800495 -0.145909
H58   H     H_    0.468130 0.953716 0.772416 0.140381
H59   H     H_    0.519914 0.002763 0.832035 0.113405
H60   H     H_    0.484445 0.866774 0.807186 0.144929
O39   O     O_3   0.322567 0.847160 0.289455 -0.610634
C106  C     C_3   0.351885 0.950489 0.276283 -0.129126
H61   H     H_    0.427849 0.986106 0.257048 0.171183
H62   H     H_    0.369787 0.009700 0.307162 0.127229
H63   H     H_    0.279872 0.943680 0.255953 0.136802
C107  C     C_1   0.188391 0.496957 0.293717 0.283485
N4    N     N_1   0.154517 0.420130 0.311807 -0.259931
C108  C     C_1   0.147892 0.633735 0.279614 0.239274
N5    N     N_1   0.082103 0.662308 0.286650 -0.300927
C109  C     C_1   0.208063 0.453522 0.202610 0.298613
N6    N     N_1   0.190679 0.365008 0.190741 -0.243101
O40   O     O_3   0.550030 0.720671 0.295898 -0.558418
C110  C     C_3   0.638227 0.702789 0.279899 -0.111544
H64   H     H_    0.680697 0.756482 0.254069 0.139015
H65   H     H_    0.611115 0.616233 0.266078 0.130659
H66   H     H_    0.701448 0.726484 0.308486 0.134745
O41   O     O_3   0.287612 0.554985 0.556598 -0.542960
C111  C     C_3   0.173235 0.520235 0.546118 -0.099744
H67   H     H_    0.159752 0.589947 0.540494 0.122463
H68   H     H_    0.120382 0.476590 0.572815 0.118922
H69   H     H_    0.144762 0.461701 0.514336 0.153338
O42   O     O_3   0.403440 0.536396 0.280605 -0.571489
C112  C     C_3   0.436639 0.525363 0.323798 -0.072583
H70   H     H_    0.455650 0.595011 0.350447 0.148052
H71   H     H_    0.511038 0.513076 0.321597 0.110672
H72   H     H_    0.367790 0.450768 0.334778 0.152947
O43   O     O_3   0.505140 0.873610 0.277370 -0.505042
C113  C     C_3   0.541565 0.932425 0.321645 -0.055073
H73   H     H_    0.590867 0.902694 0.339262 0.202408
H74   H     H_    0.474610 0.928697 0.343355 0.131315
H75   H     H_    0.597309 0.020108 0.318945 0.100854
O44   O     O_3   0.442629 0.850584 0.194426 -0.526666
C114  C     C_3   0.398902 0.891173 0.163338 -0.122743
H76   H     H_    0.358019 0.935684 0.180645 0.091204
H77   H     H_    0.338338 0.824669 0.137326 0.115336
H78   H     H_    0.469373 0.950073 0.145798 0.147925
C115  C     C_1   0.462321 0.561972 0.195556 0.221075
N7    N     N_1   0.475943 0.493411 0.176318 -0.243092
O45   O     O_3   0.124302 0.007343 0.311082 -0.582530
C116  C     C_3   0.084845 0.897678 0.318042 -0.131213
H79   H     H_    0.039263 0.880695 0.349120 0.096751
H80   H     H_    0.153430 0.876672 0.319651 0.185833
H81   H     H_    0.024547 0.842863 0.289264 0.157932
O46   O     O_3   0.505832 0.338307 0.103145 -0.522397
C117  C     C_3   0.577877 0.293706 0.094124 -0.126806
H82   H     H_    0.537202 0.218509 0.068654 0.107170
H83   H     H_    0.606095 0.275810 0.125453 0.086142
H84   H     H_    0.653666 0.354879 0.079850 0.135821
O47   O     O_3   0.983719 0.416863 0.113585 -0.516812
C118  C     C_3   0.916271 0.455887 0.095543 -0.071750
H85   H     H_    0.875061 0.481405 0.122520 0.117710
H86   H     H_    0.852459 0.395006 0.068672 0.080619
H87   H     H_    0.971305 0.529645 0.079954 0.152728
O48   O     O_3   0.917158 0.394062 0.198580 -0.531393
C119  C     C_3   0.822166 0.404381 0.210292 -0.101560
H88   H     H_    0.765476 0.338509 0.229394 0.117208
H89   H     H_    0.773758 0.404023 0.180222 0.082308
H90   H     H_    0.851049 0.483750 0.232321 0.165928
O49   O     O_3   0.831023 0.349297 0.331409 -0.528783
C120  C     C_3   0.720845 0.330969 0.322554 -0.124316
H91   H     H_    0.675790 0.322703 0.353859 0.119386
H92   H     H_    0.671392 0.257305 0.296994 0.090283
H93   H     H_    0.725948 0.402789 0.308803 0.130262
C121  C     C_1   0.809667 0.325608 0.423164 0.258354
N8    N     N_1   0.811634 0.394999 0.448921 -0.297558
O50   O     O_3   0.795789 0.968513 0.385982 -0.540577
C122  C     C_3   0.889780 0.954476 0.376991 -0.097805
H94   H     H_    0.970915 0.031840 0.385908 0.140142
H95   H     H_    0.883823 0.919695 0.341129 0.129440
H96   H     H_    0.889211 0.894366 0.397883 0.134415
C123  C     C_1   0.739664 0.994254 0.163684 0.230174
N9    N     N_1   0.692757 0.908570 0.175080 -0.259601
C124  C     C_1   0.789930 0.014711 0.071708 0.233568
N10   N     N_1   0.760138 0.936699 0.045549 -0.260022
C125  C     C_1   0.507483 0.653590 0.913536 0.210732
N11   N     N_1   0.581372 0.667204 0.937570 -0.277065
O51   O     O_3   0.256490 0.971808 0.786223 -0.527452
C126  C     C_3   0.280709 0.947379 0.828212 -0.140484
H97   H     H_    0.340410 0.019519 0.852396 0.095278
H98   H     H_    0.314624 0.890245 0.822681 0.096755
H99   H     H_    0.201702 0.905417 0.845001 0.132508

loop_
_geom_bond_atom_site_label_1
_geom_bond_atom_site_label_2
_ccdc_geom_bond_type
C44   C49   S    
C84   O8    A    
C15   C18   S    
C48   H14   S    
O31   C97   S    
C21   H2    S    
C114  H76   S    
C86   O6    A    
C126  H99   S    
C3    O37   S    
C41   C42   S    
C14   C18   S    
C35   C36   S    
C61   C68   A    
Cr3   O4    S    
C46   O44   S    
C57   C66   S    
O37   C104  S    
C1    O12   A    
Cr2   O5    S    
C110  H66   S    
C118  H87   S    
C36   O36   S    
C41   C107  S    
C53   C59   A    
C8    H22   S    
C7    C8    A    
C96   H35   S    
O33   C99   S    
C16   C95   S    
C21   O33   S    
C18   C25   S    
C115  N7    T    
O38   C105  S    
C119  H90   S    
C5    C6    A    
C43   C88   S    
C56   O4    A    
Cr6   O10   S    
C28   C29   S    
C42   H13   S    
C15   H1    S    
C117  H82   S    
C40   O43   S    
Cr2   O2    S    
C2    C89   A    
Cr6   O18   S    
O47   C118  S    
C34   O26   A    
C34   O25   A    
C106  H62   S    
C86   O11   A    
C122  H96   S    
C93   H29   S    
C41   C44   S    
C77   C83   A    
C79   C123  S    
C15   C16   S    
C29   C33   S    
O36   C102  S    
C105  H60   S    
O44   C114  S    
C14   O27   S    
C111  H69   S    
C126  H97   S    
C73   C74   A    
C23   C26   S    
C48   C115  S    
C102  H53   S    
C99   H43   S    
Cr5   O16   S    
C100  H48   S    
C33   C35   S    
C46   C47   S    
Cr5   O8    S    
O50   C122  S    
C91   N1    T    
C8    C9    A    
C98   H41   S    
C92   H27   S    
C46   H12   S    
C40   O39   S    
C47   C48   S    
C104  H55   S    
C112  H70   S    
C89   H24   S    
O32   C98   S    
C70   C71   A    
C101  H49   S    
C30   C86   S    
C49   O42   S    
C9    C10   S    
C22   O31   S    
Cr3   O23   S    
C97   H39   S    
C16   C20   S    
C72   C73   A    
C85   O9    A    
C84   O7    A    
Cr4   O6    S    
C36   H9    S    
C18   C22   S    
C21   C22   S    
O40   C110  S    
C93   H30   S    
Cr4   O19   S    
C112  H71   S    
C87   O14   A    
C23   O23   A    
C58   O45   S    
C111  H67   S    
C67   C78   A    
Cr6   O19   S    
C2    C11   S    
C76   C83   A    
Cr5   O15   S    
C108  N5    T    
C90   O18   A    
C97   H38   S    
C81   C82   T    
C47   C50   S    
C57   C58   A    
C77   C79   A    
C78   C89   A    
C110  H65   S    
C12   C67   S    
C93   H28   S    
C17   C24   T    
C27   C31   S    
C51   C52   T    
C101  H51   S    
C20   C24   S    
C124  N10   T    
O45   C116  S    
C7    C125  S    
C79   C80   A    
C88   O16   A    
C78   H19   S    
C105  H58   S    
C73   O49   S    
Cr6   O17   S    
C90   O13   A    
C106  H61   S    
C120  H91   S    
C118  H86   S    
Cr1   O12   S    
C76   O47   S    
C55   H21   S    
C25   C26   T    
C53   C54   A    
Cr2   O26   S    
C15   O28   S    
C113  H75   S    
C33   C37   S    
O35   C101  S    
C29   H8    S    
C60   C61   A    
C117  H83   S    
C99   H45   S    
C94   H32   S    
C102  H54   S    
C40   C46   S    
C75   C76   A    
C94   H33   S    
C5    C9    A    
O41   C111  S    
C60   H16   S    
C28   O34   S    
C85   O10   A    
O29   C94   S    
C104  H57   S    
C7    C13   A    
C59   H17   S    
C98   H42   S    
O46   C117  S    
C62   C63   A    
C113  H74   S    
O51   C126  S    
C69   C74   A    
C45   O3    A    
C55   C57   A    
C121  N8    T    
C111  H68   S    
Cr2   O21   S    
C34   C69   S    
O28   C93   S    
C1    O20   A    
C23   O1    A    
C116  H81   S    
C96   H36   S    
C44   C51   S    
C48   C49   S    
C104  H56   S    
C65   C66   T    
C10   C11   T    
Cr6   O11   S    
C125  N11   T    
Cr1   O1    S    
O30   C96   S    
C112  H72   S    
C92   H26   S    
C32   O38   S    
O42   C112  S    
C63   H20   S    
C3    C4    A    
C61   H15   S    
C96   H34   S    
C41   C108  S    
C97   H37   S    
C87   O15   A    
C116  H80   S    
Cr1   O24   S    
C75   C80   A    
C53   C56   S    
C62   O46   S    
C27   H10   S    
C83   C90   S    
C54   C55   A    
C95   N2    T    
Cr1   O25   S    
Cr1   O5    S    
C99   H44   S    
C110  H64   S    
C27   C32   S    
C31   C36   S    
O43   C113  S    
C14   C19   S    
C28   C31   S    
C35   C103  S    
Cr3   O3    S    
C77   C124  S    
C80   C81   S    
C106  H63   S    
C70   O50   S    
C4    C67   A    
C119  H88   S    
C5    O32   S    
C43   C50   T    
C118  H85   S    
C62   C68   A    
C45   O2    A    
C29   O35   S    
C27   H6    S    
Cr5   O19   S    
C45   C52   S    
C31   C38   S    
C71   H23   S    
C103  N3    T    
C60   C64   A    
C117  H84   S    
C32   C33   S    
C17   C84   S    
C19   C20   S    
C114  H77   S    
C12   O21   A    
C58   C59   A    
C122  H94   S    
C71   C72   A    
C49   O40   S    
O27   C92   S    
C4    O41   S    
C6    C13   A    
C6    C91   S    
C119  H89   S    
C28   H7    S    
C14   H3    S    
C107  N4    T    
C38   C39   T    
Cr4   O13   S    
C102  H52   S    
C120  H93   S    
O39   C106  S    
C54   H18   S    
C64   C65   S    
C74   C121  S    
C113  H73   S    
Cr4   O14   S    
C12   O22   A    
C2    C3    A    
C126  H98   S    
C42   C47   S    
C122  H95   S    
Cr4   O7    S    
C69   C70   A    
C94   H31   S    
Cr3   O5    S    
C88   O17   A    
C100  H47   S    
C35   H11   S    
O48   C119  S    
C1    C39   S    
C63   C64   A    
C56   O24   A    
C40   C44   S    
C20   C21   S    
C30   C37   T    
C120  H92   S    
C98   H40   S    
C19   O51   S    
C114  H78   S    
C13   C85   S    
C123  N9    T    
Cr5   O9    S    
C68   C87   S    
C105  H59   S    
C32   H5    S    
C116  H79   S    
C100  H46   S    
C22   O30   S    
O34   C100  S    
C42   C109  S    
C19   H4    S    
C109  N6    T    
C72   C82   S    
Cr3   O22   S    
O49   C120  S    
C101  H50   S    
C92   H25   S    
C16   O29   S    
C75   O48   S    
Cr2   O20   S    
