data_mof_unit_21565.cif
_audit_creation_date              2012-12-11T15:52:23-0500
_audit_creation_method            fapswitch 2.2
_symmetry_space_group_name_H-M    P1
_symmetry_Int_Tables_number       1
_space_group_crystal_system       triclinic
_cell_length_a                    11.123093
_cell_length_b                    11.140493
_cell_length_c                    18.809221
_cell_angle_alpha                 90.33901
_cell_angle_beta                  89.678112
_cell_angle_gamma                 120.184951
_cell_volume                      2014.69531506

loop_
_atom_site_label
_atom_site_type_symbol
_atom_type_description
_atom_site_fract_x
_atom_site_fract_y
_atom_site_fract_z
_atom_type_partial_charge
C1    C     C_R   0.522528 0.451637 0.144918 0.558870
C2    C     C_3   0.904391 0.679002 0.477338 0.368213
C3    C     C_3   0.764033 0.067531 0.469560 0.359788
C4    C     C_3   0.312732 0.233048 0.472677 0.358729
C5    C     C_R   0.514125 0.458374 0.351008 0.555137
C6    C     C_R   0.541273 0.056551 0.351298 0.554388
C7    C     C_R   0.940352 0.484146 0.352434 0.551235
C8    C     C_R   0.423976 0.543352 0.638689 0.522181
C9    C     C_R   0.073346 0.549109 0.643995 0.516198
C10   C     C_R   0.456556 0.881349 0.638623 0.523786
C11   C     C_R   0.501273 0.005185 0.921125 -0.022339
C12   C     C_R   0.548319 0.070547 0.144980 0.556562
C13   C     C_R   0.994666 0.496299 0.920942 -0.022871
C14   C     C_R   0.503301 0.499363 0.921110 -0.022734
C15   C     C_R   0.958615 0.488768 0.069078 -0.035530
C16   C     C_R   0.529776 0.039296 0.069361 -0.035242
C17   C     C_R   0.510223 0.470435 0.069307 -0.033507
C18   C     C_R   0.386530 0.973286 0.964922 0.044392
C19   C     C_R   0.025994 0.413271 0.964067 0.044999
C20   C     C_R   0.585924 0.613998 0.964913 0.043833
C21   C     C_R   0.006529 0.408280 0.036812 0.056447
C22   C     C_R   0.401018 0.991926 0.037722 0.056161
C23   C     C_R   0.928720 0.477200 0.144829 0.558076
C24   C     C_R   0.590651 0.599393 0.037630 0.057280
C25   C     C_R   0.648317 0.087506 0.024893 0.358669
C26   C     C_R   0.910404 0.558731 0.025164 0.358881
C27   C     C_R   0.440190 0.352201 0.024685 0.359628
C28   C     C_R   0.924835 0.559116 0.951561 0.362316
C29   C     C_R   0.634360 0.074372 0.951284 0.362486
C30   C     C_R   0.440051 0.366424 0.951122 0.363338
C31   C     C_3   0.251036 0.840765 0.972733 -0.227538
C32   C     C_3   0.158524 0.410922 0.971805 -0.227453
C33   C     C_3   0.588021 0.748527 0.973439 -0.229218
C34   C     C_R   0.457744 0.520358 0.852367 0.559010
C35   C     C_3   0.136275 0.404871 0.051538 -0.266028
C36   C     C_3   0.267178 0.862018 0.052495 -0.266687
C37   C     C_3   0.593531 0.732200 0.053094 -0.266742
C38   C     C_R   0.472590 0.929738 0.566597 -0.018274
C39   C     C_R   0.032565 0.520129 0.571304 -0.014110
C40   C     C_R   0.453796 0.525397 0.566214 -0.013491
C41   C     C_R   0.989508 0.511617 0.424628 0.038623
C42   C     C_R   0.511880 0.995677 0.421329 0.039681
C43   C     C_R   0.480836 0.484636 0.421303 0.052813
C44   C     C_R   0.602262 0.028873 0.540528 -0.034233
C45   C     C_R   0.062251 0.542301 0.852263 0.555789
C46   C     C_R   0.935348 0.550010 0.544164 -0.054320
C47   C     C_R   0.433016 0.397855 0.541495 -0.034833
C48   C     C_R   0.918751 0.551387 0.472217 0.045630
C49   C     C_R   0.621378 0.050805 0.469326 0.037941
C50   C     C_R   0.436765 0.377303 0.470163 0.043635
C51   C     C_R   0.380433 0.898042 0.446008 -0.118302
C52   C     C_R   0.087623 0.481325 0.450776 -0.123056
C53   C     C_R   0.502437 0.612125 0.444692 -0.128238
C54   C     C_R   0.109414 0.485635 0.524226 -0.163231
C55   C     C_R   0.360947 0.863641 0.518770 -0.174321
C56   C     C_R   0.479896 0.937832 0.852312 0.559929
C57   C     C_R   0.491712 0.633269 0.517391 -0.165257
C58   C     C_3   0.837388 0.196637 0.590992 -0.178578
C59   C     C_3   0.800385 0.189839 0.669826 -0.347894
C60   C     C_3   0.770012 0.613661 0.598607 -0.175786
C61   C     C_3   0.782394 0.584850 0.676970 -0.349617
C62   C     C_3   0.381547 0.166356 0.591294 -0.177850
C63   C     C_3   0.416402 0.207141 0.669340 -0.354034
C64   C     C_3   0.031050 0.816956 0.452752 -0.174102
C65   C     C_3   0.055283 0.844678 0.373308 -0.400898
C66   C     C_3   0.778571 0.945945 0.438675 -0.180113
C67   C     C_3   0.748908 0.058928 0.551468 0.363621
C68   C     C_3   0.756056 0.914277 0.359156 -0.399655
C69   C     C_3   0.173416 0.215778 0.446180 -0.178736
C70   C     C_3   0.153656 0.225374 0.366498 -0.399094
C71   C     C_3   0.907151 0.665777 0.558634 0.360906
C72   C     C_3   0.323219 0.248836 0.554208 0.362183
Cr1   Cr    Cr6+3 0.769160 0.541570 0.250690 1.058705
Cr2   Cr    Cr6+3 0.458430 0.227590 0.250690 1.064669
Cr3   Cr    Cr6+3 0.772410 0.230840 0.250690 1.065731
Cr4   Cr    Cr6+3 0.541570 0.769160 0.749310 1.069451
Cr5   Cr    Cr6+3 0.227590 0.458430 0.749310 1.071020
Cr6   Cr    Cr6+3 0.230840 0.772410 0.749310 1.078647
F1    F     F_    0.777654 0.140563 0.052360 -0.592985
F2    F     F_    0.779451 0.657307 0.451468 -0.668238
F3    F     F_    0.864325 0.195777 0.444688 -0.663351
F4    F     F_    0.340651 0.133938 0.446145 -0.661075
F5    F     F_    0.856340 0.633758 0.053216 -0.592233
F6    F     F_    0.365271 0.222707 0.052040 -0.592413
F7    F     F_    0.884246 0.633481 0.911486 -0.589525
F8    F     F_    0.749809 0.115416 0.910620 -0.589203
F9    F     F_    0.365835 0.251123 0.910458 -0.588168
F10   F     F_    0.759817 0.950939 0.581103 -0.642338
F11   F     F_    0.014400 0.783383 0.590671 -0.633586
F12   F     F_    0.202239 0.229667 0.586549 -0.642324
H1    H     H_    0.256777 0.748755 0.954447 0.093502
H2    H     H_    0.215990 0.499293 0.079883 0.092189
H3    H     H_    0.281665 0.782159 0.080107 0.092547
H4    H     H_    0.498656 0.716531 0.081426 0.092435
H5    H     H_    0.297440 0.844734 0.408540 0.104919
H6    H     H_    0.149854 0.460705 0.414292 0.103626
H7    H     H_    0.522778 0.691914 0.406924 0.095159
H8    H     H_    0.190498 0.469170 0.544317 0.149726
H9    H     H_    0.262158 0.780965 0.537634 0.146516
H10   H     H_    0.509357 0.731832 0.535376 0.143016
H11   H     H_    0.691604 0.166499 0.676300 0.144697
H12   H     H_    0.250981 0.509285 0.954270 0.093669
H13   H     H_    0.816522 0.111325 0.697495 0.236087
H14   H     H_    0.866617 0.291354 0.695804 0.142105
H15   H     H_    0.948548 0.226868 0.585906 0.226788
H16   H     H_    0.819700 0.276130 0.566077 0.127993
H17   H     H_    0.809980 0.502420 0.681825 0.125388
H18   H     H_    0.861604 0.680812 0.704192 0.235172
H19   H     H_    0.681889 0.547108 0.704759 0.156313
H20   H     H_    0.739226 0.693859 0.594893 0.239246
H21   H     H_    0.690061 0.515726 0.573836 0.119435
H22   H     H_    0.495925 0.318595 0.674032 0.140081
H23   H     H_    0.489666 0.741995 0.955894 0.092929
H24   H     H_    0.321482 0.185268 0.699532 0.235230
H25   H     H_    0.460412 0.147223 0.693474 0.147331
H26   H     H_    0.302426 0.054264 0.588171 0.224317
H27   H     H_    0.477751 0.184327 0.563762 0.130234
H28   H     H_    0.959000 0.818145 0.344702 0.182787
H29   H     H_    0.131040 0.955291 0.365348 0.159755
H30   H     H_    0.104711 0.789076 0.349612 0.143098
H31   H     H_    0.022994 0.901129 0.478330 0.187548
H32   H     H_    0.124900 0.825602 0.475318 0.159686
H33   H     H_    0.647546 0.877651 0.343484 0.135754
H34   H     H_    0.114393 0.304621 0.075173 0.211251
H35   H     H_    0.830184 0.004492 0.326874 0.173695
H36   H     H_    0.770779 0.825716 0.346431 0.157877
H37   H     H_    0.883491 0.968984 0.450172 0.161533
H38   H     H_    0.711794 0.850400 0.467825 0.201194
H39   H     H_    0.213070 0.334312 0.348150 0.135082
H40   H     H_    0.183207 0.160741 0.334575 0.179829
H41   H     H_    0.042948 0.189708 0.355932 0.169242
H42   H     H_    0.092514 0.114865 0.464986 0.172810
H43   H     H_    0.152350 0.290244 0.473381 0.172118
H44   H     H_    0.188589 0.883368 0.076946 0.210456
H45   H     H_    0.693648 0.811330 0.077136 0.210444
H46   H     H_    0.162826 0.849321 0.951202 0.232576
H47   H     H_    0.150072 0.314398 0.949491 0.232348
H48   H     H_    0.684843 0.837198 0.951582 0.231722
O1    O     O_R   0.911480 0.572650 0.170990 -0.468575
O2    O     O_R   0.528970 0.640340 0.824320 -0.499803
O3    O     O_R   0.111370 0.471030 0.824320 -0.500382
O4    O     O_R   0.359660 0.888630 0.824320 -0.496850
O5    O     O_R   0.909980 0.572450 0.331530 -0.526246
O6    O     O_R   0.427550 0.337530 0.331530 -0.518112
O7    O     O_R   0.662470 0.090020 0.331530 -0.512376
O8    O     O_R   0.572450 0.909980 0.668470 -0.462099
O9    O     O_R   0.337530 0.427550 0.668470 -0.450313
O10   O     O_R   0.090020 0.662470 0.668470 -0.444089
O11   O     O_R   0.638950 0.528780 0.324500 -0.455858
O12   O     O_R   0.427350 0.338830 0.170990 -0.470546
O13   O     O_R   0.471220 0.110170 0.324500 -0.448631
O14   O     O_R   0.889830 0.361050 0.324500 -0.449958
O15   O     O_R   0.528780 0.638950 0.675500 -0.515887
O16   O     O_R   0.110170 0.471220 0.675500 -0.522947
O17   O     O_R   0.361050 0.889830 0.675500 -0.506207
O18   O     O_3   0.666667 0.333333 0.250560 -0.281514
O19   O     O_3   0.333333 0.666667 0.749440 -0.332770
O20   O     O_R   0.661170 0.088520 0.170990 -0.470224
O21   O     O_R   0.572650 0.911480 0.829010 -0.464140
O22   O     O_R   0.338830 0.427350 0.829010 -0.462511
O23   O     O_R   0.088520 0.661170 0.829010 -0.463906
O24   O     O_R   0.640340 0.528970 0.175680 -0.478913
O25   O     O_R   0.471030 0.111370 0.175680 -0.480175
O26   O     O_R   0.888630 0.359660 0.175680 -0.478654

loop_
_geom_bond_atom_site_label_1
_geom_bond_atom_site_label_2
_ccdc_geom_bond_type
C44   C49   A    
C40   C47   A    
C66   C68   S    
Cr4   O21   S    
C26   F5    S    
C9    C39   S    
C61   H19   S    
C7    O5    A    
C3    C49   S    
C11   C18   A    
Cr3   O7    S    
C62   H26   S    
C67   F10   S    
C62   C63   S    
C59   H14   S    
C23   O1    A    
C27   F6    S    
C19   C21   A    
C56   O21   A    
Cr6   O4    S    
Cr2   O25   S    
Cr6   O17   S    
C39   C54   A    
C64   H31   S    
C65   H30   S    
Cr4   O15   S    
C70   H40   S    
C5    O11   A    
C66   H37   S    
C63   H22   S    
C61   H18   S    
C45   O23   A    
C62   H27   S    
C63   H24   S    
Cr3   O18   S    
C43   C53   A    
C38   C55   A    
C20   C24   A    
C52   C54   A    
C51   H5    S    
C3    F3    S    
C16   C22   A    
C65   H28   S    
C37   H45   S    
C13   C28   A    
Cr5   O9    S    
C41   C52   A    
Cr6   O10   S    
C42   C51   A    
C63   H25   S    
C35   H2    S    
C15   C23   S    
C5    C43   S    
Cr4   O8    S    
C18   C22   A    
C27   C30   A    
C45   O3    A    
C14   C30   A    
C19   C32   S    
C36   H3    S    
C68   H33   S    
C4    C69   S    
C2    C64   S    
C47   C50   A    
Cr4   O2    S    
C25   C29   A    
C46   C48   A    
Cr4   O19   S    
C17   C24   A    
Cr5   O22   S    
C13   C19   A    
Cr2   O18   S    
C59   H11   S    
C32   C35   S    
C12   C16   S    
C2    F2    S    
C6    O7    A    
C53   C57   A    
C15   C26   A    
Cr1   O1    S    
C60   C71   S    
C53   H7    S    
C58   C59   S    
C57   H10   S    
C70   H39   S    
C33   C37   S    
C7    O14   A    
C4    C50   S    
C60   C61   S    
C58   H16   S    
C17   C27   A    
C38   C44   A    
Cr1   O24   S    
C14   C20   A    
Cr5   O16   S    
C72   F12   S    
Cr6   O19   S    
C69   H42   S    
C71   F11   S    
C33   H48   S    
C24   C37   S    
C46   C71   S    
C62   C72   S    
C1    O12   A    
C8    O15   A    
C29   F8    S    
C10   O8    A    
C39   C46   A    
C20   C33   S    
Cr3   O20   S    
C9    O16   A    
C31   H1    S    
C32   H12   S    
Cr2   O13   S    
C3    C66   S    
C6    O13   A    
C2    C71   S    
C68   H36   S    
C4    C72   S    
C23   O26   A    
Cr1   O5    S    
C16   C25   A    
Cr2   O6    S    
C35   H34   S    
C69   H43   S    
C40   C57   A    
Cr1   O11   S    
C25   F1    S    
C1    C17   S    
C54   H8    S    
C31   H46   S    
C5    O6    A    
C36   H44   S    
C10   O17   A    
C14   C34   S    
C43   C50   A    
C21   C35   S    
Cr3   O14   S    
C22   C36   S    
C9    O10   A    
C26   C28   A    
C10   C38   S    
C58   H15   S    
C2    C48   S    
C64   C65   S    
Cr2   O12   S    
C59   H13   S    
C32   H47   S    
C60   H21   S    
C12   O25   A    
C13   C45   S    
C3    C67   S    
C33   H23   S    
C64   H32   S    
Cr1   O18   S    
C34   O2    A    
C70   H41   S    
C41   C48   A    
C66   H38   S    
C37   H4    S    
C52   H6    S    
C51   C55   A    
C7    C41   S    
C69   C70   S    
C61   H17   S    
Cr5   O3    S    
C47   C72   S    
C65   H29   S    
C60   H20   S    
C1    O24   A    
C42   C49   A    
C56   O4    A    
C8    O9    A    
C58   C67   S    
C15   C21   A    
C4    F4    S    
C11   C29   A    
Cr6   O23   S    
C6    C42   S    
C55   H9    S    
C28   F7    S    
C31   C36   S    
Cr3   O26   S    
C44   C67   S    
C18   C31   S    
C8    C40   S    
C12   O20   A    
C30   F9    S    
C68   H35   S    
C11   C56   S    
Cr5   O19   S    
C34   O22   A    
