data_mof_unit_58762.cif
_audit_creation_date              2012-12-10T16:59:22-0500
_audit_creation_method            fapswitch 2.2
_symmetry_space_group_name_H-M    P1
_symmetry_Int_Tables_number       1
_space_group_crystal_system       triclinic
_cell_length_a                    7.727781
_cell_length_b                    8.538706
_cell_length_c                    27.692479
_cell_angle_alpha                 90.944476
_cell_angle_beta                  86.225956
_cell_angle_gamma                 93.639811
_cell_volume                      1819.51561758

loop_
_atom_site_label
_atom_site_type_symbol
_atom_type_description
_atom_site_fract_x
_atom_site_fract_y
_atom_site_fract_z
_atom_type_partial_charge
C1    C     C_R   0.545906 0.794887 0.498976 0.963714
C2    C     C_R   0.502724 0.645950 0.128043 -0.022258
C3    C     C_R   0.511877 0.504720 0.646410 -0.094054
C4    C     C_R   0.488159 0.495248 0.353591 -0.094096
C5    C     C_R   0.532640 0.643898 0.025694 0.047718
C6    C     C_R   0.467918 0.355935 0.974293 0.047718
C7    C     C_R   0.448993 0.359094 0.025568 0.047693
C8    C     C_R   0.551593 0.640736 0.974420 0.047691
C9    C     C_R   0.482913 0.502785 0.050924 0.072141
C10   C     C_R   0.517640 0.497050 0.949064 0.072136
C11   C     C_R   0.560814 0.784078 0.052915 -0.226453
C12   C     C_R   0.454093 0.205112 0.501020 0.963851
C13   C     C_R   0.439692 0.215760 0.947072 -0.226452
C14   C     C_R   0.546846 0.784536 0.103029 -0.140636
C15   C     C_R   0.453601 0.215315 0.896958 -0.140630
C16   C     C_R   0.503349 0.502420 0.593890 0.861788
C17   C     C_R   0.496654 0.497577 0.406110 0.861818
C18   C     C_R   0.604807 0.776653 0.947325 -0.227775
C19   C     C_R   0.395819 0.223172 0.052664 -0.227769
C20   C     C_2   0.570264 0.958357 0.499231 -0.406750
C21   C     C_2   0.429736 0.041642 0.500759 -0.406802
C22   C     C_R   0.587943 0.629677 0.821531 0.503123
C23   C     C_R   0.532609 0.494645 0.897759 -0.050510
C24   C     C_R   0.412465 0.370190 0.178458 0.503166
C25   C     C_R   0.504485 0.355807 0.821366 0.511334
C26   C     C_R   0.495857 0.644069 0.178623 0.511304
C27   C     C_R   0.652292 0.417276 0.715913 -0.111931
C28   C     C_R   0.347901 0.582687 0.284062 -0.111625
C29   C     C_R   0.640419 0.420947 0.666211 -0.260076
C30   C     C_R   0.359687 0.579051 0.333768 -0.260308
C31   C     C_R   0.394082 0.586810 0.677253 -0.042421
C32   C     C_R   0.605956 0.413090 0.322769 -0.042465
C33   C     C_R   0.405933 0.579405 0.727181 -0.142898
C34   C     C_R   0.467889 0.505202 0.102228 -0.050499
C35   C     C_R   0.594213 0.420466 0.272838 -0.142801
C36   C     C_R   0.534959 0.496164 0.746343 0.295822
C37   C     C_R   0.465261 0.503742 0.253652 0.295840
C38   C     C_R   0.264399 0.687805 0.658914 0.133439
C39   C     C_R   0.086257 0.655960 0.670965 -0.134002
C40   C     C_R   0.964326 0.753564 0.654569 -0.110355
C41   C     C_R   0.019289 0.883953 0.626425 -0.139326
C42   C     C_R   0.196336 0.917442 0.614791 -0.117929
C43   C     C_R   0.318752 0.819773 0.630851 -0.084799
C44   C     C_R   0.735501 0.312035 0.341140 0.133475
C45   C     C_R   0.580885 0.633294 0.872096 -0.019119
C46   C     C_R   0.680955 0.179867 0.369083 -0.085186
C47   C     C_R   0.803246 0.082186 0.385201 -0.117706
C48   C     C_R   0.980355 0.115886 0.373757 -0.139303
C49   C     C_R   0.035509 0.246494 0.345738 -0.110681
C50   C     C_R   0.913704 0.344098 0.329275 -0.133676
C51   C     C_R   0.419610 0.366556 0.127892 -0.019139
C52   C     C_R   0.618518 0.772702 0.897222 -0.142418
C53   C     C_R   0.382057 0.227134 0.102766 -0.142410
C54   C     C_R   0.497709 0.353907 0.871944 -0.022279
H1    H     H_    0.014149 0.383253 0.463322 0.199314
H2    H     H_    0.752464 0.353212 0.730844 0.154573
H3    H     H_    0.572151 0.894568 0.122125 0.193743
H4    H     H_    0.428252 0.105288 0.877861 0.193755
H5    H     H_    0.594336 0.896719 0.036922 0.140681
H6    H     H_    0.406149 0.103117 0.963063 0.140693
H7    H     H_    0.637748 0.889150 0.963409 0.142405
H8    H     H_    0.362950 0.110662 0.036580 0.142389
H9    H     H_    0.702961 0.009626 0.498350 0.178608
H10   H     H_    0.297040 0.990373 0.501637 0.178539
H11   H     H_    0.042071 0.555545 0.692893 0.132371
H12   H     H_    0.985851 0.616747 0.536678 0.199316
H13   H     H_    0.827286 0.728920 0.663921 0.158278
H14   H     H_    0.924764 0.959647 0.613918 0.130915
H15   H     H_    0.238683 0.019854 0.593660 0.135826
H16   H     H_    0.455670 0.847476 0.621776 0.104078
H17   H     H_    0.543989 0.152029 0.378020 0.104216
H18   H     H_    0.760758 0.979618 0.406238 0.135829
H19   H     H_    0.074785 0.040200 0.386316 0.130868
H20   H     H_    0.172601 0.271316 0.336539 0.158026
H21   H     H_    0.958033 0.444692 0.307448 0.132342
H22   H     H_    0.317088 0.641270 0.751447 0.153912
H23   H     H_    0.683083 0.358554 0.248592 0.153956
H24   H     H_    0.657865 0.880414 0.878223 0.192992
H25   H     H_    0.342723 0.119422 0.121765 0.192992
H26   H     H_    0.268563 0.642579 0.356777 0.170558
H27   H     H_    0.731540 0.357469 0.643189 0.170619
H28   H     H_    0.247783 0.646774 0.269112 0.154589
N1    N     N_R   0.546162 0.493022 0.797464 -0.354813
N2    N     N_R   0.454161 0.506861 0.202526 -0.354826
N3    N     N_2   0.950320 0.457960 0.486880 -0.175460
N4    N     N_2   0.049680 0.542040 0.513120 -0.175464
O1    O     O_R   0.389250 0.738570 0.503220 -0.608003
O2    O     O_2   0.365800 0.238149 0.203508 -0.546864
O3    O     O_2   0.534296 0.777231 0.203739 -0.540643
O4    O     O_2   0.465976 0.222658 0.796250 -0.540630
O5    O     O_R   0.610750 0.261430 0.496780 -0.607954
O6    O     O_R   0.678390 0.711630 0.494810 -0.634612
O7    O     O_R   0.321610 0.288370 0.505190 -0.634621
O8    O     O_R   0.355440 0.513440 0.575450 -0.604300
O9    O     O_R   0.644560 0.486560 0.424550 -0.604283
O10   O     O_R   0.644590 0.486500 0.567040 -0.630493
O11   O     O_R   0.355410 0.513500 0.432960 -0.630541
O12   O     O_2   0.634601 0.761720 0.796481 -0.546970
Zn1   Zn    Zn3+2 0.306940 0.517990 0.505620 0.943907
Zn2   Zn    Zn3+2 0.693060 0.482010 0.494380 0.943954

loop_
_geom_bond_atom_site_label_1
_geom_bond_atom_site_label_2
_ccdc_geom_bond_type
C1    O1    A    
C22   O12   S    
C27   C29   A    
C41   C42   A    
C12   O5    A    
C18   C52   A    
C13   H6    S    
N3    N4    D    
C26   O3    S    
C29   H27   S    
C34   C51   A    
C23   C45   A    
C28   C37   A    
C35   C37   A    
C5    C11   A    
C38   C39   A    
C11   C14   A    
C52   H24   S    
C36   N1    S    
C33   C36   A    
C3    C29   A    
C21   H10   S    
C40   H13   S    
C31   C33   A    
C37   N2    S    
C17   O9    A    
O5    Zn2   S    
O7    Zn1   S    
C30   H26   S    
C2    C34   A    
C24   C51   A    
C39   H11   S    
C11   H5    S    
O11   Zn1   S    
C44   C46   A    
C41   H14   S    
O1    Zn1   S    
C32   C44   S    
C16   O10   A    
C28   H28   S    
C32   C35   A    
C25   C54   A    
C39   C40   A    
C27   H2    S    
C45   C52   A    
C12   C21   S    
C35   H23   S    
C42   H15   S    
C8    C18   A    
C51   C53   A    
H1    N3    S    
C15   C54   A    
C6    C10   A    
C33   H22   S    
C47   C48   A    
C25   O4    S    
C2    C26   A    
C3    C31   A    
N4    Zn1   S    
C24   O2    S    
C46   H17   S    
C4    C32   A    
C4    C17   S    
C40   C41   A    
C1    O6    A    
C7    C19   A    
C13   C15   A    
C9    C34   A    
C10   C23   A    
C15   H4    S    
C12   O7    A    
C42   C43   A    
O6    Zn2   S    
C23   C54   A    
C44   C50   A    
C7    C9    A    
C14   H3    S    
C46   C47   A    
C48   C49   A    
C1    C20   S    
C26   N2    A    
C53   H25   S    
O9    Zn2   S    
C48   H19   S    
C5    C9    A    
H12   N4    S    
C5    C8    A    
C18   H7    S    
C6    C7    A    
C27   C36   A    
C43   H16   S    
C16   O8    A    
C31   C38   S    
C22   N1    A    
C20   H9    S    
C28   C30   A    
C24   N2    A    
C38   C43   A    
N3    Zn2   S    
C50   H21   S    
C6    C13   A    
C19   C53   A    
O8    Zn1   S    
O10   Zn2   S    
C2    C14   A    
C47   H18   S    
C22   C45   A    
C20   C21   D    
C8    C10   A    
C49   C50   A    
C25   N1    A    
C49   H20   S    
C19   H8    S    
C17   O11   A    
C4    C30   A    
C3    C16   S    
