data_mof_unit_27232.cif
_audit_creation_date              2012-10-26T20:50:49-0400
_audit_creation_method            fapswitch 2.2
_symmetry_space_group_name_H-M    P1
_symmetry_Int_Tables_number       1
_space_group_crystal_system       triclinic
_cell_length_a                    10.96591
_cell_length_b                    10.849967
_cell_length_c                    9.617593
_cell_angle_alpha                 89.048109
_cell_angle_beta                  102.167714
_cell_angle_gamma                 92.303335
_cell_volume                      1117.64945169

loop_
_atom_site_label
_atom_site_type_symbol
_atom_type_description
_atom_site_fract_x
_atom_site_fract_y
_atom_site_fract_z
_atom_type_partial_charge
C1    C     C_R   0.501867 0.262395 0.500989 0.578448
C2    C     C_R   0.435348 0.412863 0.063742 0.036145
C3    C     C_R   0.430780 0.412418 0.914775 0.174250
C4    C     C_R   0.262729 0.504303 0.442611 0.570819
C5    C     C_R   0.555653 0.595208 0.939061 0.114749
C6    C     C_3   0.689181 0.643663 0.972110 -0.082107
C7    C     C_3   0.678841 0.653070 0.127120 -0.262459
C8    C     C_R   0.502977 0.737441 0.499597 0.535586
C9    C     C_R   0.737255 0.497298 0.557518 0.552780
C10   C     C_2   0.127400 0.517138 0.413608 -0.117957
C11   C     C_2   0.072946 0.541200 0.521796 -0.123644
C12   C     C_R   0.513116 0.129252 0.501650 0.002227
C13   C     C_2   0.872950 0.487960 0.589413 0.066043
C14   C     C_2   0.938041 0.547323 0.502642 -0.176100
C15   C     C_R   0.546206 0.062468 0.628455 0.045510
C16   C     C_2   0.578411 0.117695 0.887212 0.605732
C17   C     C_2   0.344388 0.312812 0.839113 0.579227
C18   C     C_2   0.785372 0.552922 0.956380 0.610001
C19   C     C_2   0.928811 0.400159 0.704018 0.612962
C20   C     C_R   0.498563 0.065991 0.372111 -0.145671
C21   C     C_R   0.500612 0.937592 0.370954 -0.142847
C22   C     C_R   0.515580 0.870850 0.499441 0.004459
C23   C     C_R   0.546497 0.935230 0.627161 -0.012055
C24   C     C_3   0.493344 0.921927 0.757432 -0.258935
C25   C     C_3   0.492139 0.061752 0.758871 -0.050716
C26   C     C_R   0.550522 0.597935 0.083902 0.132555
Cu1   Cu    Cu3+1 0.499990 0.499980 0.640670 1.071560
Cu2   Cu    Cu3+1 0.500010 0.500020 0.359330 0.973674
H1    H     H_    0.890274 0.601112 0.412858 0.124115
H2    H     H_    0.619419 0.134819 0.100263 0.338378
H3    H     H_    0.384758 0.343749 0.113773 0.178376
H4    H     H_    0.240636 0.156920 0.858634 0.341702
H5    H     H_    0.848327 0.380808 0.992778 0.363144
H6    H     H_    0.702676 0.734989 0.922672 0.100983
H7    H     H_    0.906244 0.240671 0.808077 0.350083
H8    H     H_    0.396186 0.095671 0.737164 0.137507
H9    H     H_    0.741714 0.593070 0.202090 0.168830
H10   H     H_    0.678008 0.749844 0.163036 0.114702
H11   H     H_    0.128541 0.555153 0.628186 0.213873
H12   H     H_    0.072593 0.506076 0.306080 0.130406
H13   H     H_    0.478400 0.114752 0.271327 0.181791
H14   H     H_    0.482752 0.891014 0.269508 0.161340
H15   H     H_    0.398213 0.877299 0.735754 0.137618
H16   H     H_    0.559706 0.881123 0.847929 0.144970
N1    N     N_R   0.500780 0.500930 0.148120 -0.250581
N2    N     N_R   0.500790 0.500890 0.852210 -0.239458
O1    O     O_R   0.500000 0.319640 0.618810 -0.441428
O2    O     O_R   0.555833 0.091950 0.022460 -0.704222
O3    O     O_2   0.299740 0.317453 0.712667 -0.476870
O4    O     O_R   0.305778 0.214373 0.917968 -0.720417
O5    O     O_2   0.876756 0.588755 0.911072 -0.505443
O6    O     O_R   0.773693 0.430327 0.000446 -0.650176
O7    O     O_2   0.033742 0.418913 0.775892 -0.497098
O8    O     O_R   0.858837 0.294987 0.729893 -0.655244
O9    O     O_R   0.500010 0.319680 0.381230 -0.521627
O10   O     O_R   0.320680 0.500000 0.575130 -0.458730
O11   O     O_R   0.320690 0.500040 0.337550 -0.499561
O12   O     O_R   0.499990 0.680320 0.618770 -0.521945
O13   O     O_R   0.500000 0.680360 0.381190 -0.513247
O14   O     O_R   0.679310 0.499960 0.662450 -0.448843
O15   O     O_R   0.679320 0.500000 0.424870 -0.519762
O16   O     O_2   0.666624 0.185930 0.873495 -0.457401

loop_
_geom_bond_atom_site_label_1
_geom_bond_atom_site_label_2
_ccdc_geom_bond_type
C17   O4    S    
C4    O11   A    
C19   O7    D    
C8    C22   S    
C23   C24   S    
C6    C7    S    
C13   C14   D    
Cu1   O10   S    
C5    N2    A    
C3    N2    A    
C16   O2    S    
C12   C15   A    
C9    O14   A    
Cu2   O15   S    
C12   C20   A    
C15   C23   A    
C2    C3    A    
C7    H9    S    
C18   O6    S    
C8    O13   A    
Cu2   O11   S    
C20   C21   A    
H7    O8    S    
C11   H11   S    
C1    C12   S    
H4    O4    S    
C7    C26   S    
C16   O16   D    
C6    C18   S    
C19   O8    S    
H2    O2    S    
C7    H10   S    
C18   O5    D    
C3    C17   S    
Cu1   O14   S    
C2    N1    A    
C1    O9    A    
C5    C6    S    
C24   H16   S    
C11   C14   S    
C9    O15   A    
Cu2   N1    S    
C15   C25   S    
C10   C11   D    
C13   C19   S    
C25   H8    S    
C4    C10   S    
C5    C26   A    
Cu1   Cu2   S    
C24   C25   S    
Cu1   N2    S    
C10   H12   S    
Cu2   O13   S    
C17   O3    D    
C16   C25   S    
Cu1   O1    S    
C24   H15   S    
C9    C13   S    
C22   C23   A    
C1    O1    A    
C21   H14   S    
C14   H1    S    
C26   N1    A    
C8    O12   A    
C21   C22   A    
Cu2   O9    S    
C4    O10   A    
C6    H6    S    
C20   H13   S    
C2    H3    S    
H5    O6    S    
Cu1   O12   S    
