data_mof_unit_56693.cif
_audit_creation_date              2012-12-11T16:13:56-0500
_audit_creation_method            fapswitch 2.2
_symmetry_space_group_name_H-M    P1
_symmetry_Int_Tables_number       1
_space_group_crystal_system       triclinic
_cell_length_a                    26.148291
_cell_length_b                    7.257761
_cell_length_c                    23.764316
_cell_angle_alpha                 90.000022
_cell_angle_beta                  101.369517
_cell_angle_gamma                 90.000026
_cell_volume                      4421.44318085

loop_
_atom_site_label
_atom_site_type_symbol
_atom_type_description
_atom_site_fract_x
_atom_site_fract_y
_atom_site_fract_z
_atom_type_partial_charge
O1    O     O_R   0.192370 0.384760 0.193350 -0.530535
O2    O     O_R   0.807630 0.615240 0.806650 -0.530535
O3    O     O_R   0.307630 0.884760 0.306650 -0.530534
O4    O     O_R   0.692370 0.115240 0.693350 -0.530535
O5    O     O_R   0.296630 0.711620 0.196480 -0.541797
O6    O     O_R   0.703370 0.288380 0.803520 -0.541797
O7    O     O_R   0.203370 0.211620 0.303520 -0.541797
O8    O     O_R   0.796630 0.788380 0.696480 -0.541797
C1    C     C_R   0.312580 0.545808 0.184198 0.684118
C2    C     C_R   0.687420 0.454192 0.815802 0.684118
C3    C     C_R   0.187420 0.045808 0.315802 0.684118
C4    C     C_R   0.812580 0.954192 0.684198 0.684118
O9    O     O_R   0.192080 0.714290 0.186600 -0.534548
O10   O     O_R   0.807920 0.285710 0.813400 -0.534548
O11   O     O_R   0.307920 0.214290 0.313400 -0.534548
O12   O     O_R   0.692080 0.785710 0.686600 -0.534548
O13   O     O_R   0.202340 0.887460 0.296690 -0.537848
O14   O     O_R   0.797660 0.112540 0.703310 -0.537847
O15   O     O_R   0.297660 0.387460 0.203310 -0.537848
O16   O     O_R   0.702340 0.612540 0.796690 -0.537847
C5    C     C_R   0.173732 0.545892 0.171366 0.717364
C6    C     C_R   0.826268 0.454108 0.828634 0.717363
C7    C     C_R   0.326268 0.045892 0.328634 0.717363
C8    C     C_R   0.673732 0.954107 0.671366 0.717363
O17   O     O_3   0.253490 0.552180 0.286130 -0.375678
O18   O     O_3   0.746510 0.447820 0.713870 -0.375679
O19   O     O_3   0.246510 0.052180 0.213870 -0.375678
O20   O     O_3   0.753490 0.947820 0.786130 -0.375678
V1    V     V_3+5 0.249350 0.825920 0.243300 1.403205
V2    V     V_3+5 0.750650 0.174080 0.756700 1.403205
V3    V     V_3+5 0.250650 0.325920 0.256700 1.403205
V4    V     V_3+5 0.749350 0.674080 0.743300 1.403205
C9    C     C_3   0.531032 0.869603 0.486428 0.133218
C10   C     C_3   0.468968 0.130396 0.513572 0.133218
C11   C     C_3   0.968967 0.369605 0.013572 0.133218
C12   C     C_3   0.031033 0.630395 0.986428 0.133219
C13   C     C_3   0.514064 0.043755 0.449990 -0.175676
C14   C     C_3   0.485936 0.956245 0.550010 -0.175676
C15   C     C_3   0.985935 0.543756 0.050010 -0.175678
C16   C     C_3   0.014064 0.456244 0.949990 -0.175677
H1    H     H_    0.525579 0.078478 0.408726 0.120596
H2    H     H_    0.474421 0.921522 0.591274 0.120596
H3    H     H_    0.974421 0.578480 0.091273 0.120595
H4    H     H_    0.025579 0.421520 0.908727 0.120596
H5    H     H_    0.546456 0.296143 0.510973 0.117662
H6    H     H_    0.453544 0.703857 0.489027 0.117662
H7    H     H_    0.953545 0.796144 0.989027 0.117659
H8    H     H_    0.046455 0.203856 0.010973 0.117662
C17   C     C_1   0.371982 0.036499 0.374513 -0.180539
C18   C     C_1   0.628018 0.963500 0.625487 -0.180539
C19   C     C_1   0.128018 0.536499 0.125488 -0.180539
C20   C     C_1   0.871982 0.463501 0.874512 -0.180539
C21   C     C_3   0.474448 0.837532 0.494433 -0.174862
C22   C     C_3   0.525552 0.162468 0.505567 -0.174862
C23   C     C_3   0.025551 0.337531 0.005567 -0.174863
C24   C     C_3   0.974449 0.662469 0.994433 -0.174861
C25   C     C_3   0.457672 0.012966 0.458717 0.113381
C26   C     C_3   0.542328 0.987034 0.541283 0.113381
C27   C     C_3   0.042328 0.512965 0.041283 0.113382
C28   C     C_3   0.957672 0.487034 0.958717 0.113381
C29   C     C_1   0.410488 0.026645 0.412553 -0.064659
C30   C     C_1   0.589512 0.973355 0.587447 -0.064659
C31   C     C_1   0.089512 0.526645 0.087448 -0.064659
C32   C     C_1   0.910488 0.473355 0.912552 -0.064659
C33   C     C_R   0.869237 0.134420 0.629347 -0.159485
C34   C     C_R   0.130763 0.865580 0.370653 -0.159485
C35   C     C_R   0.630763 0.634420 0.870653 -0.159485
C36   C     C_R   0.369237 0.365580 0.129347 -0.159485
H9    H     H_    0.855584 0.262190 0.644738 0.123509
H10   H     H_    0.144416 0.737809 0.355262 0.123509
H11   H     H_    0.644416 0.762191 0.855262 0.123509
H12   H     H_    0.355584 0.237809 0.144737 0.123509
C37   C     C_R   0.905727 0.143301 0.593460 -0.138427
C38   C     C_R   0.094273 0.856699 0.406540 -0.138427
C39   C     C_R   0.594273 0.643301 0.906540 -0.138427
C40   C     C_R   0.405727 0.356699 0.093460 -0.138427
H13   H     H_    0.918936 0.277458 0.582375 0.134558
H14   H     H_    0.081064 0.722542 0.417625 0.134559
H15   H     H_    0.581064 0.777458 0.917625 0.134558
H16   H     H_    0.418936 0.222542 0.082374 0.134559
C41   C     C_R   0.924959 0.981595 0.572392 0.020166
C42   C     C_R   0.075041 0.018405 0.427608 0.020166
C43   C     C_R   0.575041 0.481595 0.927608 0.020166
C44   C     C_R   0.424959 0.518405 0.072392 0.020166
C45   C     C_R   0.906481 0.810702 0.588054 -0.136123
C46   C     C_R   0.093519 0.189298 0.411945 -0.136124
C47   C     C_R   0.593519 0.310701 0.911945 -0.136124
C48   C     C_R   0.406481 0.689298 0.088055 -0.136124
H17   H     H_    0.920311 0.683146 0.572721 0.138538
H18   H     H_    0.079689 0.316854 0.427279 0.138538
H19   H     H_    0.579689 0.183146 0.927279 0.138538
H20   H     H_    0.420311 0.816854 0.072721 0.138538
C49   C     C_R   0.869959 0.801745 0.623933 -0.160974
C50   C     C_R   0.130041 0.198255 0.376067 -0.160975
C51   C     C_R   0.630041 0.301745 0.876067 -0.160975
C52   C     C_R   0.369959 0.698255 0.123933 -0.160975
H21   H     H_    0.856909 0.667468 0.635121 0.122084
H22   H     H_    0.143091 0.332532 0.364879 0.122084
H23   H     H_    0.643091 0.167467 0.864879 0.122084
H24   H     H_    0.356909 0.832532 0.135121 0.122084
C53   C     C_R   0.850851 0.963493 0.645223 -0.047083
C54   C     C_R   0.149149 0.036507 0.354777 -0.047083
C55   C     C_R   0.649149 0.463493 0.854777 -0.047083
C56   C     C_R   0.350851 0.536507 0.145223 -0.047083
N1    N     N_R   0.982892 0.835177 0.514290 -0.281391
N2    N     N_R   0.017108 0.164823 0.485710 -0.281391
N3    N     N_R   0.517108 0.335177 0.985709 -0.281391
N4    N     N_R   0.482892 0.664823 0.014290 -0.281391
N5    N     N_R   0.017969 0.843799 0.480530 -0.284342
N6    N     N_R   0.982031 0.156201 0.519470 -0.284342
N7    N     N_R   0.482030 0.343799 0.019470 -0.284342
N8    N     N_R   0.517969 0.656201 0.980530 -0.284342
C57   C     C_R   0.035903 0.008816 0.465458 0.513295
C58   C     C_R   0.964097 0.991184 0.534542 0.513296
C59   C     C_R   0.464096 0.508816 0.034542 0.513295
C60   C     C_R   0.535903 0.491184 0.965458 0.513296
C61   C     C_3   0.567485 0.720805 0.471554 -0.370115
C62   C     C_3   0.542392 0.615891 0.417127 -0.308793
C63   C     C_3   0.580575 0.478789 0.399474 -0.758592
H25   H     H_    0.614630 0.552626 0.388787 0.233081
H26   H     H_    0.594478 0.379341 0.434663 0.226441
H27   H     H_    0.560852 0.401089 0.361029 0.217444
H28   H     H_    0.507528 0.539732 0.424851 0.193542
H29   H     H_    0.529732 0.714500 0.381289 0.200048
H30   H     H_    0.604209 0.787646 0.465352 0.180807
H31   H     H_    0.576927 0.623235 0.508152 0.168414
C64   C     C_3   0.432515 0.279195 0.528446 -0.370116
C65   C     C_3   0.457608 0.384108 0.582873 -0.308794
C66   C     C_3   0.419424 0.521210 0.600526 -0.758598
H32   H     H_    0.405522 0.620659 0.565337 0.226442
H33   H     H_    0.385370 0.447374 0.611213 0.233082
H34   H     H_    0.439147 0.598910 0.638971 0.217445
H35   H     H_    0.470268 0.285499 0.618711 0.200048
H36   H     H_    0.492472 0.460266 0.575150 0.193543
H37   H     H_    0.423073 0.376765 0.491849 0.168415
H38   H     H_    0.395791 0.212355 0.534648 0.180808
C67   C     C_3   0.932514 0.220807 0.028445 -0.370115
C68   C     C_3   0.957604 0.115904 0.082875 -0.308792
C69   C     C_3   0.919421 0.978796 0.100526 -0.758597
H39   H     H_    0.885362 0.052625 0.111204 0.233083
H40   H     H_    0.905526 0.879333 0.065338 0.226440
H41   H     H_    0.939141 0.901113 0.138975 0.217446
H42   H     H_    0.992472 0.039752 0.075157 0.193544
H43   H     H_    0.970259 0.214520 0.118713 0.200047
H44   H     H_    0.895789 0.287646 0.034644 0.180806
H45   H     H_    0.923075 0.123230 0.991849 0.168416
C70   C     C_3   0.067486 0.779193 0.971555 -0.370116
C71   C     C_3   0.042393 0.884105 0.917127 -0.308794
C72   C     C_3   0.080577 0.021209 0.899475 -0.758594
H46   H     H_    0.094479 0.120659 0.934664 0.226441
H47   H     H_    0.114633 0.947374 0.888789 0.233082
H48   H     H_    0.060855 0.098907 0.861029 0.217445
H49   H     H_    0.029735 0.785496 0.881289 0.200048
H50   H     H_    0.007528 0.960263 0.924849 0.193542
H51   H     H_    0.076927 0.876764 0.008152 0.168416
H52   H     H_    0.104210 0.712352 0.965352 0.180807

loop_
_geom_bond_atom_site_label_1
_geom_bond_atom_site_label_2
_ccdc_geom_bond_type
O17   V3    S    
H8    C23   S    
C43   C47   A    
C48   C52   A    
C26   C30   S    
C9    C26   S    
C16   C28   S    
C23   C27   S    
O19   V1    S    
O13   V1    S    
C34   C54   A    
O3    C7    A    
C70   C71   S    
C33   C53   A    
C12   C27   S    
O15   V3    S    
C65   C66   S    
C40   C44   A    
C35   C55   A    
O1    C5    A    
C72   H46   S    
N4    C59   A    
C67   H44   S    
C2    C55   S    
O10   V2    S    
C14   H2    S    
C47   H19   S    
C68   H42   S    
C72   H47   S    
O16   V4    S    
O4    C8    A    
C69   H41   S    
C51   H23   S    
C7    C17   S    
N8    C60   A    
C50   H22   S    
C34   C38   A    
O1    V3    S    
C33   C37   A    
O2    V4    S    
O3    V1    S    
C62   C63   S    
C46   C50   A    
C14   C26   S    
C45   C49   A    
C1    O15   A    
C48   H20   S    
C2    O16   A    
C10   C64   S    
C47   C51   A    
C41   C58   S    
O2    C6    A    
C10   C25   S    
O14   V2    S    
C70   H51   S    
C61   H31   S    
N6    C58   A    
N5    C57   A    
C66   H34   S    
O11   C7    A    
O12   C8    A    
C8    C18   S    
C71   H50   S    
C38   C42   A    
C37   C41   A    
C51   C55   A    
O7    C3    A    
O5    V1    S    
C63   H26   S    
C9    C21   S    
C9    C61   S    
C69   H39   S    
O4    V2    S    
O7    V3    S    
N2    C57   A    
C11   C23   S    
O8    V4    S    
C36   C56   A    
N1    C58   A    
C12   C16   S    
C19   C31   T    
C64   H38   S    
C36   H12   S    
C46   H18   S    
C72   H48   S    
C49   C53   A    
C21   C25   S    
O18   V4    S    
C15   H3    S    
C42   C46   A    
C9    C13   S    
N4    N8    A    
C11   C28   S    
C44   C48   A    
C11   C15   S    
O5    C1    A    
C12   C24   S    
C65   H36   S    
C67   H45   S    
C12   C70   S    
C15   C24   S    
O8    C4    A    
C16   C23   S    
C15   C27   S    
O9    C5    A    
C62   H29   S    
C71   C72   S    
O11   V3    S    
C70   H52   S    
C13   C22   S    
O6    V2    S    
H5    C22   S    
C10   C22   S    
C44   C59   S    
C52   C56   A    
C20   C32   T    
C18   C30   T    
C36   C40   A    
C71   H49   S    
C64   C65   S    
C49   H21   S    
C5    C19   S    
C6    C20   S    
C66   H32   S    
C22   C26   S    
C63   H27   S    
O9    V1    S    
N1    N5    A    
C3    O13   A    
C45   H17   S    
C10   C14   S    
N3    N7    A    
C43   C60   S    
C40   H16   S    
C42   C57   S    
C64   H37   S    
O6    C2    A    
C63   H25   S    
C25   C29   S    
O12   V4    S    
C67   C68   S    
C27   C31   S    
C28   C32   S    
O10   C6    A    
O20   V2    S    
C4    C53   S    
C68   H43   S    
C65   H35   S    
C11   C67   S    
C69   H40   S    
C17   C29   T    
C39   C43   A    
C34   H10   S    
C14   C21   S    
C61   H30   S    
C1    C56   S    
C33   H9    S    
C52   H24   S    
H6    C21   S    
C3    C54   S    
C35   H11   S    
C62   H28   S    
C13   H1    S    
C41   C45   A    
N3    C60   A    
C68   C69   S    
C24   C28   S    
C16   H4    S    
C35   C39   A    
C50   C54   A    
N2    N6    A    
C38   H14   S    
C4    O14   A    
C37   H13   S    
N7    C59   A    
C61   C62   S    
C39   H15   S    
C13   C25   S    
H7    C24   S    
C66   H33   S    
