data_mof_unit_53450.cif
_audit_creation_date              2012-12-10T17:53:12-0500
_audit_creation_method            fapswitch 2.2
_symmetry_space_group_name_H-M    P1
_symmetry_Int_Tables_number       1
_space_group_crystal_system       triclinic
_cell_length_a                    14.795048
_cell_length_b                    14.854265
_cell_length_c                    27.756164
_cell_angle_alpha                 74.677869
_cell_angle_beta                  102.092873
_cell_angle_gamma                 116.796827
_cell_volume                      5222.34170386

loop_
_atom_site_label
_atom_site_type_symbol
_atom_type_description
_atom_site_fract_x
_atom_site_fract_y
_atom_site_fract_z
_atom_type_partial_charge
C1    C     C_R   0.879301 0.311570 0.509373 0.798798
C2    C     C_R   0.120624 0.688113 0.492695 0.793792
C3    C     C_R   0.987535 0.502346 0.896445 -0.085137
C4    C     C_R   0.012955 0.499132 0.103373 -0.085431
C5    C     C_R   0.929929 0.410613 0.877295 -0.022853
C6    C     C_R   0.070442 0.590884 0.122519 -0.022582
C7    C     C_R   0.866010 0.322141 0.909107 0.160634
C8    C     C_R   0.134265 0.679414 0.090700 0.161933
C9    C     C_R   0.040006 0.594613 0.863835 -0.053311
C10   C     C_R   0.960642 0.406811 0.135996 -0.053237
C11   C     C_R   0.999800 0.502655 0.644880 -0.044447
C12   C     C_R   0.000578 0.497928 0.355051 -0.042761
C13   C     C_R   0.955320 0.405279 0.033745 0.045158
C14   C     C_R   0.045170 0.596236 0.966062 0.045165
C15   C     C_R   0.059055 0.592342 0.018801 0.012636
C16   C     C_R   0.941368 0.409190 0.981007 0.012681
C17   C     C_R   0.008203 0.499035 0.051717 0.032165
C18   C     C_R   0.992261 0.502475 0.948093 0.032411
C19   C     C_R   0.922810 0.311446 0.070032 0.152361
C20   C     C_R   0.077779 0.690049 0.929764 0.151443
C21   C     C_R   0.917613 0.313944 0.119245 -0.145411
C22   C     C_R   0.083089 0.687498 0.880575 -0.143365
C23   C     C_R   0.999941 0.500623 0.592208 0.792624
C24   C     C_R   0.000151 0.499518 0.407775 0.797947
C25   C     C_R   0.870098 0.324852 0.959511 -0.202240
C26   C     C_R   0.130236 0.676712 0.040300 -0.202789
C27   C     C_R   0.810400 0.200957 0.519327 -0.052709
C28   C     C_R   0.190074 0.795104 0.497188 -0.054582
C29   C     C_R   0.785626 0.022000 0.538204 0.019198
C30   C     C_R   0.221060 0.958639 0.515570 0.021436
C31   C     C_R   0.848639 0.127089 0.526832 -0.259599
C32   C     C_R   0.153655 0.863341 0.502809 -0.262014
C33   C     C_R   0.707626 0.169015 0.524266 -0.263579
C34   C     C_R   0.294845 0.824050 0.502853 -0.247493
C35   C     C_R   0.642542 0.064123 0.537734 0.059823
C36   C     C_R   0.363313 0.910733 0.523180 0.054629
C37   C     C_R   0.680241 0.989716 0.541163 0.097379
C38   C     C_R   0.326736 0.981303 0.527778 0.092924
C39   C     C_R   0.538068 0.031791 0.543096 -0.016525
C40   C     C_R   0.468256 0.930998 0.536906 -0.019819
C41   C     C_R   0.506741 0.855049 0.545881 -0.035979
C42   C     C_R   0.500248 0.093803 0.556265 -0.036491
C43   C     C_R   0.611398 0.885740 0.546677 -0.156704
C44   C     C_R   0.395444 0.068407 0.547668 -0.136643
C45   C     C_R   0.935741 0.413365 0.826516 0.548085
C46   C     C_R   0.064632 0.588089 0.173305 0.546172
C47   C     C_R   0.692192 0.615314 0.398322 0.048948
C48   C     C_R   0.305987 0.380941 0.601265 0.042282
C49   C     C_R   0.785709 0.613340 0.419993 0.046885
C50   C     C_R   0.213205 0.384882 0.579690 0.056655
C51   C     C_R   0.719207 0.522438 0.498335 0.277526
C52   C     C_R   0.281060 0.477647 0.501753 0.305655
C53   C     C_R   0.627265 0.534607 0.479836 -0.044027
C54   C     C_R   0.371830 0.463234 0.520098 0.004636
C55   C     C_R   0.607669 0.561647 0.427068 0.028098
C56   C     C_R   0.390800 0.434529 0.572767 0.061039
C57   C     C_R   0.549929 0.510021 0.510852 0.046638
C58   C     C_R   0.449051 0.487726 0.489113 0.054451
C59   C     C_R   0.427165 0.484489 0.437635 -0.199051
C60   C     C_R   0.571401 0.512942 0.562400 -0.147082
C61   C     C_R   0.504504 0.526290 0.405821 0.003076
C62   C     C_R   0.493816 0.469296 0.594208 0.059025
C63   C     C_R   0.042585 0.593187 0.813940 0.545646
C64   C     C_R   0.958180 0.408177 0.185915 0.544389
C65   C     C_R   0.946483 0.553023 0.706587 -0.069498
C66   C     C_R   0.055409 0.449388 0.293183 -0.077057
C67   C     C_R   0.948565 0.552659 0.656710 -0.204622
C68   C     C_R   0.053215 0.449452 0.343093 -0.208795
C69   C     C_R   0.050505 0.454617 0.683799 -0.213435
C70   C     C_R   0.948813 0.544942 0.316203 -0.212760
C71   C     C_R   0.048362 0.455125 0.733744 -0.102149
C72   C     C_R   0.951131 0.544789 0.266225 -0.102796
C73   C     C_R   0.996038 0.504016 0.745280 0.344539
C74   C     C_R   0.004675 0.497263 0.254583 0.348704
Cu1   Cu    Cu3+1 0.081740 0.475690 0.513040 0.940087
Cu2   Cu    Cu3+1 0.918260 0.524310 0.486960 0.936952
H1    H     H_    0.090701 0.415695 0.675699 0.152869
H2    H     H_    0.907582 0.582746 0.324379 0.152213
H3    H     H_    0.321944 0.776341 0.492222 0.155743
H4    H     H_    0.677921 0.226523 0.516328 0.154599
H5    H     H_    0.072419 0.842385 0.497234 0.152029
H6    H     H_    0.928708 0.151382 0.524176 0.157264
H7    H     H_    0.149020 0.349160 0.601630 0.139015
H8    H     H_    0.849599 0.648943 0.397863 0.140222
H9    H     H_    0.349083 0.447705 0.422049 0.190092
H10   H     H_    0.649253 0.550299 0.578127 0.182674
H11   H     H_    0.087069 0.417342 0.763525 0.141572
H12   H     H_    0.911546 0.581718 0.236505 0.140450
H13   H     H_    0.091900 0.410701 0.372259 0.162779
H14   H     H_    0.910920 0.592380 0.627470 0.165386
H15   H     H_    0.096743 0.412336 0.284415 0.158075
H16   H     H_    0.906120 0.591163 0.715255 0.162869
H17   H     H_    0.886677 0.241826 0.145609 0.193068
H18   H     H_    0.114128 0.759596 0.854211 0.194202
H19   H     H_    0.814532 0.260528 0.981726 0.167246
H20   H     H_    0.185794 0.741069 0.018097 0.167257
H21   H     H_    0.637653 0.826875 0.550804 0.229968
H22   H     H_    0.367701 0.115132 0.558696 0.227420
N1    N     N_R   0.992388 0.503293 0.796636 -0.466586
N2    N     N_R   0.008228 0.498080 0.203208 -0.466379
N3    N     N_R   0.795430 0.560780 0.467350 -0.192702
N4    N     N_R   0.204570 0.439220 0.532650 -0.196666
O1    O     O_R   0.977900 0.338120 0.517190 -0.574074
O2    O     O_R   0.022100 0.661880 0.482810 -0.573827
O3    O     O_R   0.839850 0.379180 0.495160 -0.585216
O4    O     O_R   0.160150 0.620820 0.504840 -0.589342
O5    O     O_R   0.069030 0.479490 0.580750 -0.587497
O6    O     O_R   0.930970 0.520510 0.419250 -0.584895
O7    O     O_R   0.930970 0.520550 0.558720 -0.584112
O8    O     O_R   0.069030 0.479450 0.441280 -0.583227
O9    O     O_2   0.885969 0.327738 0.806757 -0.538941
O10   O     O_2   0.114145 0.673750 0.193046 -0.541834
O11   O     O_2   0.905618 0.320342 0.217003 -0.541394
O12   O     O_2   0.095429 0.680950 0.782894 -0.538942
C75   C     C_2   0.835242 0.950808 0.546948 0.326007
H23   H     H_    0.899123 0.971680 0.526503 0.067354
O13   O     O_2   0.810779 0.872506 0.579159 -0.539013
C76   C     C_2   0.176156 0.030094 0.515696 0.332463
H24   H     H_    0.097412 0.999280 0.523109 0.069533
O14   O     O_2   0.223505 0.123188 0.504517 -0.546533
C77   C     C_2   0.442914 0.743806 0.562871 0.340312
H25   H     H_    0.372226 0.719172 0.578510 0.096011
O15   O     O_2   0.469215 0.678443 0.560262 -0.570664
C78   C     C_2   0.564952 0.172386 0.587634 0.331384
H26   H     H_    0.642630 0.183476 0.601656 0.090712
O16   O     O_2   0.530648 0.222551 0.600345 -0.545927
C79   C     C_2   0.474085 0.515682 0.352401 0.365201
H27   H     H_    0.525409 0.512259 0.330958 0.092938
O17   O     O_2   0.390244 0.508713 0.331932 -0.542540
C80   C     C_2   0.523784 0.478267 0.647835 0.408911
H28   H     H_    0.472214 0.480761 0.669474 0.086125
O18   O     O_2   0.607561 0.484940 0.668264 -0.533321
C81   C     C_3   0.278386 0.551557 0.452422 -0.740293
H29   H     H_    0.355925 0.607758 0.442928 0.209398
H30   H     H_    0.237548 0.509098 0.421521 0.215632
H31   H     H_    0.243866 0.602129 0.453184 0.256830
C82   C     C_3   0.723986 0.450845 0.548079 -0.743941
H32   H     H_    0.647275 0.395527 0.558343 0.237837
H33   H     H_    0.757586 0.399354 0.547420 0.251761
H34   H     H_    0.765724 0.494931 0.578318 0.222744
C83   C     C_3   0.689520 0.681848 0.347041 -0.894212
H35   H     H_    0.756500 0.757430 0.345778 0.242102
H36   H     H_    0.692712 0.644624 0.318007 0.230474
H37   H     H_    0.621325 0.698545 0.338178 0.252631
C84   C     C_3   0.307590 0.312524 0.652058 -0.876220
H38   H     H_    0.240297 0.237308 0.652566 0.246724
H39   H     H_    0.375517 0.295383 0.660742 0.261600
H40   H     H_    0.304210 0.348483 0.681590 0.225738
C85   C     C_3   0.790349 0.224708 0.891070 -0.738067
H41   H     H_    0.742744 0.167333 0.920803 0.197775
H42   H     H_    0.737694 0.242352 0.859147 0.259158
H43   H     H_    0.831098 0.187676 0.879836 0.259857
C86   C     C_3   0.209809 0.776887 0.108737 -0.741899
H44   H     H_    0.257389 0.834309 0.079005 0.198028
H45   H     H_    0.168959 0.813827 0.119963 0.259971
H46   H     H_    0.262493 0.759318 0.140665 0.257537
C87   C     C_3   0.910385 0.209729 0.061607 -0.880042
H47   H     H_    0.948018 0.173004 0.094411 0.240918
H48   H     H_    0.828451 0.156600 0.057448 0.231123
H49   H     H_    0.948252 0.219230 0.028944 0.246947
C88   C     C_3   0.090182 0.791797 0.938136 -0.877850
H50   H     H_    0.052614 0.828508 0.905293 0.241959
H51   H     H_    0.052236 0.782342 0.970761 0.246702
H52   H     H_    0.172115 0.844914 0.942325 0.231097

loop_
_geom_bond_atom_site_label_1
_geom_bond_atom_site_label_2
_ccdc_geom_bond_type
Cu2   O2    S    
C65   H16   S    
C66   C68   A    
Cu1   O5    S    
C87   H47   S    
C46   O10   S    
C70   H2    S    
C8    C26   A    
C62   C80   S    
C69   H1    S    
C48   C56   A    
C84   H40   S    
C59   H9    S    
C84   H38   S    
C42   C78   S    
C47   C49   A    
C27   C33   A    
C32   H5    S    
C12   C68   A    
C52   N4    A    
Cu2   O3    S    
C31   H6    S    
C49   H8    S    
C47   C55   A    
C35   C37   A    
C85   H42   S    
C49   N3    A    
C9    C22   A    
C85   H41   S    
C75   H23   S    
C66   C74   A    
C16   C25   A    
C65   C73   A    
C30   C38   A    
C3    C18   A    
C60   C62   A    
C41   C77   S    
C11   C23   S    
C69   C71   A    
C14   C18   A    
C76   H24   S    
C63   N1    A    
C84   H39   S    
C7    C85   S    
C63   O12   S    
C44   H22   S    
C11   C67   A    
Cu2   O7    S    
C75   O13   D    
Cu1   N4    S    
C80   O18   D    
C24   O6    A    
C2    O2    A    
C86   H45   S    
C47   C83   S    
C1    O1    A    
C1    C27   S    
C48   C50   A    
C29   C75   S    
C28   C34   A    
Cu2   O6    S    
Cu1   O1    S    
C52   C81   S    
C22   H18   S    
C42   C44   A    
C88   H51   S    
C52   C54   A    
C50   H7    S    
C88   H50   S    
C39   C42   A    
C5    C7    A    
C53   C55   A    
C10   C21   A    
C26   H20   S    
C23   O7    A    
C82   H34   S    
C54   C56   A    
C59   C61   A    
C70   C72   A    
C13   C19   A    
C27   C31   A    
C19   C87   S    
C14   C20   A    
C28   C32   A    
C24   O8    A    
C4    C6    A    
C45   N1    A    
C83   H37   S    
C39   C40   A    
C71   C73   A    
C53   C57   A    
C15   C26   A    
C74   N2    S    
C30   C76   S    
C65   C67   A    
C58   C59   A    
C5    C45   A    
C2    O4    A    
C67   H14   S    
C51   C53   A    
C37   C43   A    
C35   C39   A    
Cu1   Cu2   S    
C79   O17   D    
C38   C44   A    
C3    C9    A    
C34   H3    S    
C81   H31   S    
C82   H33   S    
C36   C40   A    
C23   O5    A    
C48   C84   S    
C11   C69   A    
C68   H13   S    
C61   C79   S    
C16   C18   A    
C86   H46   S    
C8    C86   S    
C77   H25   S    
C71   H11   S    
C4    C17   A    
C51   C82   S    
C72   C74   A    
C40   C41   A    
C20   C22   A    
C50   N4    A    
C87   H49   S    
C81   H29   S    
C56   C62   A    
C85   H43   S    
C4    C10   A    
C79   H27   S    
C88   H52   S    
C78   O16   D    
C54   C58   A    
Cu2   N3    S    
C73   N1    S    
C46   N2    A    
Cu1   O8    S    
C60   H10   S    
C64   O11   S    
C6    C46   A    
C19   C21   A    
C9    C63   A    
C10   C64   A    
C41   C43   A    
C43   H21   S    
C3    C5    A    
C6    C8    A    
C45   O9    S    
C33   H4    S    
C25   H19   S    
C66   H15   S    
C51   N3    A    
C82   H32   S    
C12   C24   S    
C7    C25   A    
C13   C17   A    
C72   H12   S    
C83   H36   S    
C80   H28   S    
C64   N2    A    
C29   C31   A    
C83   H35   S    
C30   C32   A    
C57   C58   A    
C21   H17   S    
C20   C88   S    
C55   C61   A    
C36   C38   A    
C33   C35   A    
C34   C36   A    
C12   C70   A    
C76   O14   D    
C77   O15   D    
C57   C60   A    
Cu1   O4    S    
C87   H48   S    
C13   C16   A    
C29   C37   A    
C81   H30   S    
C14   C15   A    
C2    C28   S    
C86   H44   S    
C15   C17   A    
C1    O3    A    
C78   H26   S    
