data_mof_unit_48189.cif
_audit_creation_date              2012-12-11T15:55:40-0500
_audit_creation_method            fapswitch 2.2
_symmetry_space_group_name_H-M    P1
_symmetry_Int_Tables_number       1
_space_group_crystal_system       triclinic
_cell_length_a                    11.027402
_cell_length_b                    11.082054
_cell_length_c                    18.73609
_cell_angle_alpha                 90.730088
_cell_angle_beta                  90.633151
_cell_angle_gamma                 59.177144
_cell_volume                      1966.07788917

loop_
_atom_site_label
_atom_site_type_symbol
_atom_type_description
_atom_site_fract_x
_atom_site_fract_y
_atom_site_fract_z
_atom_type_partial_charge
C1    C     C_R   0.360815 0.763749 0.395110 0.539752
C2    C     C_R   0.638435 0.117893 0.168361 0.028629
C3    C     C_R   0.370910 0.330894 0.159398 0.004832
C4    C     C_R   0.483572 0.241828 0.272699 -0.154562
C5    C     C_R   0.493812 0.230949 0.198339 -0.021936
C6    C     C_R   0.052630 0.635765 0.353738 -0.088698
C7    C     C_R   0.914032 0.710630 0.378284 -0.116480
C8    C     C_R   0.665175 0.002350 0.122909 -0.079801
C9    C     C_R   0.801657 0.897682 0.104070 -0.140051
C10   C     C_R   0.259029 0.445148 0.195175 -0.164280
C11   C     C_R   0.243163 0.447484 0.269314 -0.040578
C12   C     C_R   0.384439 0.354782 0.387065 0.533096
C13   C     C_R   0.808968 0.702105 0.341553 -0.077579
C14   C     C_R   0.840966 0.626179 0.278116 -0.095950
C15   C     C_R   0.981180 0.543204 0.256498 -0.107023
C16   C     C_R   0.092820 0.539864 0.296106 0.004963
C17   C     C_R   0.362281 0.344770 0.309548 0.001572
C18   C     C_R   0.851650 0.340161 0.181204 0.020059
C19   C     C_R   0.937086 0.256087 0.236456 -0.002223
C20   C     C_R   0.891835 0.278816 0.305058 0.029261
C21   C     C_R   0.660955 0.456567 0.266456 -0.189412
C22   C     C_R   0.708407 0.435539 0.195381 -0.171299
C23   C     C_R   0.713230 0.415353 0.395307 0.557190
C24   C     C_3   0.087467 0.193144 0.257599 -0.294460
C25   C     C_3   0.036256 0.222687 0.335000 -0.263915
C26   C     C_R   0.757173 0.386128 0.322336 0.024558
C27   C     C_R   0.367235 0.822018 0.171891 0.006358
C28   C     C_R   0.447501 0.852683 0.219619 -0.008213
C29   C     C_R   0.439446 0.839523 0.292768 0.004535
C30   C     C_R   0.296124 0.738096 0.272025 -0.171736
C31   C     C_R   0.305935 0.748330 0.198750 -0.164412
C32   C     C_3   0.450607 0.983613 0.232324 -0.274062
C33   C     C_3   0.431977 0.973542 0.310943 -0.283048
C34   C     C_R   0.343741 0.768894 0.604197 0.554138
C35   C     C_R   0.355990 0.792263 0.319883 0.010190
C36   C     C_R   0.275393 0.274118 0.802800 0.015902
C37   C     C_R   0.396189 0.175956 0.766247 0.012189
C38   C     C_R   0.416002 0.192677 0.696009 0.015907
C39   C     C_R   0.184640 0.399008 0.689941 -0.159105
C40   C     C_R   0.163372 0.380485 0.762489 -0.154114
C41   C     C_3   0.549129 0.115485 0.784524 -0.264762
C42   C     C_3   0.571052 0.132343 0.707048 -0.247471
C43   C     C_R   0.318079 0.311793 0.658537 0.010907
C44   C     C_R   0.836790 0.318804 0.831305 -0.011049
C45   C     C_R   0.368298 0.348656 0.594923 0.537027
C46   C     C_R   0.806615 0.441400 0.797513 0.019005
C47   C     C_R   0.800052 0.451805 0.725259 -0.001062
C48   C     C_R   0.863716 0.209043 0.713763 0.038117
C49   C     C_R   0.873796 0.198525 0.788766 -0.145626
C50   C     C_3   0.686952 0.586569 0.809790 -0.276591
C51   C     C_3   0.677348 0.599063 0.729535 -0.250159
C52   C     C_R   0.819112 0.340306 0.681912 0.027399
C53   C     C_R   0.302271 0.851615 0.824274 0.005464
C54   C     C_R   0.215310 0.813884 0.789726 0.029073
C55   C     C_R   0.224553 0.795646 0.717131 0.070227
C56   C     C_R   0.765131 0.375999 0.609650 0.568810
C57   C     C_R   0.386285 0.879735 0.709027 -0.170147
C58   C     C_R   0.384763 0.889121 0.783144 -0.160007
C59   C     C_3   0.204829 0.686468 0.800949 -0.283314
C60   C     C_3   0.214705 0.666757 0.720750 -0.244159
C61   C     C_R   0.312099 0.824052 0.675804 0.031186
C62   C     C_R   0.909857 0.316741 0.110997 0.547350
C63   C     C_R   0.332498 0.295456 0.090537 0.548826
C64   C     C_R   0.309691 0.897434 0.104937 0.538860
C65   C     C_R   0.884095 0.307896 0.904513 0.540953
C66   C     C_R   0.269468 0.254755 0.879674 0.560276
C67   C     C_R   0.917291 0.897265 0.133886 -0.076418
C68   C     C_R   0.276155 0.894723 0.897979 0.538884
C69   C     C_R   0.896268 0.000298 0.183449 -0.073014
C70   C     C_R   0.759233 0.108592 0.199976 -0.105011
Cr1   Cr    Cr6+3 0.601740 0.606840 0.505840 1.002713
Cr2   Cr    Cr6+3 0.291500 0.601560 0.495070 1.000299
Cr3   Cr    Cr6+3 0.606780 0.291630 0.499130 1.035613
Cr4   Cr    Cr6+3 0.062440 0.063060 0.008240 1.016902
Cr5   Cr    Cr6+3 0.062950 0.375000 0.998920 0.997584
Cr6   Cr    Cr6+3 0.374550 0.061770 0.992470 0.985644
H1    H     H_    0.574281 0.164269 0.302582 0.143658
H2    H     H_    0.702923 0.756205 0.361629 0.132374
H3    H     H_    0.756975 0.631466 0.245879 0.134484
H4    H     H_    0.001549 0.483047 0.207804 0.138608
H5    H     H_    0.552123 0.529593 0.278111 0.128840
H6    H     H_    0.635717 0.495166 0.152787 0.126979
H7    H     H_    0.135834 0.253846 0.239868 0.137630
H8    H     H_    0.147991 0.079436 0.244237 0.149035
H9    H     H_    0.072116 0.125569 0.366402 0.147357
H10   H     H_    0.049958 0.305303 0.361514 0.166670
H11   H     H_    0.242087 0.687502 0.290835 0.141326
H12   H     H_    0.817634 0.811619 0.069577 0.102482
H13   H     H_    0.251972 0.712496 0.163752 0.125438
H14   H     H_    0.363767 0.077110 0.205593 0.153666
H15   H     H_    0.558674 0.960765 0.224916 0.145716
H16   H     H_    0.521188 0.962447 0.343742 0.134281
H17   H     H_    0.327833 0.054941 0.331710 0.143590
H18   H     H_    0.102136 0.487156 0.660871 0.130198
H19   H     H_    0.064312 0.453966 0.787779 0.139102
H20   H     H_    0.603227 0.003742 0.800944 0.130305
H21   H     H_    0.568415 0.185127 0.820150 0.160767
H22   H     H_    0.603700 0.210855 0.699007 0.178503
H23   H     H_    0.887558 0.778614 0.424695 0.111332
H24   H     H_    0.634279 0.030452 0.678386 0.166060
H25   H     H_    0.912112 0.097181 0.813233 0.162200
H26   H     H_    0.721216 0.655028 0.835777 0.142776
H27   H     H_    0.594285 0.589179 0.834389 0.133518
H28   H     H_    0.580222 0.605767 0.707668 0.155103
H29   H     H_    0.702996 0.676938 0.708825 0.144991
H30   H     H_    0.455159 0.902764 0.678859 0.130574
H31   H     H_    0.450402 0.923189 0.808442 0.147654
H32   H     H_    0.100258 0.713225 0.822389 0.150336
H33   H     H_    0.022557 0.813126 0.121070 0.114692
H34   H     H_    0.297487 0.601864 0.829985 0.134498
H35   H     H_    0.313573 0.570987 0.703285 0.137270
H36   H     H_    0.115432 0.683858 0.695744 0.165844
H37   H     H_    0.986471 0.994065 0.210300 0.130531
H38   H     H_    0.746130 0.181369 0.241531 0.127491
H39   H     H_    0.122272 0.662445 0.378316 0.185250
H40   H     H_    0.586504 0.976990 0.108263 0.171266
H41   H     H_    0.171695 0.524463 0.163913 0.123268
O1    O     O_R   0.748670 0.497520 0.427970 -0.508190
O2    O     O_R   0.300170 0.471020 0.567120 -0.507033
O3    O     O_R   0.491630 0.259030 0.574940 -0.507076
O4    O     O_R   0.718640 0.304340 0.577850 -0.469713
O5    O     O_3   0.500010 0.500010 0.500020 -0.280589
O6    O     O_R   0.186620 0.923750 0.087000 -0.526305
O7    O     O_R   0.957350 0.194160 0.084660 -0.484796
O8    O     O_R   0.935120 0.407280 0.085350 -0.533756
O9    O     O_R   0.203800 0.365060 0.067090 -0.505018
O10   O     O_R   0.417470 0.174910 0.067830 -0.533829
O11   O     O_R   0.375160 0.946380 0.070880 -0.516976
O12   O     O_R   0.476470 0.723930 0.429450 -0.514912
O13   O     O_R   0.160500 0.919670 0.926690 -0.511342
O14   O     O_R   0.933140 0.190380 0.936050 -0.505686
O15   O     O_R   0.909010 0.403210 0.925030 -0.523576
O16   O     O_R   0.179590 0.361290 0.918480 -0.503485
O17   O     O_R   0.391360 0.170840 0.907510 -0.523942
O18   O     O_R   0.350950 0.942600 0.922260 -0.529142
O19   O     O_3   0.166650 0.166610 0.999880 -0.263853
O20   O     O_R   0.264730 0.744140 0.416740 -0.548843
O21   O     O_R   0.309440 0.472410 0.418220 -0.525069
O22   O     O_R   0.501630 0.260530 0.414310 -0.530638
O23   O     O_R   0.727920 0.305730 0.428950 -0.493572
O24   O     O_R   0.738670 0.496020 0.588600 -0.520445
O25   O     O_R   0.467190 0.722540 0.578350 -0.516303
O26   O     O_R   0.254720 0.742640 0.577370 -0.489809
I1    I     I_    0.914119 0.027270 0.652112 -0.434289

loop_
_geom_bond_atom_site_label_1
_geom_bond_atom_site_label_2
_ccdc_geom_bond_type
C44   C49   A    
Cr2   O26   S    
Cr4   O7    S    
C21   C26   A    
C41   C42   S    
C54   C55   A    
Cr1   O5    S    
C19   C20   A    
C23   O1    A    
C62   O7    A    
Cr6   O19   S    
C53   C54   A    
C70   H38   S    
C69   H37   S    
C7    H23   S    
C30   C35   A    
C22   H6    S    
C21   C22   A    
C36   C37   A    
C24   H7    S    
C38   C42   S    
C1    O12   A    
C42   H22   S    
C9    H12   S    
C49   H25   S    
C30   C31   A    
C36   C66   S    
C32   H15   S    
C20   C25   S    
C15   C16   A    
C29   C33   S    
C59   H34   S    
C48   I1    S    
C18   C19   A    
C23   C26   S    
C4    H1    S    
C53   C68   S    
C36   C40   A    
C7    C13   A    
C66   O17   A    
C67   H33   S    
C32   H14   S    
C8    C9    A    
C31   H13   S    
Cr4   O19   S    
C12   C17   S    
Cr1   O24   S    
C45   O2    A    
Cr2   O21   S    
C57   H30   S    
C59   C60   S    
Cr3   O3    S    
C13   C14   A    
C44   C65   S    
C65   O14   A    
Cr6   O18   S    
C44   C46   A    
C54   C59   S    
Cr4   O14   S    
C34   O26   A    
C27   C31   A    
C23   O23   A    
C28   C32   S    
C24   C25   S    
C10   C11   A    
C33   H16   S    
C39   C40   A    
Cr6   O17   S    
Cr5   O19   S    
C18   C62   S    
C39   C43   A    
Cr3   O22   S    
C64   O11   A    
C51   H28   S    
C34   C61   S    
C33   H17   S    
Cr5   O8    S    
C9    C67   A    
C39   H18   S    
C37   C38   A    
C60   H36   S    
C42   H24   S    
Cr1   O12   S    
C66   O16   A    
C34   O25   A    
C11   C16   S    
C15   H4    S    
C48   C52   A    
C51   H29   S    
C25   H9    S    
C50   C51   S    
C12   O22   A    
C14   H3    S    
C68   O13   A    
C43   C45   S    
C47   C52   A    
Cr1   O25   S    
C56   O24   A    
C45   O3    A    
Cr2   O20   S    
C21   H5    S    
C50   H26   S    
Cr3   O4    S    
Cr4   O13   S    
Cr6   O11   S    
C41   H21   S    
C2    C5    S    
C4    C17   A    
C40   H19   S    
C58   H31   S    
C65   O15   A    
C1    O20   A    
Cr5   O15   S    
C1    C35   S    
C46   C50   S    
C46   C47   A    
C28   C29   A    
Cr1   O1    S    
Cr2   O5    S    
C18   C22   A    
C68   O18   A    
C2    C8    A    
C4    C5    A    
C3    C5    A    
C11   C17   A    
C62   O8    A    
C47   C51   S    
C53   C58   A    
Cr5   O16   S    
C57   C61   A    
C6    C7    A    
Cr3   O23   S    
C3    C63   S    
C64   O6    A    
C29   C35   A    
C8    H40   S    
C59   H32   S    
C10   H41   S    
Cr5   O9    S    
C32   C33   S    
C19   C24   S    
C24   H8    S    
C38   C43   A    
C60   H35   S    
C2    C70   A    
C56   O4    A    
C57   C58   A    
C20   C26   A    
C48   C49   A    
C55   C61   A    
Cr2   O2    S    
C25   H10   S    
Cr4   O6    S    
C12   O21   A    
C37   C41   S    
C69   C70   A    
C6    H39   S    
C63   O9    A    
C27   C64   S    
C13   H2    S    
C6    C16   A    
C41   H20   S    
C50   H27   S    
Cr3   O5    S    
C27   C28   A    
C3    C10   A    
Cr6   O10   S    
C14   C15   A    
C67   C69   A    
C30   H11   S    
C55   C60   S    
C63   O10   A    
C52   C56   S    
