data_mof_unit_7941.cif
_audit_creation_date              2012-12-10T18:43:06-0500
_audit_creation_method            fapswitch 2.2
_symmetry_space_group_name_H-M    P1
_symmetry_Int_Tables_number       1
_space_group_crystal_system       triclinic
_cell_length_a                    10.614599
_cell_length_b                    9.942851
_cell_length_c                    10.784236
_cell_angle_alpha                 90.339419
_cell_angle_beta                  91.183976
_cell_angle_gamma                 90.567681
_cell_volume                      1137.84131209

loop_
_atom_site_label
_atom_site_type_symbol
_atom_type_description
_atom_site_fract_x
_atom_site_fract_y
_atom_site_fract_z
_atom_type_partial_charge
C1    C     C_R   0.260633 0.499596 0.500960 0.985147
C2    C     C_R   0.739548 0.500440 0.502002 0.967308
C3    C     C_R   0.494443 0.499308 0.263028 0.832571
C4    C     C_R   0.500829 0.499978 0.736695 0.863892
C5    C     C_2   0.457635 0.399665 0.932952 -0.093467
C6    C     C_2   0.493836 0.390919 0.061980 -0.070255
C7    C     C_2   0.516458 0.496739 0.868225 0.311473
C8    C     C_2   0.460860 0.495985 0.133420 0.302622
C9    C     C_R   0.061818 0.432657 0.410924 -0.259843
C10   C     C_R   0.932995 0.430635 0.412779 -0.208313
C11   C     C_R   0.872287 0.500905 0.505715 -0.099364
C12   C     C_R   0.128336 0.499724 0.505088 -0.080639
C13   C     C_R   0.937543 0.571761 0.600030 0.331860
C14   C     C_R   0.069439 0.566906 0.602256 0.378285
C15   C     C_R   0.591300 0.073319 0.563290 -0.052213
C16   C     C_R   0.408558 0.069032 0.435585 -0.115034
C17   C     C_R   0.590271 0.930755 0.565342 0.377024
C18   C     C_R   0.410935 0.924334 0.433022 0.456288
H1    H     H_    0.109859 0.383868 0.335568 0.188971
H2    H     H_    0.880495 0.377870 0.340039 0.208411
N1    N     N_R   0.500000 0.857200 0.500000 -0.156645
N2    N     N_R   0.500000 0.142810 0.500000 -0.202367
O1    O     O_R   0.316770 0.614620 0.499990 -0.536201
O2    O     O_R   0.683230 0.614620 0.500010 -0.596379
O3    O     O_R   0.316800 0.385290 0.500000 -0.608585
O4    O     O_R   0.683200 0.385290 0.500000 -0.630071
O5    O     O_R   0.500000 0.614630 0.319080 -0.590513
O6    O     O_R   0.500000 0.614630 0.680920 -0.634763
O7    O     O_R   0.500030 0.385300 0.319080 -0.591996
O8    O     O_R   0.499970 0.385300 0.680920 -0.600517
Zn1   Zn    Zn3+2 0.500000 0.653120 0.500000 1.066564
Zn2   Zn    Zn3+2 0.500000 0.346880 0.500000 1.038365
C19   C     C_2   0.349103 0.314650 0.887385 0.956143
O9    O     O_2   0.282082 0.351075 0.800523 -0.608900
O10   O     O_R   0.319648 0.195707 0.949459 -0.730129
H3    H     H_    0.243191 0.147583 0.911913 0.360336
C20   C     C_2   0.586224 0.284926 0.097107 0.982644
O11   O     O_2   0.575402 0.172258 0.051826 -0.535831
O12   O     O_R   0.689265 0.315530 0.175478 -0.811640
H4    H     H_    0.745395 0.235104 0.190593 0.347901
O13   O     O_3   0.604593 0.581408 0.926390 -0.712176
H5    H     H_    0.645261 0.638656 0.863424 0.366393
O14   O     O_3   0.384442 0.595657 0.083376 -0.718925
H6    H     H_    0.358168 0.657961 0.149830 0.368678
O15   O     O_3   0.870386 0.641727 0.687365 -0.763990
H7    H     H_    0.922449 0.718450 0.718398 0.373062
O16   O     O_3   0.142784 0.621898 0.697531 -0.724221
H8    H     H_    0.093401 0.622666 0.774397 0.359421
C21   C     C_2   0.691719 0.145001 0.633557 1.084604
O17   O     O_2   0.669403 0.196510 0.733717 -0.601516
O18   O     O_R   0.814149 0.146670 0.588281 -0.762084
H9    H     H_    0.875535 0.197804 0.644817 0.350183
C22   C     C_2   0.301396 0.136770 0.374933 0.964240
O19   O     O_2   0.317622 0.208262 0.284950 -0.613829
O20   O     O_R   0.179568 0.108800 0.415122 -0.766079
H10   H     H_    0.111965 0.149560 0.359835 0.345188
O21   O     O_3   0.682426 0.869223 0.635578 -0.714510
H11   H     H_    0.653246 0.777908 0.654198 0.396864
O22   O     O_3   0.325422 0.847913 0.363970 -0.708951
H12   H     H_    0.284830 0.903845 0.299360 0.335507

loop_
_geom_bond_atom_site_label_1
_geom_bond_atom_site_label_2
_ccdc_geom_bond_type
C1    O3    A    
O20   H10   S    
O6    Zn1   S    
O4    Zn2   S    
C20   O11   D    
C18   N1    A    
C11   C13   A    
C9    C10   A    
C22   O20   S    
O10   H3    S    
C8    O14   S    
O14   H6    S    
O3    Zn2   S    
C7    O13   S    
C19   O9    D    
C6    C20   S    
O22   H12   S    
C2    O4    A    
C16   C18   A    
C13   C14   A    
O8    Zn2   S    
N1    Zn1   S    
O21   H11   S    
C14   O16   S    
C1    C12   S    
N2    Zn2   S    
C4    C7    S    
C6    C8    D    
C2    C11   S    
C3    O5    A    
C19   O10   S    
C12   C14   A    
C1    O1    A    
O7    Zn2   S    
C15   C21   S    
C3    C8    S    
C2    O2    A    
C5    C6    S    
C20   O12   S    
C9    C12   A    
C4    O8    A    
O2    Zn1   S    
C10   C11   A    
O5    Zn1   S    
O18   H9    S    
O15   H7    S    
C18   O22   S    
C13   O15   S    
C5    C7    D    
C21   O17   D    
O13   H5    S    
C10   H2    S    
O12   H4    S    
C3    O7    A    
C16   C22   S    
C16   N2    A    
C4    O6    A    
C15   C17   A    
C9    H1    S    
C15   N2    A    
C17   N1    A    
O16   H8    S    
C22   O19   D    
C17   O21   S    
C21   O18   S    
O1    Zn1   S    
C5    C19   S    
