data_mof_unit_5707.cif
_audit_creation_date              2012-12-10T18:59:16-0500
_audit_creation_method            fapswitch 2.2
_symmetry_space_group_name_H-M    P1
_symmetry_Int_Tables_number       1
_space_group_crystal_system       triclinic
_cell_length_a                    10.765653
_cell_length_b                    10.807188
_cell_length_c                    9.554726
_cell_angle_alpha                 90.06912
_cell_angle_beta                  90.071077
_cell_angle_gamma                 90.150426
_cell_volume                      1111.65281631

loop_
_atom_site_label
_atom_site_type_symbol
_atom_type_description
_atom_site_fract_x
_atom_site_fract_y
_atom_site_fract_z
_atom_type_partial_charge
C1    C     C_R   0.497861 0.262452 0.499750 0.777726
C2    C     C_R   0.065651 0.393767 0.574456 0.096932
C3    C     C_R   0.128976 0.487845 0.500081 -0.099125
C4    C     C_R   0.064207 0.576425 0.423326 -0.220010
C5    C     C_R   0.936144 0.576407 0.423426 -0.214025
C6    C     C_R   0.871125 0.487873 0.500399 -0.099155
C7    C     C_R   0.441292 0.063466 0.610835 0.088795
C8    C     C_R   0.488127 0.129352 0.496765 -0.077395
C9    C     C_R   0.519888 0.064525 0.374299 -0.209258
C10   C     C_R   0.521892 0.935844 0.374766 -0.228911
C11   C     C_R   0.491326 0.870865 0.497164 -0.111157
C12   C     C_R   0.262647 0.496207 0.500022 0.782993
C13   C     C_R   0.444106 0.936188 0.611067 0.064463
C14   C     C_3   0.476318 0.930223 0.763249 -0.190051
C15   C     C_3   0.469734 0.071357 0.763846 -0.503744
C16   C     C_R   0.607020 0.521521 0.073771 0.270684
C17   C     C_R   0.397173 0.466511 0.074040 -0.073959
C18   C     C_R   0.397156 0.466520 0.925504 -0.066212
C19   C     C_R   0.607178 0.520946 0.926552 0.262599
C20   C     C_3   0.686938 0.633634 0.920662 -0.498566
C21   C     C_3   0.686042 0.634843 0.079585 -0.507353
C22   C     C_R   0.499583 0.737626 0.499819 0.789226
C23   C     C_R   0.737380 0.496065 0.500114 0.789339
C24   C     C_R   0.129543 0.297515 0.644186 -0.200635
C25   C     C_R   0.064514 0.204781 0.714361 -0.141031
C26   C     C_R   0.935293 0.204937 0.714815 -0.137992
C27   C     C_R   0.870320 0.297750 0.644991 -0.188359
C28   C     C_R   0.934314 0.393837 0.574743 0.094368
Cu1   Cu    Cu3+1 0.499990 0.499980 0.640670 0.931116
Cu2   Cu    Cu3+1 0.500010 0.500020 0.359330 0.934272
H1    H     H_    0.113243 0.647719 0.365688 0.138687
H2    H     H_    0.572337 0.896062 0.780347 0.144291
H3    H     H_    0.390283 0.110038 0.823876 0.193313
H4    H     H_    0.560827 0.116278 0.785530 0.191800
H5    H     H_    0.313187 0.440819 0.128612 0.146710
H6    H     H_    0.313161 0.440812 0.870651 0.145588
H7    H     H_    0.780022 0.613798 0.875792 0.197373
H8    H     H_    0.638245 0.713603 0.873622 0.208092
H9    H     H_    0.778798 0.616142 0.125990 0.194330
H10   H     H_    0.636407 0.715684 0.124557 0.206638
H11   H     H_    0.229713 0.291240 0.643177 0.144950
H12   H     H_    0.114650 0.131626 0.767087 0.136466
H13   H     H_    0.885094 0.131914 0.767963 0.129945
H14   H     H_    0.770098 0.291675 0.644665 0.145224
H15   H     H_    0.887355 0.647680 0.365761 0.141426
H16   H     H_    0.550276 0.112667 0.280983 0.161498
H17   H     H_    0.553946 0.887888 0.282185 0.150027
N1    N     N_R   0.500790 0.500930 0.147930 -0.186981
N2    N     N_R   0.500790 0.500890 0.852020 -0.184639
O1    O     O_R   0.500000 0.319640 0.618810 -0.591170
O2    O     O_R   0.500010 0.319680 0.381230 -0.581712
O3    O     O_R   0.319640 0.499980 0.618820 -0.593363
O4    O     O_R   0.319650 0.500020 0.381230 -0.585547
O5    O     O_R   0.499990 0.680320 0.618770 -0.575022
O6    O     O_R   0.500000 0.680360 0.381190 -0.584925
O7    O     O_R   0.680350 0.499980 0.618770 -0.586363
O8    O     O_R   0.680360 0.500020 0.381180 -0.576580
C29   C     C_R   0.381000 0.867044 0.855954 0.163794
C30   C     C_R   0.396756 0.872917 0.001762 -0.176919
C31   C     C_R   0.314964 0.810537 0.090994 -0.110395
C32   C     C_R   0.216827 0.741323 0.035557 -0.127861
C33   C     C_R   0.200132 0.734425 0.890828 -0.158314
C34   C     C_R   0.281512 0.796682 0.801177 -0.076660
H18   H     H_    0.473138 0.925338 0.045987 0.121342
H19   H     H_    0.327788 0.815363 0.203174 0.146872
H20   H     H_    0.154025 0.692557 0.104664 0.122832
H21   H     H_    0.124513 0.680062 0.847908 0.133231
H22   H     H_    0.266802 0.788312 0.689544 0.116447

loop_
_geom_bond_atom_site_label_1
_geom_bond_atom_site_label_2
_ccdc_geom_bond_type
C25   H12   S    
C31   H19   S    
Cu2   O2    S    
C15   H4    S    
C22   O6    A    
C20   H7    S    
Cu1   O7    S    
C1    C8    S    
C20   H8    S    
C9    C10   A    
C19   N2    A    
C11   C22   S    
C19   C20   S    
C21   H9    S    
C17   N1    A    
C7    C13   A    
Cu1   O5    S    
C10   C11   A    
C16   N1    A    
C33   C34   A    
C7    C15   S    
C2    C3    A    
C30   H18   S    
C30   C31   A    
C22   O5    A    
C25   C26   A    
Cu1   N2    S    
C13   C14   S    
C20   C21   S    
C29   C34   A    
C24   H11   S    
C1    O2    A    
C26   C27   A    
C16   C21   S    
C21   H10   S    
C18   H6    S    
C33   H21   S    
C16   C19   A    
C6    C23   S    
C32   H20   S    
Cu2   N1    S    
C12   O3    A    
C26   H13   S    
C17   C18   A    
C9    H16   S    
Cu1   O1    S    
C2    C24   A    
C5    C6    A    
C14   C29   S    
Cu2   O4    S    
C11   C13   A    
C7    C8    A    
C32   C33   A    
Cu1   Cu2   S    
C3    C4    A    
C4    H1    S    
Cu2   O8    S    
C23   O7    A    
C24   C25   A    
Cu2   O6    S    
C34   H22   S    
C10   H17   S    
C23   O8    A    
C14   C15   S    
C8    C9    A    
C2    C28   A    
C3    C12   S    
C17   H5    S    
C29   C30   A    
C1    O1    A    
C4    C5    A    
C5    H15   S    
C27   H14   S    
C15   H3    S    
C6    C28   A    
C12   O4    A    
C18   N2    A    
C14   H2    S    
C31   C32   A    
C27   C28   A    
Cu1   O3    S    
