data_mof_unit_40235.cif
_audit_creation_date              2012-12-11T15:08:34-0500
_audit_creation_method            fapswitch 2.2
_symmetry_space_group_name_H-M    P1
_symmetry_Int_Tables_number       1
_space_group_crystal_system       triclinic
_cell_length_a                    26.055519
_cell_length_b                    27.43019
_cell_length_c                    8.43841
_cell_angle_alpha                 89.936336
_cell_angle_beta                  95.6486
_cell_angle_gamma                 90.037447
_cell_volume                      6001.70825256

loop_
_atom_site_label
_atom_site_type_symbol
_atom_type_description
_atom_site_fract_x
_atom_site_fract_y
_atom_site_fract_z
_atom_type_partial_charge
Ba1   Ba    Ba6+2 0.999910 0.465960 0.844870 1.630524
Ba2   Ba    Ba6+2 0.999910 0.534040 0.344870 1.631421
Ba3   Ba    Ba6+2 0.499910 0.965960 0.844870 1.636973
Ba4   Ba    Ba6+2 0.499910 0.034040 0.344870 1.639902
C1    C     C_3   0.028695 0.241259 0.490629 -0.383841
C2    C     C_3   0.036095 0.762259 0.085719 -0.369560
C3    C     C_3   0.529750 0.741545 0.493939 -0.381581
C4    C     C_3   0.536755 0.261658 0.080020 -0.369046
C5    C     C_R   0.883519 0.391584 0.151658 0.080855
C6    C     C_R   0.885882 0.609773 0.649885 0.070206
C7    C     C_R   0.383489 0.891549 0.151685 0.080594
C8    C     C_R   0.385576 0.109655 0.650090 0.071311
C9    C     C_R   0.844349 0.358022 0.100685 -0.128817
C10   C     C_R   0.847733 0.644272 0.597514 -0.134847
C11   C     C_R   0.344038 0.858206 0.101216 -0.128735
C12   C     C_R   0.346844 0.143679 0.598613 -0.132009
C13   C     C_R   0.831214 0.319828 0.202446 -0.011273
C14   C     C_R   0.836384 0.684005 0.695889 -0.019103
C15   C     C_R   0.330822 0.820064 0.203077 -0.010878
C16   C     C_R   0.335232 0.183225 0.697262 -0.018871
C17   C     C_R   0.855763 0.318565 0.359244 -0.127097
C18   C     C_R   0.862204 0.686222 0.850997 -0.133975
C19   C     C_R   0.355711 0.818552 0.359461 -0.127293
C20   C     C_R   0.361528 0.185849 0.851734 -0.134043
C21   C     C_R   0.895656 0.351377 0.406912 0.003462
C22   C     C_R   0.901414 0.652953 0.900354 0.009594
C23   C     C_R   0.395843 0.851162 0.406739 0.002850
C24   C     C_R   0.401130 0.152884 0.900551 0.009495
C25   C     C_R   0.798800 0.231383 0.161901 0.072274
C26   C     C_R   0.801137 0.772161 0.664166 0.073344
C27   C     C_R   0.297314 0.731971 0.162611 0.072512
C28   C     C_R   0.299010 0.270883 0.664524 0.073942
C29   C     C_R   0.256289 0.700157 0.111561 -0.090526
C30   C     C_R   0.257287 0.302021 0.615004 -0.081764
C31   C     C_R   0.758213 0.199158 0.110164 -0.090235
C32   C     C_R   0.760019 0.803740 0.612411 -0.080274
C33   C     C_R   0.208584 0.717611 0.042418 0.047861
C34   C     C_R   0.210252 0.284068 0.542625 0.042232
C35   C     C_R   0.710530 0.216156 0.039459 0.048578
C36   C     C_R   0.713201 0.786265 0.537216 0.041743
C37   C     C_R   0.202179 0.768156 0.023967 -0.081704
C38   C     C_R   0.205232 0.233611 0.519262 -0.083442
C39   C     C_R   0.703639 0.266615 0.020221 -0.082017
C40   C     C_R   0.707812 0.735899 0.512542 -0.084015
C41   C     C_R   0.742989 0.299319 0.073807 -0.100458
C42   C     C_R   0.747928 0.703743 0.564528 -0.094852
C43   C     C_R   0.242021 0.800464 0.076750 -0.100693
C44   C     C_R   0.245895 0.201859 0.570009 -0.095586
C45   C     C_3   0.011445 0.279896 0.937545 0.365799
C46   C     C_3   0.980189 0.708162 0.547865 0.349459
C47   C     C_3   0.510758 0.780271 0.943762 0.365990
C48   C     C_3   0.483438 0.208469 0.546821 0.345494
C49   C     C_R   0.790838 0.282774 0.146619 0.059594
C50   C     C_R   0.795166 0.720729 0.641306 0.047341
C51   C     C_R   0.289886 0.783435 0.148020 0.059355
C52   C     C_R   0.293353 0.219393 0.643669 0.047413
C53   C     C_R   0.137449 0.687894 0.838395 -0.138445
C54   C     C_R   0.142482 0.316421 0.332531 -0.128960
C55   C     C_R   0.640566 0.185477 0.833591 -0.140294
C56   C     C_R   0.645258 0.818606 0.327660 -0.129755
C57   C     C_R   0.099480 0.653460 0.785855 0.006798
C58   C     C_R   0.105769 0.351951 0.279133 0.038085
C59   C     C_R   0.602589 0.151020 0.781473 0.023954
C60   C     C_R   0.607952 0.853700 0.275208 0.041968
C61   C     C_R   0.117677 0.608129 0.033029 0.020860
C62   C     C_R   0.117866 0.392302 0.533897 0.028751
C63   C     C_R   0.619156 0.107094 0.031088 0.004468
C64   C     C_R   0.620349 0.894003 0.530019 0.013399
C65   C     C_R   0.155552 0.642463 0.085650 -0.134298
C66   C     C_R   0.153446 0.356161 0.590187 -0.139363
C67   C     C_R   0.657171 0.141311 0.083623 -0.139313
C68   C     C_R   0.656892 0.858643 0.585017 -0.140222
C69   C     C_R   0.166120 0.682682 0.988868 0.000029
C70   C     C_R   0.167506 0.318644 0.488517 -0.008157
C71   C     C_R   0.668510 0.180889 0.985314 0.000252
C72   C     C_R   0.670840 0.821161 0.482974 -0.003718
C73   C     C_R   0.089489 0.614378 0.884635 -0.263186
C74   C     C_R   0.094195 0.389636 0.379149 -0.268640
C75   C     C_R   0.591973 0.112500 0.881065 -0.252134
C76   C     C_R   0.596283 0.891203 0.375726 -0.252667
C77   C     C_3   0.007400 0.225101 0.910437 -0.412044
C78   C     C_3   0.954315 0.756901 0.508329 -0.364831
C79   C     C_3   0.506448 0.725480 0.917339 -0.411537
C80   C     C_3   0.458831 0.258034 0.512041 -0.365308
C81   C     C_3   0.180935 0.494858 0.071454 0.317811
C82   C     C_3   0.189162 0.491729 0.561006 0.351868
C83   C     C_3   0.684347 0.999881 0.072104 0.335823
C84   C     C_3   0.690543 0.993772 0.580275 0.348782
C85   C     C_3   0.229074 0.526682 0.064286 -0.401193
C86   C     C_3   0.236093 0.458308 0.594957 -0.448596
C87   C     C_3   0.734946 0.028513 0.101075 -0.407122
C88   C     C_3   0.737531 0.963206 0.642923 -0.417211
C89   C     C_3   0.852115 0.531272 0.965229 0.311435
C90   C     C_3   0.848789 0.470672 0.460472 0.315486
C91   C     C_3   0.352002 0.031248 0.965372 0.311503
C92   C     C_3   0.348933 0.970575 0.460537 0.315333
C93   C     C_3   0.803042 0.561619 0.944339 -0.393177
C94   C     C_3   0.798519 0.442067 0.439633 -0.395670
C95   C     C_3   0.302867 0.061509 0.944792 -0.393744
C96   C     C_3   0.298684 0.941937 0.439741 -0.395788
C97   C     C_3   0.996983 0.287854 0.480274 0.292436
C98   C     C_3   0.012288 0.711684 0.071570 0.337918
C99   C     C_3   0.497859 0.788026 0.482478 0.294825
C100  C     C_3   0.512730 0.211142 0.068871 0.337239
C101  C     C_R   0.910538 0.386241 0.301111 -0.287932
C102  C     C_R   0.914174 0.616077 0.797694 -0.284335
C103  C     C_R   0.410708 0.886024 0.300816 -0.287341
C104  C     C_R   0.414049 0.116160 0.797531 -0.284195
H1    H     H_    0.024261 0.319128 0.486877 0.015218
H2    H     H_    0.040025 0.685580 0.133988 0.068044
H3    H     H_    0.525052 0.819404 0.490065 0.012822
H4    H     H_    0.540430 0.185211 0.132352 0.064560
H5    H     H_    0.256300 0.521430 0.172806 0.107294
H6    H     H_    0.224522 0.419936 0.601486 0.081057
H7    H     H_    0.753841 0.021573 0.222399 0.119837
H8    H     H_    0.726924 0.924695 0.655392 0.071696
H9    H     H_    0.248803 0.517682 0.957427 0.098811
H10   H     H_    0.258679 0.468721 0.708220 0.121883
H11   H     H_    0.761934 0.017795 0.013600 0.083909
H12   H     H_    0.754340 0.976240 0.760856 0.116134
H13   H     H_    0.218418 0.565662 0.056127 0.071687
H14   H     H_    0.261575 0.461269 0.497262 0.084853
H15   H     H_    0.727580 0.068114 0.088659 0.073425
H16   H     H_    0.767679 0.965034 0.558746 0.084765
H17   H     H_    0.867235 0.527025 0.848146 0.020410
H18   H     H_    0.862728 0.476172 0.342083 0.022892
H19   H     H_    0.367077 0.027053 0.848198 0.019929
H20   H     H_    0.362898 0.976050 0.342180 0.022502
H21   H     H_    0.880830 0.550194 0.049855 0.057504
H22   H     H_    0.877537 0.449905 0.539801 0.040301
H23   H     H_    0.380721 0.050189 0.049940 0.056771
H24   H     H_    0.377689 0.949855 0.539987 0.040493
H25   H     H_    0.773675 0.543054 0.861001 0.126342
H26   H     H_    0.768697 0.463334 0.366120 0.127558
H27   H     H_    0.273515 0.042936 0.861419 0.126250
H28   H     H_    0.268871 0.963142 0.365971 0.127430
H29   H     H_    0.810856 0.597943 0.895220 0.066242
H30   H     H_    0.803998 0.407029 0.379046 0.065082
H31   H     H_    0.310586 0.097871 0.895877 0.066178
H32   H     H_    0.304200 0.906863 0.379472 0.065099
H33   H     H_    0.787461 0.566514 0.061167 0.122514
H34   H     H_    0.784788 0.434559 0.557767 0.120303
H35   H     H_    0.287311 0.066303 0.061700 0.122414
H36   H     H_    0.284913 0.934508 0.557871 0.120318
H37   H     H_    0.973231 0.288132 0.363291 0.015772
H38   H     H_    0.005999 0.702243 0.942883 -0.052833
H39   H     H_    0.474505 0.788273 0.364786 0.014723
H40   H     H_    0.506290 0.201071 0.940714 -0.054637
H41   H     H_    0.051992 0.239082 0.387516 0.107936
H42   H     H_    0.072781 0.762654 0.029049 0.071720
H43   H     H_    0.553724 0.739626 0.392345 0.106602
H44   H     H_    0.573350 0.261554 0.022821 0.071584
H45   H     H_    0.055289 0.241051 0.601774 0.104854
H46   H     H_    0.044252 0.772354 0.213142 0.134205
H47   H     H_    0.555693 0.741272 0.606452 0.105321
H48   H     H_    0.545137 0.272366 0.206821 0.131400
H49   H     H_    0.996281 0.206544 0.018562 0.119505
H50   H     H_    0.964282 0.783185 0.606580 0.097343
H51   H     H_    0.496626 0.707009 0.027177 0.119124
H52   H     H_    0.468712 0.283036 0.613943 0.098917
H53   H     H_    0.177112 0.637456 0.200935 0.073770
H54   H     H_    0.171552 0.358070 0.710756 0.086112
H55   H     H_    0.678003 0.136901 0.200286 0.075274
H56   H     H_    0.674878 0.860652 0.706099 0.081210
H57   H     H_    0.261973 0.661104 0.121835 0.051314
H58   H     H_    0.262233 0.341022 0.628462 0.061642
H59   H     H_    0.764207 0.160164 0.121226 0.053211
H60   H     H_    0.765193 0.842722 0.626830 0.060744
H61   H     H_    0.823948 0.361974 0.983258 0.084460
H62   H     H_    0.826511 0.639651 0.481642 0.088775
H63   H     H_    0.323418 0.862340 0.984172 0.083748
H64   H     H_    0.325335 0.138807 0.483288 0.086908
H65   H     H_    0.165896 0.782834 0.971086 0.066394
H66   H     H_    0.169427 0.218600 0.463771 0.067646
H67   H     H_    0.667326 0.280911 0.966163 0.066772
H68   H     H_    0.672096 0.721248 0.455187 0.067874
H69   H     H_    0.735730 0.338039 0.059844 0.067671
H70   H     H_    0.741605 0.665046 0.546316 0.067054
H71   H     H_    0.235144 0.839259 0.063366 0.067706
H72   H     H_    0.239900 0.163070 0.553043 0.067108
H73   H     H_    0.145551 0.717750 0.760593 0.078579
H74   H     H_    0.151647 0.287512 0.252712 0.080085
H75   H     H_    0.648852 0.215153 0.755303 0.078879
H76   H     H_    0.654217 0.789596 0.247947 0.078845
H77   H     H_    0.843884 0.292574 0.444821 0.071800
H78   H     H_    0.851669 0.713435 0.934306 0.084040
H79   H     H_    0.343801 0.792620 0.445177 0.071509
H80   H     H_    0.350977 0.213077 0.934998 0.084002
H81   H     H_    0.060625 0.587723 0.843114 0.076474
H82   H     H_    0.066512 0.417135 0.335648 0.078198
H83   H     H_    0.562894 0.085989 0.839958 0.078344
H84   H     H_    0.567739 0.918112 0.333689 0.076356
H85   H     H_    0.002851 0.209014 0.489110 0.118825
H86   H     H_    0.009273 0.789381 0.024996 0.112483
H87   H     H_    0.504001 0.709202 0.490498 0.118610
H88   H     H_    0.509976 0.288605 0.018172 0.113102
H89   H     H_    0.941431 0.411252 0.339450 0.064554
H90   H     H_    0.943771 0.590014 0.838228 0.064880
H91   H     H_    0.441725 0.910929 0.338894 0.063713
H92   H     H_    0.443966 0.090350 0.837516 0.064188
H93   H     H_    0.029691 0.295853 0.835841 0.095119
H94   H     H_    0.965073 0.681673 0.455562 0.112534
H95   H     H_    0.527742 0.796111 0.839640 0.099024
H96   H     H_    0.468451 0.183332 0.450240 0.113807
H97   H     H_    0.972239 0.295360 0.942192 0.064956
H98   H     H_    0.970164 0.696040 0.666653 -0.046017
H99   H     H_    0.471755 0.795775 0.952384 0.059030
H100  H     H_    0.472165 0.195116 0.662866 -0.042939
H101  H     H_    0.978133 0.216878 0.809452 0.122956
H102  H     H_    0.911856 0.751897 0.491088 0.077179
H103  H     H_    0.476177 0.717267 0.819089 0.121257
H104  H     H_    0.416308 0.253919 0.491898 0.076912
H105  H     H_    0.045305 0.210467 0.883498 0.111125
H106  H     H_    0.967261 0.771927 0.396735 0.154113
H107  H     H_    0.543905 0.710832 0.886360 0.111751
H108  H     H_    0.472795 0.274002 0.403199 0.149966
H109  H     H_    0.156066 0.497291 0.958721 0.100270
H110  H     H_    0.168232 0.479359 0.448717 0.059248
H111  H     H_    0.664518 0.011824 0.957304 0.055663
H112  H     H_    0.674941 0.979077 0.463520 0.038116
O1    O     O_2   0.898940 0.431940 0.867860 -0.462880
O2    O     O_2   0.898940 0.568060 0.367860 -0.463816
O3    O     O_2   0.398940 0.931940 0.867860 -0.463016
O4    O     O_2   0.398940 0.068060 0.367860 -0.464204
O5    O     O_3   0.156621 0.489718 0.685598 -0.639398
O6    O     O_3   0.154304 0.509805 0.198459 -0.651778
O7    O     O_3   0.652582 0.993461 0.688368 -0.625991
O8    O     O_3   0.653498 0.008168 0.196589 -0.633071
O9    O     O_3   0.040572 0.288199 0.083327 -0.642150
O10   O     O_3   0.033762 0.713576 0.547947 -0.603047
O11   O     O_3   0.541526 0.788745 0.086629 -0.641389
O12   O     O_3   0.537255 0.212927 0.551418 -0.607833
O13   O     O_3   0.058810 0.523750 0.066650 -0.467712
O14   O     O_3   0.058810 0.476250 0.566650 -0.461047
O15   O     O_3   0.558810 0.023750 0.066650 -0.462946
O16   O     O_3   0.558810 0.976250 0.566650 -0.452615
O17   O     O_3   0.941140 0.476130 0.123050 -0.491051
O18   O     O_3   0.941140 0.523870 0.623050 -0.489122
O19   O     O_3   0.441140 0.976130 0.123050 -0.491548
O20   O     O_3   0.441140 0.023870 0.623050 -0.489308
O21   O     O_3   0.982430 0.389880 0.635700 -0.478670
O22   O     O_3   0.982430 0.610120 0.135700 -0.486303
O23   O     O_3   0.482430 0.889880 0.635700 -0.479698
O24   O     O_3   0.482430 0.110120 0.135700 -0.488121
O25   O     O_2   0.901135 0.344816 0.743172 -0.490737
O26   O     O_2   0.897206 0.650362 0.230346 -0.494102
O27   O     O_2   0.401236 0.844749 0.743154 -0.490370
O28   O     O_2   0.397708 0.150920 0.231514 -0.493520
O29   O     O_3   0.839674 0.485714 0.024501 -0.638713
O30   O     O_3   0.838752 0.515530 0.528440 -0.637042
O31   O     O_3   0.339642 0.985664 0.024584 -0.638824
O32   O     O_3   0.338816 0.015444 0.528288 -0.637396
O33   O     O_3   0.965223 0.289216 0.606035 -0.621704
O34   O     O_3   0.965614 0.711620 0.142319 -0.604777
O35   O     O_3   0.465570 0.789178 0.606930 -0.620680
O36   O     O_3   0.466143 0.211657 0.140181 -0.604751
O37   O     O_2   0.100770 0.431440 0.821660 -0.457295
O38   O     O_2   0.100770 0.568560 0.321660 -0.437915
O39   O     O_2   0.600770 0.931440 0.821660 -0.461347
O40   O     O_2   0.600770 0.068560 0.321660 -0.444143
O41   O     O_3   0.017130 0.389790 0.053700 -0.476958
O42   O     O_3   0.017130 0.610210 0.553700 -0.491239
O43   O     O_3   0.517130 0.889790 0.053700 -0.478186
O44   O     O_3   0.517130 0.110210 0.553700 -0.491397
O45   O     O_2   0.101654 0.347585 0.946252 -0.508027
O46   O     O_2   0.100113 0.652500 0.453114 -0.483967
O47   O     O_2   0.600882 0.847453 0.941785 -0.511738
O48   O     O_2   0.601285 0.150728 0.449965 -0.480368
P1    P     P_3+3 0.893960 0.447890 0.040050 0.985537
P2    P     P_3+3 0.893960 0.552110 0.540050 0.982597
P3    P     P_3+3 0.393960 0.947890 0.040050 0.985302
P4    P     P_3+3 0.393960 0.052110 0.540050 0.982635
P5    P     P_3+3 0.105800 0.447360 0.649510 0.991278
P6    P     P_3+3 0.105800 0.552640 0.149510 0.988058
P7    P     P_3+3 0.605800 0.947360 0.649510 1.004611
P8    P     P_3+3 0.605800 0.052640 0.149510 0.995511
P9    P     P_3+3 0.067366 0.346722 0.086198 0.927054
P10   P     P_3+3 0.063307 0.656832 0.585634 0.938256
P11   P     P_3+3 0.568019 0.847342 0.085171 0.924637
P12   P     P_3+3 0.565233 0.155262 0.584255 0.953522
P13   P     P_3+3 0.935395 0.655457 0.102016 0.931699
P14   P     P_3+3 0.934064 0.345664 0.600001 0.931184
P15   P     P_3+3 0.435506 0.155570 0.101853 0.930352
P16   P     P_3+3 0.434212 0.845531 0.600084 0.931162
C105  C     C_3   0.849853 0.208894 0.226773 -0.210360
C106  C     C_3   0.892383 0.218314 0.118754 -0.403829
H113  H     H_    0.901990 0.257614 0.113725 0.136499
H114  H     H_    0.927500 0.198446 0.167580 0.115738
H115  H     H_    0.880603 0.204851 0.996458 0.134297
H116  H     H_    0.862072 0.221628 0.348809 0.106737
H117  H     H_    0.845985 0.168687 0.237827 0.098127
C107  C     C_3   0.851034 0.795924 0.732588 -0.222834
C108  C     C_3   0.845208 0.820524 0.892409 -0.412399
H118  H     H_    0.818492 0.852062 0.876421 0.125559
H119  H     H_    0.830130 0.794474 0.977251 0.134361
H120  H     H_    0.883368 0.834054 0.944442 0.127417
H121  H     H_    0.883513 0.769952 0.747897 0.110260
H122  H     H_    0.862472 0.823901 0.647333 0.104465
C109  C     C_3   0.348267 0.708960 0.225722 -0.210167
C110  C     C_3   0.390396 0.717899 0.115935 -0.403947
H123  H     H_    0.377766 0.705031 0.993502 0.134514
H124  H     H_    0.400803 0.757037 0.112061 0.136079
H125  H     H_    0.425219 0.697201 0.162415 0.115120
H126  H     H_    0.361108 0.721604 0.347429 0.106357
H127  H     H_    0.343965 0.668800 0.236933 0.097122
C111  C     C_3   0.349268 0.295070 0.727584 -0.221211
C112  C     C_3   0.344853 0.320340 0.887119 -0.415285
H128  H     H_    0.318195 0.351919 0.871694 0.126143
H129  H     H_    0.330433 0.294713 0.974445 0.134726
H130  H     H_    0.383369 0.333937 0.935674 0.128082
H131  H     H_    0.381897 0.269214 0.741181 0.110200
H132  H     H_    0.359747 0.322700 0.639800 0.104674
C113  C     C_3   0.195821 0.441266 0.107750 -0.144109
C114  C     C_3   0.226279 0.416965 0.984925 -0.458735
H133  H     H_    0.230992 0.377586 0.013403 0.127494
H134  H     H_    0.265192 0.433403 0.984995 0.119089
H135  H     H_    0.204881 0.420449 0.866456 0.154750
H136  H     H_    0.218521 0.438633 0.226082 0.085080
H137  H     H_    0.159843 0.420150 0.115060 0.110190
C115  C     C_3   0.209151 0.544711 0.540182 -0.161660
C116  C     C_3   0.183038 0.582684 0.636397 -0.302462
H138  H     H_    0.140685 0.578721 0.614562 0.160932
H139  H     H_    0.194725 0.577804 0.765373 0.092615
H140  H     H_    0.194431 0.619863 0.601140 0.099165
H141  H     H_    0.251330 0.547765 0.575481 0.063926
H142  H     H_    0.203759 0.555354 0.413007 0.107940
C117  C     C_3   0.693810 0.944344 0.060307 -0.122633
C118  C     C_3   0.732021 0.922683 0.190811 -0.459454
H143  H     H_    0.733334 0.882490 0.175905 0.123582
H144  H     H_    0.719682 0.930319 0.309883 0.129923
H145  H     H_    0.771499 0.937056 0.182778 0.127140
H146  H     H_    0.656633 0.925308 0.067669 0.134450
H147  H     H_    0.707261 0.935472 0.943261 0.074451
C119  C     C_3   0.707671 0.046983 0.553769 -0.137388
C120  C     C_3   0.726031 0.074824 0.705889 -0.410808
H148  H     H_    0.733132 0.113501 0.675595 0.114228
H149  H     H_    0.762759 0.059601 0.762414 0.118174
H150  H     H_    0.696193 0.074231 0.790818 0.131075
H151  H     H_    0.738824 0.047688 0.473177 0.054272
H152  H     H_    0.675115 0.067742 0.495027 0.146417

loop_
_geom_bond_atom_site_label_1
_geom_bond_atom_site_label_2
_ccdc_geom_bond_type
C56   H76   S    
C77   H101  S    
Ba4   P4    S    
C83   C87   S    
C57   P10   S    
C10   H62   S    
C21   C101  A    
C113  H136  S    
O46   P10   D    
C67   H55   S    
C94   H30   S    
C95   H35   S    
C91   C95   S    
C59   P12   S    
C84   O7    S    
C60   P11   S    
C32   H60   S    
C1    H41   S    
Ba1   O1    S    
O18   P2    S    
C5    C9    A    
C22   P13   S    
Ba3   O15   S    
C7    C11   A    
C119  H151  S    
C8    C12   A    
Ba1   O13   S    
C66   C70   A    
C115  H142  S    
C101  H89   S    
Ba4   O40   S    
C75   H83   S    
O15   P8    S    
C76   H84   S    
C107  H121  S    
O5    P5    S    
C66   H54   S    
C40   C42   A    
C19   C23   A    
C46   H94   S    
C85   H5    S    
C61   C73   A    
C63   C75   A    
C82   C86   S    
C8    C104  A    
C114  H133  S    
C56   C72   A    
C13   C17   A    
C36   C72   S    
C28   C30   A    
C97   O33   S    
O3    P3    D    
O27   P16   D    
Ba2   P6    S    
Ba2   O13   S    
C64   C68   A    
C111  C112  S    
C4    C100  S    
C6    C10   A    
C47   C79   S    
C2    H86   S    
C110  H123  S    
C106  H115  S    
C5    P1    S    
C48   O12   S    
C53   C57   A    
C26   C32   A    
C25   C31   A    
C55   C59   A    
C1    C97   S    
C20   H80   S    
C56   C60   A    
O12   P12   S    
C106  H114  S    
C41   H69   S    
C62   C66   A    
C24   C104  A    
Ba3   O39   S    
O13   P6    S    
O9    P9    S    
Ba4   O19   S    
C2    C98   S    
C120  H148  S    
C116  H138  S    
C62   P5    S    
C97   H1    S    
O38   P6    D    
C93   H25   S    
C16   C52   S    
C99   H39   S    
Ba2   O42   S    
C86   H6    S    
C26   C50   A    
C97   H37   S    
C90   H22   S    
O10   P10   S    
C4    H44   S    
O8    P8    S    
C78   H50   S    
C61   C65   A    
Ba1   P1    S    
C5    C101  A    
Ba3   P3    S    
O26   P13   D    
C48   C80   S    
C82   H110  S    
C53   C69   A    
C63   P8    S    
O7    P7    S    
C77   H105  S    
C57   C73   A    
C35   C71   S    
C20   C24   A    
C109  H126  S    
C110  H125  S    
C83   C117  S    
Ba3   O20   S    
C9    H61   S    
C47   H99   S    
C41   C49   A    
C87   H15   S    
C94   H34   S    
Ba4   O16   S    
C95   H31   S    
C39   H67   S    
C90   O30   S    
C93   H29   S    
C45   H93   S    
C47   O11   S    
C38   H66   S    
C23   P16   S    
C100  H4    S    
C119  C120  S    
C109  H127  S    
C18   H78   S    
C55   H75   S    
O11   P11   S    
C108  H118  S    
O23   P16   S    
C39   C41   A    
C82   C115  S    
Ba4   O44   S    
C116  H140  S    
C37   C43   A    
C38   C44   A    
O39   P7    D    
Ba2   O22   S    
Ba1   O21   S    
C27   C51   A    
C46   H98   S    
C85   H9    S    
C83   O8    S    
C18   C22   A    
C87   H11   S    
C6    C102  A    
Ba3   Ba4   S    
C89   C93   S    
C44   H72   S    
C54   C70   A    
C34   C70   S    
C120  H149  S    
C17   C21   A    
C25   C105  S    
O36   P15   S    
C14   C18   A    
C7    P3    S    
C58   C74   A    
C29   H57   S    
C40   H68   S    
C118  H143  S    
Ba2   O17   S    
Ba3   P7    S    
C105  H117  S    
C111  H131  S    
C9    C13   A    
C112  H130  S    
C73   H81   S    
C88   H12   S    
C103  H91   S    
C64   P7    S    
C92   C96   S    
C46   O10   S    
C33   C37   A    
O40   P8    D    
C119  H152  S    
C36   C40   A    
O41   P9    S    
C82   O5    S    
Ba4   O24   S    
C96   H28   S    
C78   H102  S    
C54   C58   A    
C99   O35   S    
C100  H40   S    
C107  H122  S    
O21   P14   S    
C22   C102  A    
C80   H52   S    
C11   C15   A    
C28   C111  S    
O14   P5    S    
C86   H10   S    
C108  H120  S    
C88   H16   S    
C81   C113  S    
C90   C94   S    
C114  H134  S    
Ba2   O2    S    
C92   H20   S    
C99   H3    S    
C45   C77   S    
C10   C14   A    
C37   H65   S    
Ba2   O14   S    
C47   H95   S    
Ba3   O3    S    
C65   C69   A    
C58   P9    S    
C102  H90   S    
C114  H135  S    
C30   C34   A    
C91   H23   S    
C60   C76   A    
C118  H145  S    
C89   H21   S    
C110  H124  S    
C113  H137  S    
Ba1   O37   S    
Ba2   P2    S    
C77   H49   S    
C112  H128  S    
O29   P1    S    
C91   O31   S    
C81   C85   S    
C29   C33   A    
C84   H112  S    
C48   H96   S    
C31   C35   A    
C109  C110  S    
C105  C106  S    
Ba3   O16   S    
C23   C103  A    
Ba1   O14   S    
C42   C50   A    
C68   H56   S    
C95   H27   S    
C115  H141  S    
C93   H33   S    
C2    H46   S    
C3    H43   S    
C45   H97   S    
C96   H36   S    
C98   H2    S    
C92   O32   S    
C3    H87   S    
C13   C49   S    
C117  H147  S    
O33   P14   S    
C46   C78   S    
C1    H85   S    
C15   C51   S    
O24   P15   S    
C8    P4    S    
C120  H150  S    
C79   H107  S    
C80   H104  S    
C17   H77   S    
O48   P12   D    
C54   H74   S    
O16   P7    S    
C117  C118  S    
O45   P9    D    
C113  C114  S    
C117  H146  S    
C85   H13   S    
O43   P11   S    
O47   P11   D    
C87   H7    S    
C4    H88   S    
C63   C67   A    
C45   O9    S    
C89   H17   S    
C2    H42   S    
C91   H19   S    
C3    H47   S    
C6    P2    S    
O17   P1    S    
O6    P6    S    
C98   O34   S    
C21   P14   S    
C30   H58   S    
C28   C52   A    
O28   P15   D    
C84   C119  S    
C64   C76   A    
C24   P15   S    
C19   H79   S    
C42   H70   S    
C15   C19   A    
C74   H82   S    
C68   C72   A    
C53   H73   S    
C59   C75   A    
C107  C108  S    
C65   H53   S    
C34   C38   A    
C106  H113  S    
O4    P4    D    
O42   P10   S    
Ba1   Ba2   S    
C81   H109  S    
C43   H71   S    
C96   H32   S    
C78   H106  S    
C16   C20   A    
C116  H139  S    
O35   P16   S    
C31   H59   S    
C27   C29   A    
C83   H111  S    
O22   P13   S    
Ba1   P5    S    
C12   C16   A    
C92   H24   S    
C86   H14   S    
C89   O29   S    
C90   H18   S    
C11   H63   S    
Ba4   P8    S    
C84   C88   S    
C32   C36   A    
C118  H144  S    
O31   P3    S    
O32   P4    S    
C35   C39   A    
Ba4   O4    S    
C105  H116  S    
C111  H132  S    
C112  H129  S    
C104  H92   S    
C88   H8    S    
C12   H64   S    
Ba3   O23   S    
C27   C109  S    
Ba1   O41   S    
C62   C74   A    
Ba2   O38   S    
Ba3   O43   S    
C7    C103  A    
Ba4   O15   S    
O30   P2    S    
C55   C71   A    
O1    P1    D    
C43   C51   A    
C44   C52   A    
C33   C69   S    
C61   P6    S    
C48   H100  S    
C26   C107  S    
Ba1   O18   S    
C94   H26   S    
O37   P5    D    
C100  O36   S    
O19   P3    S    
C115  C116  S    
O20   P4    S    
C108  H119  S    
C98   H38   S    
C67   C71   A    
C25   C49   A    
C1    H45   S    
O44   P12   S    
C4    H48   S    
C14   C50   S    
O2    P2    D    
O34   P13   S    
C79   H51   S    
O25   P14   D    
C3    C99   S    
C81   O6    S    
C79   H103  S    
C80   H108  S    
