data_mof_unit_11292.cif
_audit_creation_date              2012-12-10T17:21:40-0500
_audit_creation_method            fapswitch 2.2
_symmetry_space_group_name_H-M    P1
_symmetry_Int_Tables_number       1
_space_group_crystal_system       triclinic
_cell_length_a                    10.746775
_cell_length_b                    10.794649
_cell_length_c                    9.628395
_cell_angle_alpha                 91.956778
_cell_angle_beta                  89.97311
_cell_angle_gamma                 94.711316
_cell_volume                      1112.54138983

loop_
_atom_site_label
_atom_site_type_symbol
_atom_type_description
_atom_site_fract_x
_atom_site_fract_y
_atom_site_fract_z
_atom_type_partial_charge
C1    C     C_R   0.505480 0.262717 0.497969 0.808859
C2    C     C_3   0.877413 0.491991 0.499695 0.013065
C3    C     C_3   0.938813 0.624537 0.477839 -0.364159
C4    C     C_3   0.920106 0.403163 0.381916 -0.380132
C5    C     C_R   0.630882 0.130976 0.712664 -0.185408
C6    C     C_R   0.647567 0.079821 0.841069 -0.199807
C7    C     C_R   0.577782 0.970782 0.874878 0.408584
C8    C     C_R   0.501965 0.904687 0.773477 0.424216
C9    C     C_R   0.505698 0.944568 0.633664 -0.065442
C10   C     C_R   0.550294 0.068523 0.612684 0.035312
C11   C     C_R   0.508174 0.127828 0.495401 -0.137845
C12   C     C_R   0.259871 0.494102 0.499798 0.852704
C13   C     C_R   0.444882 0.057776 0.388551 -0.178437
C14   C     C_R   0.427114 0.929227 0.394919 0.427764
C15   C     C_R   0.466147 0.870037 0.513774 -0.139639
C16   C     C_R   0.687210 0.640573 0.155092 -0.134734
C17   C     C_R   0.800600 0.676671 0.096982 -0.286504
C18   C     C_R   0.815643 0.664726 0.956152 0.356830
C19   C     C_R   0.710172 0.632420 0.871899 0.289990
C20   C     C_R   0.598600 0.567164 0.929377 0.106337
C21   C     C_R   0.594031 0.568493 0.078978 0.198769
C22   C     C_R   0.409856 0.435036 0.071085 -0.010094
C23   C     C_R   0.486152 0.736299 0.503394 0.914319
C24   C     C_R   0.409224 0.435989 0.923627 0.020147
C25   C     C_R   0.739507 0.495333 0.499752 0.803483
C26   C     C_3   0.066423 0.448367 0.642921 0.233074
C27   C     C_3   0.923107 0.445061 0.639880 -0.374324
C28   C     C_3   0.082014 0.623746 0.470286 0.158592
C29   C     C_3   0.063766 0.400992 0.383620 -0.418048
C30   C     C_3   0.121474 0.491463 0.500276 -0.035223
Cu1   Cu    Cu3+1 0.499990 0.499990 0.640660 1.045057
Cu2   Cu    Cu3+1 0.500010 0.500010 0.359340 0.990806
H1    H     H_    0.101657 0.515359 0.727074 0.207433
H2    H     H_    0.890357 0.434351 0.278961 0.196298
H3    H     H_    0.112590 0.648520 0.363511 0.176580
H4    H     H_    0.407335 0.103081 0.300922 0.194297
H5    H     H_    0.708366 0.129518 0.917534 0.189657
H6    H     H_    0.335960 0.381174 0.123789 0.136131
H7    H     H_    0.677595 0.670262 0.260624 0.225373
H8    H     H_    0.334955 0.382929 0.866891 0.182138
H9    H     H_    0.892316 0.503646 0.728010 0.195175
N1    N     N_R   0.501200 0.501210 0.147910 -0.188124
N2    N     N_R   0.501250 0.501290 0.852040 -0.178248
O1    O     O_R   0.499990 0.319640 0.618810 -0.578333
O2    O     O_R   0.500000 0.319660 0.381240 -0.591910
O3    O     O_R   0.317680 0.499970 0.618790 -0.534486
O4    O     O_R   0.317700 0.499990 0.381210 -0.591625
O5    O     O_R   0.500000 0.680340 0.618760 -0.496312
O6    O     O_R   0.500010 0.680360 0.381190 -0.560069
O7    O     O_R   0.682300 0.500010 0.618790 -0.573189
O8    O     O_R   0.682320 0.500030 0.381210 -0.620834
H10   H     H_    0.903645 0.661595 0.380796 0.142780
H11   H     H_    0.680562 0.219781 0.692445 0.159484
Cl1   Cl    Cl    0.587381 0.919818 0.045555 -0.539490
Cl2   Cl    Cl    0.382754 0.796257 0.832361 -0.394756
Cl3   Cl    Cl    0.341745 0.847453 0.259281 -0.465871
Cl4   Cl    Cl    0.113238 0.298638 0.688413 -0.616810
H12   H     H_    0.874867 0.722422 0.160478 0.206451
Cl5   Cl    Cl    0.961956 0.721901 0.889687 -0.468484
Cl6   Cl    Cl    0.718162 0.731580 0.731385 -0.593520
H13   H     H_    0.879998 0.349279 0.655315 0.196208
Cl7   Cl    Cl    0.154400 0.742956 0.584869 -0.486980
H14   H     H_    0.912360 0.687858 0.563780 0.276631
H15   H     H_    0.100995 0.428557 0.280256 0.188426
H16   H     H_    0.089320 0.304660 0.399080 0.234775
H17   H     H_    0.875723 0.307478 0.395178 0.193092

loop_
_geom_bond_atom_site_label_1
_geom_bond_atom_site_label_2
_ccdc_geom_bond_type
C14   Cl3   S    
C3    H10   S    
C25   O8    A    
Cu2   O8    S    
C29   C30   S    
C3    H14   S    
C19   Cl6   S    
C2    C25   S    
C27   H13   S    
C9    C10   A    
C27   H9    S    
C26   H1    S    
C2    C4    S    
C4    C29   S    
C1    C11   S    
C17   H12   S    
C10   C11   A    
C22   C24   A    
C28   C30   S    
C17   C18   A    
C9    C15   A    
C29   H15   S    
C7    C8    A    
C22   N1    A    
C13   C14   A    
C4    H17   S    
C11   C13   A    
C1    O2    A    
C26   C27   S    
C2    C27   S    
Cu1   N2    S    
C12   O4    A    
C29   H16   S    
C8    Cl2   S    
C15   C23   S    
C3    C28   S    
C24   H8    S    
C26   C30   S    
C6    C7    A    
C2    C3    S    
Cu1   O5    S    
C5    C6    A    
C26   Cl4   S    
C4    H2    S    
Cu2   O6    S    
C23   O6    A    
Cu1   O1    S    
Cu1   O7    S    
C21   N1    A    
C22   H6    S    
C18   Cl5   S    
C5    C10   A    
C20   N2    A    
C20   C21   A    
C13   H4    S    
C12   O3    A    
C18   C19   A    
Cu2   O2    S    
C5    H11   S    
C24   N2    A    
Cu2   N1    S    
C14   C15   A    
C16   C17   A    
C16   H7    S    
C23   O5    A    
C1    O1    A    
C7    Cl1   S    
C12   C30   S    
C25   O7    A    
C16   C21   A    
Cu1   Cu2   S    
C6    H5    S    
C19   C20   A    
C28   H3    S    
Cu2   O4    S    
C8    C9    A    
Cu1   O3    S    
C28   Cl7   S    
