data_mof_unit_67269.cif
_audit_creation_date              2013-03-05T16:01:56-0500
_audit_creation_method            fapswitch 2.2
_symmetry_space_group_name_H-M    P1
_symmetry_Int_Tables_number       1
_space_group_crystal_system       triclinic
_cell_length_a                    8.301898
_cell_length_b                    14.395844
_cell_length_c                    15.103188
_cell_angle_alpha                 95.977709
_cell_angle_beta                  97.463007
_cell_angle_gamma                 92.035975
_cell_volume                      1777.79896125

loop_
_atom_site_label
_atom_site_type_symbol
_atom_site_description
_atom_site_fract_x
_atom_site_fract_y
_atom_site_fract_z
_atom_type_partial_charge
P1    P     P_3+3 0.018620 0.416870 0.295980 0.439612
O1    O     O_2   0.841250 0.444240 0.280450 -0.346619
O2    O     O_3   0.112870 0.447390 0.393710 -0.434860
O3    O     O_3   0.597960 0.615760 0.327700 -0.377917
O4    O     O_2   0.681353 0.541620 0.173331 -0.388695
O5    O     O_3   0.000261 0.294309 0.281459 -0.591059
O6    O     O_3   0.621353 0.717247 0.174905 -0.534192
H1    H     H_    0.394308 0.762144 0.203957 -0.018300
C1    C     C_3   0.590285 0.838408 0.292381 -0.876885
H2    H     H_    0.606303 0.788379 0.343077 0.280761
H3    H     H_    0.708770 0.874517 0.288201 0.284256
P2    P     P_3+3 0.635650 0.716500 0.560900 0.469864
P3    P     P_3+3 0.040372 0.785675 0.371225 0.437177
O7    O     O_2   0.802240 0.729720 0.532850 -0.344054
O8    O     O_3   0.017190 0.664840 0.371090 -0.398404
O9    O     O_2   0.906365 0.829320 0.421828 -0.381542
O10   O     O_3   0.677052 0.741183 0.677869 -0.586554
O11   O     O_3   0.988892 0.812593 0.260702 -0.535661
C2    C     C_3   0.018342 0.735221 0.200928 0.439634
H4    H     H_    0.146413 0.716208 0.214400 -0.042279
C3    C     C_3   0.982339 0.756182 0.102774 -0.434523
H5    H     H_    0.850188 0.744620 0.078640 0.225689
C4    C     C_3   0.112923 0.758727 0.756793 0.572363
H6    H     H_    0.021138 0.715711 0.782414 -0.029925
C5    C     C_3   0.204684 0.815856 0.841664 -0.493831
H7    H     H_    0.278237 0.768386 0.881460 0.194772
H8    H     H_    0.114242 0.844535 0.884110 0.147803
Ba1   Ba    Ba6+2 0.833410 0.543320 0.453520 1.514763
C6    C     C_3   0.974494 0.261792 0.363240 0.440863
H9    H     H_    0.864898 0.292105 0.386085 0.132032
C7    C     C_3   0.952117 0.155478 0.350578 -1.029568
H10   H     H_    0.883987 0.130828 0.283651 0.282884
H11   H     H_    0.884461 0.129906 0.402203 0.238459
C8    C     C_3   0.709658 0.659280 0.718187 0.514797
H12   H     H_    0.824558 0.632420 0.699216 0.040884
H13   H     H_    0.613886 0.603539 0.696727 0.162802
C9    C     C_3   0.719141 0.681571 0.819839 -1.113436
H14   H     H_    0.787985 0.749071 0.843333 0.258090
H15   H     H_    0.779291 0.626151 0.855261 0.245494
H16   H     H_    0.594892 0.686577 0.838478 0.268840
P4    P     P_3+3 0.171070 0.583210 0.704020 0.476368
O12   O     O_2   0.348460 0.555790 0.719610 -0.355796
O13   O     O_3   0.076820 0.552690 0.606290 -0.370676
O14   O     O_3   0.591740 0.384320 0.672310 -0.390711
O15   O     O_3   0.220321 0.703635 0.711469 -0.549209
P5    P     P_3+3 0.154010 0.216283 0.641108 0.433211
O16   O     O_3   0.629090 0.386360 0.459240 -0.408232
O17   O     O_3   0.172500 0.335240 0.628910 -0.382455
O18   O     O_2   0.274738 0.168374 0.583690 -0.395535
O19   O     O_3   0.229936 0.200264 0.751919 -0.543758
Ba2   Ba    Ba6+2 0.356410 0.456750 0.546480 1.515202
P6    P     P_3+3 0.558862 0.609895 0.208897 0.432524
C10   C     C_3   0.519794 0.788991 0.200806 0.679413
H17   H     H_    0.506893 0.892056 0.313609 0.171961
O20   O     O_3   0.560600 0.613720 0.540760 -0.431681
C11   C     C_3   0.417795 0.209564 0.277004 0.581907
C12   C     C_3   0.438381 0.232819 0.180914 -0.369697
H18   H     H_    0.335198 0.204067 0.130722 0.166544
H19   H     H_    0.436653 0.309975 0.180758 0.110615
P7    P     P_3+3 0.565876 0.267029 0.443766 0.393971
O21   O     O_2   0.387470 0.270310 0.467210 -0.404154
O22   O     O_3   0.570528 0.228460 0.329794 -0.617048
H20   H     H_    0.045033 0.705286 0.060417 0.129627
C13   C     C_3   0.180234 0.273812 0.809520 0.440240
H21   H     H_    0.231855 0.341796 0.794575 0.121678
C14   C     C_3   0.244313 0.262809 0.907437 -0.399408
H22   H     H_    0.374315 0.245662 0.915001 0.231663
H23   H     H_    0.237320 0.331282 0.947802 0.129109
P8    P     P_3+3 0.631540 0.393866 0.788814 0.429266
C15   C     C_3   0.643582 0.216411 0.758181 0.465239
H24   H     H_    0.771002 0.231764 0.746840 0.010022
O23   O     O_2   0.501643 0.454872 0.826567 -0.386012
O24   O     O_3   0.592817 0.283640 0.821611 -0.549281
H25   H     H_    0.561573 0.214004 0.693613 0.121640
H26   H     H_    0.636959 0.067129 0.732613 0.132152
C16   C     C_3   0.632111 0.120056 0.790970 -0.462902
C17   C     C_R   0.346869 0.559516 0.164605 0.126486
H27   H     H_    0.481201 0.619499 0.026805 0.178062
C18   C     C_R   0.111685 0.473046 0.204557 0.264992
C19   C     C_R   0.929208 0.477689 0.767515 -0.489351
C20   C     C_R   0.837701 0.443826 0.829309 0.253457
C21   C     C_R   0.898326 0.452442 0.920548 -0.336402
C22   C     C_R   0.053193 0.496166 0.952528 0.066487
C23   C     C_R   0.140957 0.537014 0.888702 -0.002697
C24   C     C_R   0.122178 0.502063 0.045971 0.047556
C25   C     C_R   0.278314 0.549129 0.073062 -0.019062
C26   C     C_R   0.361345 0.586123 0.008739 -0.187683
C27   C     C_R   0.292239 0.582732 0.919641 -0.152207
C28   C     C_R   0.044017 0.461065 0.113189 -0.345817
C29   C     C_R   0.256840 0.526074 0.227821 -0.214850
C30   C     C_R   0.075987 0.528995 0.795216 0.161162
H28   H     H_    0.931689 0.419407 0.096820 0.168019
H29   H     H_    0.880213 0.468836 0.697025 0.169304
H30   H     H_    0.361418 0.615523 0.875033 0.167535
C31   C     C_R   0.697528 0.941554 0.565399 -0.173631
C32   C     C_R   0.505482 0.804092 0.509176 0.248269
C33   C     C_R   0.353281 0.771325 0.463489 -0.464154
C34   C     C_R   0.243161 0.832004 0.425620 0.255351
C35   C     C_R   0.285486 0.927240 0.432363 -0.322453
C36   C     C_R   0.438469 0.962374 0.476581 0.077903
C37   C     C_R   0.548799 0.901890 0.517858 0.001436
H31   H     H_    0.317330 0.698397 0.461161 0.165429
C38   C     C_R   0.634610 0.095870 0.519915 -0.018620
C39   C     C_R   0.743201 0.037145 0.565057 0.074638
C40   C     C_R   0.682235 0.191354 0.517572 0.240708
C41   C     C_R   0.834110 0.226660 0.560822 -0.509775
C42   C     C_R   0.944479 0.168358 0.601918 0.271518
C43   C     C_R   0.897670 0.074563 0.606680 -0.327442
C44   C     C_R   0.482154 0.057347 0.478061 -0.155538
H32   H     H_    0.199308 0.973709 0.402718 0.160733
H33   H     H_    0.982798 0.031319 0.641505 0.143542
H34   H     H_    0.871135 0.298752 0.556625 0.169405
H35   H     H_    0.394576 0.100547 0.445811 0.173343
N1    N     N_2   0.306720 0.893367 0.822761 -0.090377
H36   H     H_    0.248585 0.942541 0.787188 0.193361
C45   C     C_3   0.465691 0.871845 0.800114 -0.781434
H37   H     H_    0.530272 0.936056 0.786537 0.211252
H38   H     H_    0.454604 0.821490 0.739010 0.298957
H39   H     H_    0.538501 0.843759 0.857134 0.244854
H40   H     H_    0.079850 0.281201 0.415958 0.129087
H41   H     H_    0.072497 0.124414 0.358047 0.261248
N2    N     N_2   0.512633 0.858082 0.137081 -0.109285
H42   H     H_    0.451849 0.916329 0.156849 0.151362
C46   C     C_3   0.461121 0.823672 0.044328 -1.000717
H43   H     H_    0.447957 0.883831 0.004048 0.273929
H44   H     H_    0.342094 0.784227 0.037559 0.243260
H45   H     H_    0.553689 0.778561 0.018069 0.273168
N3    N     N_2   0.365296 0.112009 0.278111 -0.118265
H46   H     H_    0.454517 0.065749 0.292027 0.180220
C47   C     C_3   0.225783 0.072945 0.216074 -1.099444
H47   H     H_    0.133664 0.125990 0.204753 0.290428
H48   H     H_    0.169661 0.013210 0.243863 0.288403
H49   H     H_    0.263913 0.046746 0.150725 0.271661
H50   H     H_    0.323122 0.254224 0.301219 0.050189
N4    N     N_2   0.590984 0.202942 0.152261 -0.072150
H51   H     H_    0.693886 0.239118 0.186252 0.249892
C48   C     C_3   0.608672 0.103607 0.132147 -0.869649
H52   H     H_    0.623498 0.068702 0.194209 0.248492
H53   H     H_    0.720993 0.091881 0.101497 0.236083
H54   H     H_    0.503864 0.071499 0.084302 0.251912
H55   H     H_    0.045426 0.275593 0.801944 0.009994
N5    N     N_2   0.147674 0.193162 0.942780 -0.089248
H56   H     H_    0.141778 0.207532 0.010503 0.176558
C49   C     C_3   0.178723 0.096542 0.917017 -0.805951
H57   H     H_    0.108331 0.050252 0.953942 0.218450
H58   H     H_    0.310012 0.083955 0.933281 0.236245
H59   H     H_    0.137912 0.078119 0.844322 0.267359
H60   H     H_    0.513494 0.108578 0.815944 0.217560
H61   H     H_    0.938964 0.673631 0.208642 0.144694
N6    N     N_2   0.765710 0.106915 0.859884 -0.088144
H62   H     H_    0.777739 0.037543 0.869869 0.184139
C50   C     C_3   0.773193 0.167322 0.943257 -0.738432
H63   H     H_    0.860820 0.140843 0.995381 0.205817
H64   H     H_    0.651672 0.169843 0.966356 0.253341
H65   H     H_    0.817778 0.238876 0.934444 0.255296
N7    N     N_2   0.323367 0.540240 0.317585 -0.124992
H66   H     H_    0.257163 0.574278 0.362442 0.197000
C51   C     C_3   0.424855 0.467730 0.346090 -0.488598
H67   H     H_    0.492859 0.499676 0.409142 0.296452
H68   H     H_    0.510931 0.447414 0.297808 0.212573
H69   H     H_    0.356231 0.403732 0.355054 0.198731
H70   H     H_    0.820830 0.425322 0.964750 0.161809
H71   H     H_    0.778326 0.898426 0.602352 0.165783
N8    N     N_2   0.039016 0.849921 0.090412 -0.081237
H72   H     H_    0.150767 0.872015 0.125768 0.202682
C52   C     C_3   0.918466 0.920158 0.088087 -0.789284
H73   H     H_    0.873072 0.932452 0.154085 0.280973
H74   H     H_    0.815146 0.897983 0.034757 0.246050
H75   H     H_    0.973479 0.986776 0.072343 0.215307
N9    N     N_2   0.029930 0.819616 0.696468 -0.109846
H76   H     H_    0.973694 0.874479 0.727279 0.115288
C53   C     C_3   0.109225 0.841200 0.620386 -0.715171
H77   H     H_    0.037795 0.889144 0.580536 0.224439
H78   H     H_    0.118615 0.775997 0.575853 0.274057
H79   H     H_    0.232038 0.874711 0.642034 0.208888

loop_
_geom_bond_atom_site_label_1
_geom_bond_atom_site_label_2
_geom_bond_distance
_ccdc_geom_bond_type
H27   C26   1.078705 S    
C14   H23   1.111208 S    
C26   C27   1.387839 A    
Ba1   O16   2.792267 S    
C4    O15   1.410056 S    
C8    C9    1.526584 S    
O19   C13   1.407322 S    
P4    O12   1.533170 D    
C2    H4    1.105834 S    
Ba2   O21   2.857198 S    
N3    H46   1.029597 S    
C20   C21   1.395487 A    
C12   H18   1.104769 S    
N4    H51   1.031188 S    
C52   H74   1.110819 S    
C41   H34   1.082438 S    
C24   C25   1.431348 A    
C45   H37   1.103079 S    
C48   H53   1.104234 S    
P5    O18   1.543552 D    
C6    H9    1.102596 S    
P3    O11   1.755099 S    
P2    Ba1   3.417808 S    
N8    H72   1.030527 S    
C2    C3    1.537039 S    
O6    P6    1.760273 S    
C8    H12   1.102557 S    
C9    H16   1.106767 S    
C10   N2    1.451846 S    
Ba1   Ba2   4.545770 S    
C12   H19   1.111569 S    
N9    H76   1.031690 S    
C11   C12   1.552114 S    
P7    O22   1.758562 S    
P1    O1    1.532741 D    
P3    C34   1.844134 S    
C18   C29   1.388225 A    
C51   H69   1.095645 S    
O16   P7    1.761130 S    
O17   Ba2   2.774611 S    
C22   C23   1.440836 A    
P2    O10   1.751608 S    
C15   H25   1.111092 S    
P1    Ba1   3.403872 S    
C4    H6    1.098557 S    
C7    H11   1.103543 S    
O4    P6    1.546489 D    
P8    O24   1.742265 S    
C15   H24   1.111538 S    
C23   C30   1.435828 A    
C1    H2    1.103558 S    
Ba2   O20   2.791753 S    
C33   H31   1.076964 S    
C53   H79   1.106698 S    
C44   H35   1.075103 S    
O12   Ba2   2.854721 S    
C11   O22   1.408949 S    
C11   N3    1.458017 S    
C14   H22   1.109763 S    
C36   C44   1.399152 A    
C3    N8    1.451707 S    
C3    H5    1.111181 S    
C32   C33   1.399488 A    
C51   H68   1.110728 S    
P4    O13   1.588846 S    
C49   H59   1.107660 S    
O3    Ba1   2.848163 S    
Ba1   O20   2.924527 S    
C53   H78   1.107639 S    
C33   C34   1.396752 A    
C27   H30   1.074282 S    
C48   H54   1.109702 S    
P5    O17   1.744841 S    
C17   C29   1.399102 A    
C3    H20   1.110386 S    
P1    O5    1.753829 S    
C45   H39   1.106864 S    
C7    H41   1.106557 S    
C49   H58   1.111263 S    
C24   C28   1.438318 A    
C25   C26   1.399348 A    
O11   C2    1.408064 S    
O16   Ba2   2.923567 S    
C21   H70   1.077057 S    
C5    H7    1.104979 S    
C35   H32   1.083056 S    
P7    O21   1.568117 D    
P1    O2    1.588846 S    
C13   C14   1.531514 S    
P8    O23   1.543396 D    
C47   H48   1.109144 S    
H26   C16   1.109268 S    
C9    H14   1.110331 S    
C31   H71   1.073040 S    
C11   H50   1.107447 S    
C7    H10   1.109103 S    
C50   H65   1.109067 S    
C16   N6    1.450961 S    
C42   C43   1.403417 A    
P5    C42   1.847821 S    
C15   O24   1.404554 S    
O14   P8    1.737686 S    
C38   C40   1.422039 A    
C28   H28   1.076980 S    
C1    H3    1.108332 S    
C46   H45   1.109318 S    
O14   Ba2   2.847580 S    
P4    C30   1.895226 S    
O3    P6    1.774038 S    
C17   C25   1.415751 A    
C21   C22   1.414338 A    
P3    O8    1.743087 S    
C15   C16   1.524579 S    
C51   H67   1.089837 S    
P1    C18   1.903363 S    
N6    C50   1.446876 S    
C47   H49   1.108465 S    
C1    C10   1.522069 S    
O10   C8    1.401296 S    
O6    C10   1.412088 S    
C29   N7    1.387276 S    
P6    C17   1.890314 S    
C6    H40   1.110147 S    
C39   C43   1.414508 A    
N5    C49   1.446144 S    
C53   H77   1.101428 S    
C46   H44   1.109562 S    
C40   C41   1.395025 A    
N4    C48   1.447352 S    
O2    Ba1   2.935643 S    
O2    Ba2   2.851974 S    
C22   C24   1.445184 A    
N5    H56   1.030068 S    
C12   N4    1.455904 S    
C23   C27   1.397712 A    
C50   H64   1.110052 S    
C19   C20   1.392267 A    
N3    C47   1.448336 S    
H1    C10   1.106806 S    
N1    C45   1.441870 S    
C43   H33   1.080070 S    
N1    H36   1.029004 S    
C14   N5    1.448935 S    
C5    H8    1.112258 S    
C48   H52   1.103969 S    
P5    O19   1.751597 S    
Ba1   O13   2.851315 S    
C35   C36   1.406592 A    
C38   C44   1.406539 A    
C49   H57   1.109493 S    
C13   H21   1.110755 S    
C19   C30   1.394520 A    
N7    C51   1.430622 S    
C47   H47   1.109935 S    
P2    O7    1.509541 D    
C6    C7    1.524147 S    
C5    N1    1.451268 S    
C31   C39   1.415063 A    
O13   Ba2   2.936624 S    
O8    Ba1   2.774073 S    
C52   H73   1.110175 S    
C4    N9    1.455788 S    
N9    C53   1.451418 S    
C13   H55   1.111602 S    
N8    C52   1.447526 S    
C36   C37   1.416744 A    
C2    H61   1.110818 S    
C45   H38   1.104310 S    
C8    H13   1.102127 S    
C4    C5    1.543374 S    
C18   C28   1.411292 A    
P2    O20   1.568911 S    
P8    C20   1.835656 S    
O5    C6    1.404434 S    
N7    H66   1.023669 S    
C50   H63   1.108022 S    
C16   H60   1.112308 S    
C52   H75   1.108802 S    
C9    H15   1.104480 S    
C34   C35   1.393155 A    
C41   C42   1.394500 A    
P3    O9    1.545022 D    
C38   C39   1.416612 A    
N2    H42   1.031476 S    
P4    O15   1.755665 S    
N6    H62   1.031786 S    
P2    C32   1.857621 S    
O1    Ba1   2.854022 S    
C1    H17   1.105720 S    
O7    Ba1   2.857147 S    
C19   H29   1.081976 S    
C32   C37   1.428978 A    
N2    C46   1.440653 S    
P4    Ba2   3.404547 S    
P7    C40   1.846759 S    
C31   C37   1.414337 A    
C46   H43   1.109629 S    
