data_mof_unit_36790.cif
_audit_creation_date              2012-12-11T14:21:20-0500
_audit_creation_method            fapswitch 2.2
_symmetry_space_group_name_H-M    P1
_symmetry_Int_Tables_number       1
_space_group_crystal_system       triclinic
_cell_length_a                    11.555561
_cell_length_b                    11.507989
_cell_length_c                    19.514939
_cell_angle_alpha                 90.542436
_cell_angle_beta                  90.086242
_cell_angle_gamma                 60.282436
_cell_volume                      2253.69374101

loop_
_atom_site_label
_atom_site_type_symbol
_atom_type_description
_atom_site_fract_x
_atom_site_fract_y
_atom_site_fract_z
_atom_type_partial_charge
C1    C     C_R   0.640446 0.117474 0.599133 0.546792
C2    C     C_1   0.652974 0.149947 0.668535 0.008043
C3    C     C_R   0.664502 0.666894 0.194317 -0.016303
C4    C     C_R   0.612343 0.745867 0.598533 0.548388
C5    C     C_R   0.536935 0.722625 0.223766 -0.017406
C6    C     C_R   0.527216 0.697606 0.293178 0.050936
C7    C     C_R   0.764176 0.626097 0.306656 -0.134131
C8    C     C_R   0.777688 0.614500 0.236278 -0.132221
C9    C     C_R   0.421057 0.786149 0.183124 -0.087880
C10   C     C_R   0.302047 0.799052 0.206278 -0.127430
C11   C     C_R   0.294988 0.755630 0.271217 -0.089463
C12   C     C_1   0.641064 0.703695 0.667897 0.008077
C13   C     C_R   0.404939 0.703923 0.314921 0.278361
C14   C     C_R   0.639394 0.672420 0.335872 0.033506
C15   C     C_R   0.167686 0.183010 0.185522 0.004162
C16   C     C_R   0.240603 0.145352 0.598066 0.553486
C17   C     C_R   0.249598 0.234307 0.207592 0.002091
C18   C     C_R   0.284383 0.224865 0.277628 0.005716
C19   C     C_R   0.190058 0.078270 0.295297 -0.141129
C20   C     C_R   0.139275 0.105128 0.229565 -0.153195
C21   C     C_R   0.288719 0.303870 0.162190 -0.089673
C22   C     C_R   0.331452 0.390196 0.187388 0.261509
C23   C     C_1   0.127009 0.198489 0.859386 0.004180
C24   C     C_R   0.346976 0.396493 0.257430 0.005922
C25   C     C_R   0.333266 0.309301 0.301306 -0.109860
C26   C     C_R   0.260950 0.138144 0.321016 0.011100
C27   C     C_R   0.673407 0.188529 0.194614 -0.031800
C28   C     C_R   0.648301 0.110560 0.402532 0.515915
C29   C     C_R   0.725347 0.055972 0.216836 -0.008469
C30   C     C_R   0.752746 0.029664 0.286771 -0.037323
C31   C     C_R   0.640247 0.268434 0.312714 0.183973
C32   C     C_R   0.638755 0.292107 0.242847 -0.083697
C33   C     C_R   0.769108 0.947758 0.169913 -0.124615
C34   C     C_1   0.171335 0.170077 0.727668 -0.029024
C35   C     C_R   0.865736 0.819941 0.189068 -0.086691
C36   C     C_R   0.913865 0.797712 0.255776 0.208174
C37   C     C_R   0.855751 0.899824 0.304740 -0.056730
C38   C     C_R   0.684933 0.137460 0.334682 -0.014589
C39   C     C_R   0.082099 0.230933 0.928690 0.540565
C40   C     C_R   0.615863 0.734669 0.403556 0.550911
C41   C     C_R   0.683931 0.604607 0.929594 0.539241
C42   C     C_R   0.708445 0.206422 0.930240 0.537632
C43   C     C_R   0.087457 0.233319 0.123586 0.534383
C44   C     C_R   0.682720 0.613429 0.125181 0.526414
C45   C     C_1   0.150295 0.181966 0.798964 -0.029856
C46   C     C_R   0.707023 0.210908 0.126228 0.535195
C47   C     C_R   0.301404 0.116416 0.393549 0.533445
C48   C     C_1   0.670526 0.646729 0.860216 0.004332
C49   C     C_1   0.654716 0.683582 0.728390 -0.028848
C50   C     C_1   0.663533 0.666823 0.799712 -0.030203
C51   C     C_1   0.194944 0.160837 0.667269 0.004981
C52   C     C_1   0.678700 0.190738 0.860887 0.003904
C53   C     C_1   0.658551 0.167313 0.729008 -0.028486
C54   C     C_1   0.665714 0.180573 0.800379 -0.030070
Cl1   Cl    Cl    0.047926 0.641966 0.278463 -0.683873
Cl2   Cl    Cl    0.384001 0.628902 0.389250 -0.542398
Cr1   Cr    Cr6+3 0.404720 0.198220 0.499960 1.064489
Cr2   Cr    Cr6+3 0.698290 0.897110 0.500380 1.045893
Cr3   Cr    Cr6+3 0.396970 0.904720 0.499610 1.089981
Cr4   Cr    Cr6+3 0.926180 0.151990 0.028120 1.023602
Cr5   Cr    Cr6+3 0.921330 0.451820 0.027470 1.024226
Cr6   Cr    Cr6+3 0.626260 0.446870 0.028710 1.047694
H1    H     H_    0.850452 0.598859 0.338546 0.190685
H2    H     H_    0.215937 0.839552 0.173064 0.137747
H3    H     H_    0.202631 0.762758 0.287886 0.194811
H4    H     H_    0.165184 0.017827 0.327656 0.148926
H5    H     H_    0.280873 0.296025 0.107285 0.111475
H6    H     H_    0.072658 0.068784 0.214153 0.141732
H7    H     H_    0.339538 0.455491 0.097130 0.317981
H8    H     H_    0.633126 0.338660 0.404671 0.349329
H9    H     H_    0.375399 0.466228 0.277881 0.211106
H10   H     H_    0.355836 0.317231 0.353577 0.203472
H11   H     H_    0.737597 0.963800 0.116888 0.125693
H12   H     H_    0.612457 0.391953 0.226349 0.182228
H13   H     H_    0.907112 0.739877 0.151304 0.148063
H14   H     H_    0.902305 0.877732 0.354426 0.186557
H15   H     H_    0.424786 0.817891 0.131471 0.128865
H16   H     H_    0.877097 0.562875 0.214621 0.196840
O1    O     O_R   0.267740 0.231960 0.575440 -0.493562
O2    O     O_R   0.596130 0.579390 0.952730 -0.506218
O3    O     O_R   0.639060 0.321160 0.958670 -0.497068
O4    O     O_R   0.527280 0.186640 0.570530 -0.488215
O5    O     O_R   0.821240 0.124200 0.104370 -0.518356
O6    O     O_R   0.036890 0.167040 0.097840 -0.507645
O7    O     O_R   0.056180 0.349610 0.102880 -0.513805
O8    O     O_R   0.797660 0.564870 0.097950 -0.513425
O9    O     O_R   0.595880 0.584250 0.104270 -0.491497
O10   O     O_R   0.638830 0.325670 0.099150 -0.475957
O11   O     O_3   0.824590 0.350230 0.028100 -0.253111
O12   O     O_R   0.685970 0.784660 0.430010 -0.504253
O13   O     O_R   0.728090 0.003450 0.576380 -0.499265
O14   O     O_R   0.682970 0.789190 0.570490 -0.492779
O15   O     O_R   0.499290 0.771880 0.575530 -0.487083
O16   O     O_R   0.285330 0.030870 0.569730 -0.488040
O17   O     O_R   0.270980 0.227080 0.423890 -0.505255
O18   O     O_R   0.530280 0.182120 0.430050 -0.515617
O19   O     O_R   0.731330 0.998570 0.424830 -0.526837
O20   O     O_3   0.356001 0.471240 0.145304 -0.679617
O21   O     O_3   0.606901 0.373305 0.357601 -0.659930
O22   O     O_R   0.502530 0.767000 0.423990 -0.462111
O23   O     O_R   0.288330 0.026350 0.429250 -0.489985
O24   O     O_3   0.499990 0.000020 0.499980 -0.289671
O25   O     O_R   0.821500 0.119340 0.952830 -0.507729
O26   O     O_R   0.037130 0.162530 0.957360 -0.494341
O27   O     O_R   0.056440 0.344740 0.951340 -0.510257
O28   O     O_R   0.797900 0.560360 0.957470 -0.495742

loop_
_geom_bond_atom_site_label_1
_geom_bond_atom_site_label_2
_ccdc_geom_bond_type
C28   O19   A    
C23   C45   T    
C27   C29   A    
Cr4   O6    S    
Cr1   O1    S    
Cr6   O3    S    
C19   C20   A    
C18   C26   A    
C16   C51   S    
C42   O25   A    
C41   O2    A    
C12   C49   T    
C7    C8    A    
C53   C54   S    
Cr1   O24   S    
C42   O3    A    
C35   H13   S    
C34   C51   T    
C47   O23   A    
Cr6   O2    S    
C36   C37   A    
C32   H12   S    
C5    C6    A    
Cr4   O5    S    
Cr6   O11   S    
C29   C33   A    
C30   C38   A    
C19   H4    S    
C15   C17   A    
C1    C2    S    
C19   C26   A    
C7    C14   A    
C35   C36   A    
Cr5   O11   S    
Cr1   O18   S    
Cr2   O24   S    
Cr3   O16   S    
C31   O21   S    
C4    C12   S    
Cr4   O25   S    
Cr5   O27   S    
C9    C10   A    
C13   Cl2   S    
H7    O20   S    
C48   C50   T    
C1    O13   A    
C21   C22   A    
C21   H5    S    
C8    H16   S    
Cr3   O22   S    
Cr2   O19   S    
C44   O8    A    
C52   C54   T    
C46   O10   A    
C15   C20   A    
C3    C44   S    
C41   O28   A    
Cr3   O23   S    
C39   O26   A    
C24   C25   A    
C3    C8    A    
Cr5   O8    S    
C43   O6    A    
C22   O20   S    
C25   H10   S    
C1    O4    A    
Cr4   O11   S    
Cr6   O10   S    
C17   C21   A    
C4    O15   A    
C30   C37   A    
C43   O7    A    
C5    C9    A    
C29   C30   A    
C6    C14   A    
C31   C32   A    
C28   C38   S    
C17   C18   A    
C34   C45   S    
C9    H15   S    
Cr5   O28   S    
Cr2   O12   S    
C7    H1    S    
Cr5   O7    S    
C26   C47   S    
C27   C46   S    
C33   H11   S    
C37   H14   S    
C22   C24   A    
C44   O9    A    
H8    O21   S    
Cr2   O13   S    
C39   O27   A    
C27   C32   A    
Cr3   O24   S    
C20   H6    S    
C10   H2    S    
C3    C5    A    
C2    C53   T    
C40   O22   A    
Cr6   O9    S    
C16   O16   A    
C31   C38   A    
C28   O18   A    
C16   O1    A    
C15   C43   S    
C36   Cl1   S    
C18   C25   A    
C6    C13   A    
C11   C13   A    
C23   C39   S    
C33   C35   A    
C41   C48   S    
C10   C11   A    
C14   C40   S    
C46   O5    A    
C49   C50   S    
Cr1   O17   S    
C47   O17   A    
Cr1   O4    S    
Cr3   O15   S    
C40   O12   A    
Cr4   O26   S    
Cr2   O14   S    
C11   H3    S    
C24   H9    S    
C42   C52   S    
C4    O14   A    
