data_mof_unit_37486.cif
_audit_creation_date              2012-12-11T19:42:14-0500
_audit_creation_method            fapswitch 2.2
_symmetry_space_group_name_H-M    P1
_symmetry_Int_Tables_number       1
_space_group_crystal_system       triclinic
_cell_length_a                    8.224542
_cell_length_b                    15.067098
_cell_length_c                    26.945548
_cell_angle_alpha                 98.603282
_cell_angle_beta                  92.608577
_cell_angle_gamma                 81.16673
_cell_volume                      3261.49324984

loop_
_atom_site_label
_atom_site_type_symbol
_atom_type_description
_atom_site_fract_x
_atom_site_fract_y
_atom_site_fract_z
_atom_type_partial_charge
Ba1   Ba    Ba6+2 0.860050 0.456430 0.522530 1.659033
Ba2   Ba    Ba6+2 0.329780 0.543490 0.477460 1.662670
C1    C     C_3   0.683441 0.136262 0.649155 -0.371147
C2    C     C_R   0.947673 0.606067 0.186040 0.585176
C3    C     C_2   0.762530 0.574345 0.275495 -0.093869
C4    C     C_3   0.181989 0.259451 0.655432 0.276510
C5    C     C_3   0.734839 0.595680 0.331271 -0.064227
C6    C     C_1   0.983183 0.486936 0.343436 0.032350
C7    C     C_2   0.027355 0.487088 0.296172 -0.043775
C8    C     C_2   0.908863 0.528847 0.258607 0.225497
C9    C     C_R   0.032830 0.521349 0.104449 -0.081996
C10   C     C_R   0.040736 0.440433 0.125278 -0.049216
C11   C     C_R   0.091550 0.357557 0.095008 -0.042020
C12   C     C_3   0.680660 0.227405 0.631122 0.354217
C13   C     C_R   0.983824 0.604663 0.134980 -0.027102
C14   C     C_2   0.841858 0.531625 0.361291 -0.274512
C15   C     C_2   0.352341 0.478580 0.641238 -0.279603
C16   C     C_3   0.143506 0.243381 0.707672 -0.325320
C17   C     C_R   0.180117 0.433194 0.973010 0.020061
C18   C     C_R   0.081192 0.597207 0.979180 0.019625
C19   C     C_R   0.149771 0.513934 0.950564 0.050686
C20   C     C_R   0.260195 0.353609 0.944119 -0.099380
C21   C     C_R   0.303639 0.352750 0.894606 -0.060379
C22   C     C_R   0.267122 0.430751 0.871207 -0.030698
C23   C     C_3   0.482000 0.685801 0.632222 0.297529
C24   C     C_R   0.188655 0.511383 0.898996 -0.078307
C25   C     C_R   0.149991 0.589578 0.875337 -0.034919
C26   C     C_R   0.186687 0.585573 0.824053 0.590974
C27   C     C_R   0.308614 0.429763 0.820662 0.579067
C28   C     C_3   0.286347 0.254683 0.363759 0.161588
C29   C     C_2   0.462352 0.483582 0.729232 -0.071987
C30   C     C_3   0.502419 0.487014 0.675088 -0.053123
C31   C     C_1   0.208424 0.520210 0.657903 0.036898
C32   C     C_2   0.170627 0.524072 0.705830 -0.107598
C33   C     C_2   0.304083 0.503479 0.744496 0.207229
C34   C     C_3   0.452061 0.721466 0.687423 -0.368520
C35   C     C_R   0.131204 0.434737 0.023449 0.019666
C36   C     C_R   0.072408 0.518904 0.052954 0.053003
C37   C     C_R   0.052239 0.600616 0.031453 0.019418
C38   C     C_R   0.137104 0.354668 0.045482 -0.098944
C39   C     C_R   0.972593 0.685106 0.113926 -0.058494
C40   C     C_3   0.296307 0.212142 0.307793 -0.309939
C41   C     C_R   0.042569 0.674233 0.954150 -0.100262
C42   C     C_R   0.075258 0.670211 0.903435 -0.060718
C43   C     C_R   0.004759 0.683249 0.063367 -0.100400
C44   C     C_R   0.843245 0.831501 0.465227 -0.027403
C45   C     C_3   0.947603 0.799911 0.349421 0.289940
C46   C     C_R   0.779469 0.925136 0.470483 -0.042921
C47   C     C_R   0.646192 0.112589 0.481517 0.007594
C48   C     C_R   0.789121 0.078198 0.453748 0.017769
C49   C     C_R   0.856980 0.986953 0.449594 -0.100250
C50   C     C_R   0.578106 0.205886 0.487499 0.052366
C51   C     C_R   0.431502 0.235317 0.513172 -0.257421
C52   C     C_3   0.976867 0.734149 0.585571 0.308350
C53   C     C_R   0.614601 0.803792 0.511656 0.029292
C54   C     C_R   0.550549 0.896650 0.518346 -0.030239
C55   C     C_R   0.631565 0.957532 0.496920 0.014468
C56   C     C_3   0.975060 0.832493 0.300206 -0.295168
C57   C     C_R   0.407769 0.930261 0.545964 -0.047591
C58   C     C_R   0.340909 0.020944 0.550383 -0.100641
C59   C     C_R   0.417220 0.082520 0.528954 -0.010188
C60   C     C_R   0.565849 0.051136 0.502839 0.025678
C61   C     C_R   0.348605 0.174584 0.532816 0.045706
C62   C     C_R   0.755231 0.771925 0.483670 -0.289027
C63   C     C_3   0.952925 0.836812 0.600227 -0.383696
C64   C     C_3   0.696357 0.345695 0.372023 0.241085
C65   C     C_3   0.658699 0.333875 0.315752 -0.358391
C66   C     C_2   0.204192 0.270557 0.272568 0.924067
C67   C     C_3   0.474434 0.786664 0.365543 0.410032
C68   C     C_2   0.322799 0.175694 0.393492 0.816675
C69   C     C_3   0.428728 0.874930 0.343801 -0.340431
C70   C     C_R   0.994710 0.443786 0.175674 0.634345
H1    H     H_    0.791890 0.223390 0.608519 0.099473
H2    H     H_    0.617477 0.408456 0.388922 0.072635
H3    H     H_    0.795389 0.121101 0.672861 0.133617
H4    H     H_    0.702903 0.263389 0.298203 0.145988
H5    H     H_    0.718385 0.381715 0.297773 0.112570
H6    H     H_    0.524224 0.348770 0.308744 0.139958
H7    H     H_    0.568350 0.240315 0.607399 -0.061997
H8    H     H_    0.684740 0.081870 0.616364 0.066517
H9    H     H_    0.365069 0.666812 0.614794 0.028782
H10   H     H_    0.578745 0.625241 0.629046 0.034166
H11   H     H_    0.361851 0.784882 0.691032 0.138750
H12   H     H_    0.427893 0.195573 0.297308 0.092518
H13   H     H_    0.401558 0.670936 0.705832 0.080510
H14   H     H_    0.569297 0.735799 0.706804 0.124914
H15   H     H_    0.572470 0.137412 0.671371 0.126361
H16   H     H_    0.177855 0.299213 0.735766 0.130525
H17   H     H_    0.922883 0.728797 0.341507 0.028101
H18   H     H_    0.839396 0.845051 0.366822 -0.022659
H19   H     H_    0.080633 0.788463 0.280576 0.169064
H20   H     H_    0.862515 0.830632 0.275952 0.120888
H21   H     H_    0.001161 0.903515 0.307499 0.093221
H22   H     H_    0.610907 0.773349 0.368452 -0.142618
H23   H     H_    0.245840 0.146773 0.301559 0.049251
H24   H     H_    0.424419 0.795747 0.403881 0.083905
H25   H     H_    0.482529 0.930018 0.367980 0.118654
H26   H     H_    0.293239 0.894162 0.342051 0.147888
H27   H     H_    0.124320 0.329430 0.650957 0.082473
H28   H     H_    0.477951 0.867183 0.305441 0.108684
H29   H     H_    0.153415 0.463226 0.285363 0.132119
H30   H     H_    0.097406 0.293961 0.109678 0.131780
H31   H     H_    0.562091 0.471522 0.756343 0.099321
H32   H     H_    0.365532 0.289880 0.874470 0.121683
H33   H     H_    0.295454 0.290958 0.959218 0.071489
H34   H     H_    0.858012 0.712166 0.573225 0.003264
H35   H     H_    0.171969 0.287943 0.024852 0.070755
H36   H     H_    0.674025 0.606180 0.249969 0.101361
H37   H     H_    0.937283 0.750476 0.136528 0.118619
H38   H     H_    0.982569 0.738625 0.972485 0.070441
H39   H     H_    0.317437 0.253222 0.652049 -0.011353
H40   H     H_    0.042220 0.731320 0.886292 0.122166
H41   H     H_    0.043611 0.541833 0.717276 0.117147
H42   H     H_    0.995276 0.748375 0.050664 0.070634
H43   H     H_    0.814573 0.536059 0.400680 0.074121
H44   H     H_    0.362002 0.438139 0.604272 0.067279
H45   H     H_    0.064316 0.715612 0.554336 0.075277
H46   H     H_    0.850882 0.120615 0.434454 0.112271
H47   H     H_    0.968751 0.965315 0.428719 0.108114
H48   H     H_    0.228751 0.041540 0.571054 0.107418
H49   H     H_    0.343050 0.887222 0.563992 0.103966
H50   H     H_    0.377629 0.306009 0.516062 0.067197
H51   H     H_    0.009608 0.242001 0.710423 0.145476
H52   H     H_    0.803541 0.700299 0.479521 0.061399
H53   H     H_    0.213072 0.177804 0.715910 0.117568
H54   H     H_    0.383572 0.297069 0.373053 0.048841
H55   H     H_    0.985537 0.243016 0.291565 0.270749
H56   H     H_    0.858487 0.857718 0.629562 0.132791
H57   H     H_    0.100558 0.196035 0.426925 0.315521
H58   H     H_    0.912249 0.871130 0.567277 0.062019
H59   H     H_    0.070885 0.858887 0.614973 0.118279
H60   H     H_    0.826352 0.353492 0.378642 0.050096
N1    N     N_R   0.952952 0.526008 0.206159 -0.429469
N2    N     N_R   0.265009 0.506101 0.797140 -0.425356
O1    O     O_2   0.906480 0.548660 0.619050 -0.465552
O2    O     O_2   0.182057 0.823735 0.473484 -0.483778
O3    O     O_3   0.089240 0.804690 0.380089 -0.579797
O4    O     O_3   0.138490 0.548590 0.558870 -0.492730
O5    O     O_3   0.572560 0.389960 0.472890 -0.494179
O6    O     O_2   0.345660 0.723580 0.528500 -0.469621
O7    O     O_3   0.534526 0.754084 0.609737 -0.645686
O8    O     O_2   0.418771 0.538106 0.323480 -0.482692
O9    O     O_3   0.408646 0.715918 0.334699 -0.566872
O10   O     O_2   0.987920 0.373233 0.191899 -0.514603
O11   O     O_2   0.383326 0.360677 0.797574 -0.601700
O12   O     O_3   0.668747 0.268107 0.391490 -0.623869
O13   O     O_2   0.911346 0.678900 0.212600 -0.625221
O14   O     O_2   0.151199 0.653371 0.803622 -0.595359
O15   O     O_3   0.686300 0.382310 0.585700 -0.490825
O16   O     O_2   0.845463 0.428499 0.671113 -0.497909
O17   O     O_3   0.036726 0.694162 0.627607 -0.627528
O18   O     O_3   0.678905 0.296006 0.672676 -0.591652
O19   O     O_2   0.844040 0.276390 0.471470 -0.466162
O20   O     O_3   0.101510 0.335500 0.560330 -0.483851
O21   O     O_2   0.008824 0.176181 0.527709 -0.474911
O22   O     O_2   0.279333 0.305674 0.244648 -0.577171
O23   O     O_3   0.117799 0.194806 0.620099 -0.619513
O24   O     O_R   0.032727 0.280595 0.269234 -0.695740
O25   O     O_2   0.453836 0.125414 0.387459 -0.617808
O26   O     O_R   0.208820 0.154106 0.425054 -0.747320
O27   O     O_2   0.283210 0.451310 0.380920 -0.486444
O28   O     O_3   0.051220 0.451340 0.441120 -0.463884
O29   O     O_3   0.503410 0.617620 0.414290 -0.473625
O30   O     O_3   0.129276 0.304011 0.375736 -0.680502
O31   O     O_3   0.617150 0.609960 0.527100 -0.476538
O32   O     O_3   0.088210 0.664420 0.439670 -0.467370
P1    P     P_3+3 0.071950 0.575820 0.612140 0.993505
P2    P     P_3+3 0.664370 0.290050 0.457240 0.990620
P3    P     P_3+3 0.144923 0.219054 0.559797 0.956626
P4    P     P_3+3 0.117760 0.424110 0.387850 0.987694
P5    P     P_3+3 0.048239 0.782142 0.439686 0.957394
P6    P     P_3+3 0.678598 0.400435 0.651254 0.968781
P7    P     P_3+3 0.531387 0.723425 0.544535 0.939231
P8    P     P_3+3 0.515234 0.613243 0.349578 0.982693

loop_
_geom_bond_atom_site_label_1
_geom_bond_atom_site_label_2
_ccdc_geom_bond_type
C57   H49   S    
O7    P7    S    
C53   C54   A    
C28   H54   S    
O15   P6    S    
C4    H39   S    
O30   P4    S    
C65   H5    S    
C8    N1    S    
C28   O30   S    
C19   C24   A    
C67   H24   S    
Ba2   O28   S    
C63   H58   S    
C55   C60   A    
O8    P8    D    
C52   C63   S    
C44   P5    S    
C32   H41   S    
C69   H25   S    
C24   C25   A    
C58   C59   A    
O5    P2    S    
C26   N2    Am   
Ba2   O5    S    
C17   C19   A    
C56   H21   S    
C22   C24   A    
C68   O25   D    
C35   C38   A    
C51   H50   S    
C16   H53   S    
C27   O11   D    
C36   C37   A    
C32   C33   S    
O17   P1    S    
C61   P3    S    
Ba1   P1    S    
C34   H11   S    
O31   P7    S    
C64   H2    S    
C5    P8    S    
C54   C55   A    
C33   N2    S    
C59   C61   A    
Ba1   Ba2   S    
C67   C69   S    
C22   C27   A    
C53   P7    S    
C11   C38   A    
C58   H48   S    
C17   C35   A    
O23   P3    S    
C9    C13   A    
C43   H42   S    
C46   C49   A    
O16   P6    D    
C29   C30   S    
O6    P7    D    
C49   H47   S    
C21   C22   A    
Ba1   O15   S    
C41   H38   S    
C1    H3    S    
C56   H19   S    
Ba2   O32   S    
C23   H9    S    
C16   H51   S    
C37   C43   A    
C64   C65   S    
C30   P6    S    
O32   P5    S    
C6    C14   D    
C39   H37   S    
C40   C66   S    
C45   H17   S    
C31   P1    S    
C65   H6    S    
C15   C31   D    
C66   O24   S    
C1    H8    S    
C25   C42   A    
Ba2   O27   S    
C63   H59   S    
C6    P4    S    
C31   C32   D    
C64   H60   S    
C20   C21   A    
C4    C16   S    
C69   H26   S    
C44   C46   A    
C26   O14   D    
O3    P5    S    
C52   H34   S    
C1    H15   S    
C40   H23   S    
Ba2   O4    S    
C63   H56   S    
C46   C55   A    
C17   C20   A    
C40   H12   S    
C13   C39   A    
C67   H22   S    
C3    C5    S    
C18   C37   A    
C6    C7    D    
Ba1   P2    S    
C34   H14   S    
C62   H52   S    
C2    O13   D    
C16   H16   S    
O20   P3    S    
C44   C62   A    
O4    P1    S    
C29   H31   S    
C9    C36   A    
C41   C42   A    
C12   H1    S    
C57   C58   A    
C35   C36   A    
O21   P3    D    
C21   H32   S    
O28   P4    S    
O2    P5    D    
Ba1   O31   S    
C9    C10   A    
C47   C50   A    
C53   C62   A    
C45   O3    S    
C48   C49   A    
C12   H7    S    
C18   C19   A    
Ba1   O19   S    
H55   O24   S    
C1    C12   S    
Ba2   P4    S    
C38   H35   S    
O27   P4    D    
C42   H40   S    
C5    C14   S    
Ba1   O28   S    
O19   P2    D    
C23   H10   S    
C45   H18   S    
C29   C33   D    
C14   H43   S    
C4    O23   S    
C50   C51   A    
C7    C8    S    
C70   O10   D    
O12   P2    S    
O1    P1    D    
C47   C60   A    
C48   H46   S    
C23   O7    S    
C66   O22   D    
Ba1   O5    S    
Ba2   O29   S    
Ba1   O20   S    
C52   O17   S    
C34   H13   S    
C67   O9    S    
C20   H33   S    
C69   H28   S    
C54   C57   A    
Ba2   O6    S    
C4    H27   S    
C2    C13   A    
C3    C8    D    
C50   P2    S    
C45   C56   S    
C51   C61   A    
C70   N1    Am   
O18   P6    S    
C27   N2    Am   
C68   O26   S    
C10   C70   A    
C59   C60   A    
C18   C41   A    
C64   O12   S    
C23   C34   S    
C28   C68   S    
C10   C11   A    
C7    H29   S    
C47   C48   A    
C52   H45   S    
C12   O18   S    
C25   C26   A    
C15   C30   S    
C39   C43   A    
Ba2   O31   S    
C28   C40   S    
C65   H4    S    
O9    P8    S    
C11   H30   S    
Ba1   O1    S    
O29   P8    S    
C56   H20   S    
H57   O26   S    
Ba1   O4    S    
C15   H44   S    
C2    N1    Am   
C3    H36   S    
