data_mof_unit_37797.cif
_audit_creation_date              2012-12-10T21:11:29-0500
_audit_creation_method            fapswitch 2.2
_symmetry_space_group_name_H-M    P1
_symmetry_Int_Tables_number       1
_space_group_crystal_system       triclinic
_cell_length_a                    17.500613
_cell_length_b                    16.692968
_cell_length_c                    10.379744
_cell_angle_alpha                 90.000976
_cell_angle_beta                  89.898615
_cell_angle_gamma                 90.000098
_cell_volume                      3032.30431871

loop_
_atom_site_label
_atom_site_type_symbol
_atom_type_description
_atom_site_fract_x
_atom_site_fract_y
_atom_site_fract_z
_atom_type_partial_charge
C1    C     C_R   0.352937 0.500000 0.497695 0.859813
C2    C     C_R   0.647090 0.500000 0.498622 0.858106
C3    C     C_R   0.886035 0.500000 0.442504 0.167194
C4    C     C_R   0.114492 0.499997 0.436445 0.166841
C5    C     C_1   0.966265 0.499999 0.430750 -0.071564
C6    C     C_1   0.034114 0.499998 0.428738 -0.072080
C7    C     C_R   0.539861 0.832342 0.405236 -0.275794
C8    C     C_R   0.459979 0.167630 0.594466 -0.275742
C9    C     C_R   0.460133 0.832373 0.594653 -0.275720
C10   C     C_R   0.540016 0.167657 0.405423 -0.275811
C11   C     C_R   0.539283 0.748009 0.407146 -0.004816
C12   C     C_R   0.460560 0.251962 0.592629 -0.005107
C13   C     C_R   0.460709 0.748040 0.592810 -0.005187
C14   C     C_R   0.539432 0.251990 0.407326 -0.004774
C15   C     C_R   0.499998 0.875559 0.499929 0.164115
C16   C     C_R   0.499999 0.124442 0.499929 0.164086
C17   C     C_1   0.500003 0.963397 0.499909 -0.056076
C18   C     C_1   0.500003 0.036604 0.499909 -0.056065
C19   C     C_R   0.485885 0.499999 0.259802 0.922288
C20   C     C_R   0.513648 0.500001 0.740501 0.922919
C21   C     C_R   0.444646 0.646868 0.100184 0.244627
C22   C     C_R   0.553748 0.352965 0.900649 0.244498
C23   C     C_R   0.553727 0.647040 0.900666 0.244485
C24   C     C_R   0.444673 0.353118 0.100177 0.244648
C25   C     C_R   0.470948 0.719100 0.047899 -0.227611
C26   C     C_R   0.527233 0.280813 0.952956 -0.228421
C27   C     C_R   0.527197 0.719188 0.952973 -0.228531
C28   C     C_R   0.470986 0.280891 0.047886 -0.227521
C29   C     C_R   0.521934 0.573394 0.944609 0.032970
C30   C     C_R   0.476536 0.426651 0.055947 0.033132
C31   C     C_R   0.476523 0.573341 0.055951 0.033149
C32   C     C_R   0.521945 0.426607 0.944602 0.032935
C33   C     C_R   0.530855 0.500002 0.878643 -0.243109
C34   C     C_R   0.467888 0.499996 0.121968 -0.242025
C35   C     C_R   0.847517 0.572772 0.453740 -0.166231
C36   C     C_R   0.153056 0.427227 0.446986 -0.164418
C37   C     C_R   0.153059 0.572769 0.446955 -0.164416
C38   C     C_R   0.847512 0.427228 0.453681 -0.166235
C39   C     C_R   0.769287 0.572891 0.475148 -0.202990
C40   C     C_R   0.231185 0.427110 0.468923 -0.206373
C41   C     C_R   0.231189 0.572888 0.468891 -0.206364
C42   C     C_R   0.769282 0.427108 0.475090 -0.202999
C43   C     C_R   0.729747 0.499999 0.485395 -0.036289
C44   C     C_R   0.270549 0.499999 0.480774 -0.041679
H1    H     H_    0.448514 0.224279 0.082174 0.155960
H2    H     H_    0.549602 0.775868 0.918853 0.156004
H3    H     H_    0.549647 0.224137 0.918833 0.156002
H4    H     H_    0.448464 0.775707 0.082186 0.155963
H5    H     H_    0.878009 0.629141 0.447059 0.131756
H6    H     H_    0.122570 0.370855 0.440477 0.131737
H7    H     H_    0.122576 0.629141 0.440420 0.131742
H8    H     H_    0.878000 0.370859 0.446954 0.131750
H9    H     H_    0.739837 0.629782 0.482671 0.157095
H10   H     H_    0.260603 0.370218 0.476573 0.159118
H11   H     H_    0.260609 0.629781 0.476515 0.159146
H12   H     H_    0.739828 0.370217 0.482566 0.157065
H13   H     H_    0.571250 0.863481 0.330444 0.138756
H14   H     H_    0.428468 0.136467 0.669086 0.138882
H15   H     H_    0.428745 0.863537 0.669422 0.138874
H16   H     H_    0.571530 0.136517 0.330782 0.138763
H17   H     H_    0.570219 0.715113 0.333959 0.141341
H18   H     H_    0.429511 0.284836 0.665703 0.141626
H19   H     H_    0.429777 0.715169 0.666028 0.141711
H20   H     H_    0.570484 0.284888 0.334283 0.141254
N1    N     N_R   0.500000 0.707230 0.500000 -0.096842
N2    N     N_R   0.500000 0.292770 0.500000 -0.096853
O1    O     O_R   0.389110 0.566570 0.499990 -0.624051
O2    O     O_R   0.610890 0.433430 0.500010 -0.623867
O3    O     O_R   0.610890 0.566570 0.500010 -0.623816
O4    O     O_R   0.389110 0.433430 0.499990 -0.624101
O5    O     O_R   0.499990 0.566540 0.316770 -0.605215
O6    O     O_R   0.500010 0.433460 0.683230 -0.604341
O7    O     O_R   0.500010 0.566540 0.683230 -0.604403
O8    O     O_R   0.499990 0.433460 0.316770 -0.605166
Zn1   Zn    Zn3+2 0.500000 0.588860 0.500000 0.923963
Zn2   Zn    Zn3+2 0.500000 0.411140 0.500000 0.923957
C45   C     C_3   0.378387 0.650628 0.193358 -0.864494
H21   H     H_    0.356365 0.590388 0.219041 0.225034
H22   H     H_    0.395795 0.682398 0.282514 0.256136
H23   H     H_    0.330455 0.684107 0.148615 0.222120
C46   C     C_3   0.620281 0.348956 0.808074 -0.862504
H24   H     H_    0.603112 0.317026 0.718928 0.256626
H25   H     H_    0.642458 0.409122 0.782294 0.222541
H26   H     H_    0.668027 0.315494 0.853427 0.221715
C47   C     C_3   0.620268 0.651057 0.808110 -0.862644
H27   H     H_    0.642481 0.590898 0.782392 0.222554
H28   H     H_    0.603095 0.682940 0.718931 0.256651
H29   H     H_    0.667988 0.684566 0.853443 0.221752
C48   C     C_3   0.378417 0.349344 0.193356 -0.864423
H30   H     H_    0.395834 0.317567 0.282500 0.256142
H31   H     H_    0.356389 0.409581 0.219060 0.225030
H32   H     H_    0.330486 0.315865 0.148606 0.222094

loop_
_geom_bond_atom_site_label_1
_geom_bond_atom_site_label_2
_ccdc_geom_bond_type
C30   C32   A    
C4    C36   A    
C19   O5    A    
O6    Zn2   S    
C24   C48   S    
C46   H24   S    
C13   N1    A    
C45   H21   S    
C7    C11   A    
C21   C31   A    
C22   C32   A    
C23   C29   A    
C38   C42   A    
C2    O2    A    
C5    C6    T    
C37   H7    S    
C45   H23   S    
C38   H8    S    
C29   C33   A    
C9    C13   A    
C41   H11   S    
C42   H12   S    
C3    C38   A    
C35   H5    S    
C23   C27   A    
C48   H31   S    
C2    O3    A    
C8    H14   S    
C7    C15   A    
C14   H20   S    
C8    C16   A    
O7    Zn1   S    
C46   H25   S    
C45   H22   S    
C28   H1    S    
C30   C34   A    
C47   H28   S    
C22   C46   S    
C36   C40   A    
C4    C6    S    
C10   C14   A    
C39   C43   A    
C11   H17   S    
C47   H27   S    
C12   N2    A    
C9    H15   S    
C35   C39   A    
C12   H18   S    
C1    C44   S    
C13   H19   S    
C3    C35   A    
C2    C43   S    
C8    C12   A    
N2    Zn2   S    
C17   C18   T    
C14   N2    A    
C31   C34   A    
C48   H32   S    
C25   H4    S    
O8    Zn2   S    
C26   H3    S    
C20   C33   S    
C27   H2    S    
C40   H10   S    
O4    Zn2   S    
C25   C27   A    
C41   C44   A    
O1    Zn1   S    
C42   C43   A    
C46   H26   S    
C36   H6    S    
C47   H29   S    
C15   C17   S    
C21   C25   A    
C10   H16   S    
C19   O8    A    
C24   C28   A    
C3    C5    S    
C19   C34   S    
O2    Zn2   S    
C26   C28   A    
C1    O4    A    
N1    Zn1   S    
C32   C33   A    
C9    C15   A    
C23   C47   S    
C29   C31   A    
C10   C16   A    
O5    Zn1   S    
C39   H9    S    
C1    O1    A    
C20   O7    A    
O3    Zn1   S    
C37   C41   A    
C24   C30   A    
C40   C44   A    
C4    C37   A    
C16   C18   S    
C22   C26   A    
C21   C45   S    
C20   O6    A    
C48   H30   S    
C7    H13   S    
C11   N1    A    
