data_mof_unit_26156.cif
_audit_creation_date              2012-12-10T21:28:10-0500
_audit_creation_method            fapswitch 2.2
_symmetry_space_group_name_H-M    P1
_symmetry_Int_Tables_number       1
_space_group_crystal_system       triclinic
_cell_length_a                    12.834984
_cell_length_b                    16.200062
_cell_length_c                    16.354887
_cell_angle_alpha                 87.649755
_cell_angle_beta                  94.847637
_cell_angle_gamma                 98.463464
_cell_volume                      3350.15788822

loop_
_atom_site_label
_atom_site_type_symbol
_atom_type_description
_atom_site_fract_x
_atom_site_fract_y
_atom_site_fract_z
_atom_type_partial_charge
C1    C     C_R   0.481072 0.487665 0.651383 0.958718
C2    C     C_R   0.507026 0.511403 0.345660 0.942889
C3    C     C_R   0.353083 0.542138 0.841135 0.333680
C4    C     C_R   0.489241 0.439069 0.128087 0.373093
C5    C     C_R   0.360152 0.469664 0.889090 0.131768
C6    C     C_R   0.474841 0.514283 0.084737 0.071368
C7    C     C_R   0.377922 0.397652 0.853180 -0.239374
C8    C     C_R   0.498259 0.590088 0.124350 -0.268055
C9    C     C_R   0.406442 0.399199 0.772892 0.354277
C10   C     C_R   0.522192 0.592720 0.209080 0.415326
C11   C     C_R   0.437262 0.759981 0.466548 0.503614
C12   C     C_R   0.561501 0.239378 0.534035 0.482375
C13   C     C_R   0.444841 0.846998 0.469264 -0.322297
C14   C     C_R   0.556135 0.152895 0.527722 -0.308320
C15   C     C_R   0.529806 0.894567 0.511359 0.223550
C16   C     C_R   0.474944 0.106441 0.480356 0.226370
C17   C     C_R   0.606995 0.852115 0.552773 -0.425874
C18   C     C_R   0.399682 0.149867 0.437312 -0.410493
C19   C     C_R   0.596732 0.762700 0.554227 0.552846
C20   C     C_R   0.408037 0.238632 0.440639 0.577995
C21   C     C_R   0.702536 0.515935 0.499444 0.920782
C22   C     C_R   0.297545 0.483916 0.499994 0.907795
C23   C     C_R   0.185265 0.472771 0.499173 -0.127858
C24   C     C_R   0.815164 0.525599 0.501505 -0.102194
C25   C     C_R   0.984574 0.593260 0.557859 0.501883
C26   C     C_R   0.015449 0.400439 0.447977 0.489688
C27   C     C_R   0.875641 0.590579 0.544961 -0.298299
C28   C     C_R   0.125413 0.407437 0.455755 -0.319664
C29   C     C_R   0.861514 0.465539 0.465685 -0.181327
C30   C     C_R   0.138418 0.529536 0.538959 -0.122908
C31   C     C_R   0.968999 0.464903 0.479167 0.007673
C32   C     C_R   0.030742 0.529019 0.526472 0.009132
C33   C     C_R   0.429972 0.478109 0.730820 -0.366524
C34   C     C_R   0.515363 0.516591 0.255493 -0.396500
C35   C     C_R   0.393903 0.548844 0.763225 0.267169
C36   C     C_R   0.513508 0.441326 0.213287 0.256508
H1    H     H_    0.187151 0.576404 0.576384 0.245197
H2    H     H_    0.812712 0.418034 0.429249 0.219539
H3    H     H_    0.674176 0.889533 0.583994 0.168662
H4    H     H_    0.334721 0.114297 0.401791 0.171490
H5    H     H_    0.164906 0.364024 0.425883 0.198368
H6    H     H_    0.837387 0.636747 0.571592 0.200013
H7    H     H_    0.373116 0.340314 0.889688 0.236667
H8    H     H_    0.498735 0.647658 0.088153 0.249643
H9    H     H_    0.616746 0.121526 0.560232 0.216884
H10   H     H_    0.382909 0.878097 0.438486 0.221719
N1    N     N_2   0.369624 0.471890 0.975292 -0.004922
N2    N     N_2   0.453102 0.516917 0.998956 -0.092925
N3    N     N_R   0.512890 0.717880 0.509760 -0.171825
N4    N     N_R   0.487110 0.282120 0.490240 -0.172523
N5    N     N_2   0.538981 0.984104 0.514748 -0.133496
N6    N     N_2   0.466307 0.017040 0.475470 -0.129823
O1    O     O_R   0.495390 0.422190 0.612650 -0.515966
O2    O     O_R   0.504610 0.577810 0.387350 -0.509128
O3    O     O_R   0.503660 0.562120 0.618910 -0.593773
O4    O     O_R   0.496340 0.437880 0.381090 -0.579898
O5    O     O_R   0.650190 0.441600 0.497400 -0.585181
O6    O     O_R   0.349810 0.558400 0.502600 -0.561186
O7    O     O_R   0.658460 0.581530 0.503670 -0.570720
O8    O     O_R   0.341540 0.418470 0.496330 -0.573239
Zn1   Zn    Zn3+2 0.494480 0.406570 0.495820 1.103749
Zn2   Zn    Zn3+2 0.505520 0.593430 0.504180 1.106959
O9    O     O_3   0.670522 0.718128 0.596954 -0.585344
C37   C     C_3   0.727445 0.761301 0.664273 0.004211
H11   H     H_    0.675791 0.794830 0.698445 0.141767
H12   H     H_    0.793809 0.806452 0.642318 0.163073
C38   C     C_3   0.773350 0.699765 0.725207 -0.768210
H13   H     H_    0.841754 0.676971 0.701269 0.258425
H14   H     H_    0.801412 0.731359 0.783658 0.229418
H15   H     H_    0.712603 0.645652 0.738124 0.253540
O10   O     O_3   0.333807 0.282677 0.399061 -0.592976
C39   C     C_3   0.310526 0.257400 0.316963 0.079459
H16   H     H_    0.252361 0.199345 0.314389 0.136522
H17   H     H_    0.382938 0.247157 0.287923 0.210414
C40   C     C_3   0.260863 0.324938 0.266898 -0.703162
H18   H     H_    0.311214 0.386365 0.274482 0.258639
H19   H     H_    0.252056 0.309542 0.200920 0.254349
H20   H     H_    0.181525 0.329164 0.287193 0.222397
O11   O     O_3   0.045131 0.652416 0.607842 -0.593174
C41   C     C_3   0.038337 0.733739 0.575215 0.114184
H21   H     H_    0.961908 0.753349 0.587604 0.129018
H22   H     H_    0.046916 0.737946 0.507810 0.182504
C42   C     C_3   0.126831 0.794425 0.616805 -0.684498
H23   H     H_    0.204774 0.776942 0.605646 0.275000
H24   H     H_    0.122605 0.858722 0.591798 0.197597
H25   H     H_    0.119192 0.793204 0.684009 0.266908
O12   O     O_3   0.952917 0.336402 0.404529 -0.628236
C43   C     C_3   0.983291 0.257638 0.427993 0.118280
H26   H     H_    0.999001 0.250948 0.495899 0.164000
H27   H     H_    0.054506 0.248239 0.397330 0.152145
C44   C     C_3   0.895309 0.188432 0.400649 -0.778967
H28   H     H_    0.879672 0.191465 0.332847 0.254721
H29   H     H_    0.919260 0.126747 0.418961 0.216246
H30   H     H_    0.821895 0.194406 0.429799 0.284977
O13   O     O_3   0.535550 0.369399 0.255367 -0.555901
C45   C     C_3   0.646419 0.374523 0.269903 0.192582
H31   H     H_    0.680211 0.428988 0.307951 0.106221
H32   H     H_    0.684958 0.379829 0.210972 0.170453
C46   C     C_3   0.672418 0.295857 0.315779 -0.755154
H33   H     H_    0.637995 0.239792 0.280618 0.271038
H34   H     H_    0.759307 0.298324 0.323951 0.246491
H35   H     H_    0.640556 0.291419 0.376970 0.246444
O14   O     O_3   0.384675 0.619860 0.714560 -0.550690
C47   C     C_3   0.464231 0.685597 0.740551 0.167519
H36   H     H_    0.537861 0.679256 0.712823 0.165682
H37   H     H_    0.482993 0.686823 0.808132 0.162560
C48   C     C_3   0.429949 0.768769 0.711773 -0.724268
H38   H     H_    0.360770 0.779959 0.743821 0.293776
H39   H     H_    0.495422 0.820383 0.725415 0.194395
H40   H     H_    0.407994 0.768721 0.644711 0.229361
S1    S     S_3+6 0.480980 0.343393 0.075858 0.038141
O15   O     O_2   0.539223 0.358841 0.999488 -0.293464
O16   O     O_2   0.527245 0.277096 0.127873 -0.265937
O17   O     O_3   0.352996 0.308252 0.050094 -0.565987
H41   H     H_    0.353018 0.254014 0.024255 0.383815
S2    S     S_3+6 0.287312 0.620241 0.878532 0.057299
O18   O     O_2   0.366278 0.684273 0.922942 -0.318658
O19   O     O_2   0.228955 0.661892 0.808783 -0.247687
O20   O     O_3   0.200113 0.576073 0.944393 -0.514789
H42   H     H_    0.170224 0.623263 0.965501 0.392851
S3    S     S_3+6 0.404648 0.299782 0.730509 0.076661
O21   O     O_2   0.351957 0.296834 0.644854 -0.261088
O22   O     O_2   0.515687 0.281521 0.729409 -0.222270
O23   O     O_3   0.336852 0.224928 0.787710 -0.526608
H43   H     H_    0.390112 0.205221 0.828384 0.373335
S4    S     S_3+6 0.575717 0.691052 0.249924 0.060740
O24   O     O_2   0.489134 0.731997 0.279827 -0.222217
O25   O     O_2   0.658002 0.681154 0.319295 -0.307488
O26   O     O_3   0.632452 0.752692 0.175873 -0.541737
H44   H     H_    0.658066 0.806700 0.202200 0.391271
S5    S     S_3+6 0.675699 0.284856 0.595417 0.075812
O27   O     O_2   0.666268 0.364875 0.634840 -0.224175
O28   O     O_2   0.701240 0.223295 0.662868 -0.270555
O29   O     O_3   0.777324 0.300521 0.535876 -0.607949
H45   H     H_    0.841354 0.309880 0.574524 0.385510
S6    S     S_3+6 0.318879 0.712864 0.411044 0.072728
O30   O     O_2   0.236518 0.691011 0.471146 -0.364481
O31   O     O_2   0.280335 0.775547 0.349704 -0.274454
O32   O     O_3   0.329089 0.628155 0.358420 -0.499930
H46   H     H_    0.255673 0.605777 0.338654 0.364477

loop_
_geom_bond_atom_site_label_1
_geom_bond_atom_site_label_2
_ccdc_geom_bond_type
O6    Zn2   S    
O12   C43   S    
C4    C36   A    
S4    O24   D    
O4    Zn1   S    
C12   S5    S    
O13   C45   S    
C27   H6    S    
C24   C27   A    
S5    O29   S    
C47   H37   S    
O17   H41   S    
C1    C33   S    
S1    O16   D    
C5    N1    S    
C6    N2    S    
C42   H23   S    
C21   O7    A    
C35   O14   S    
C3    S2    S    
S6    O32   S    
C22   O8    A    
C13   H10   S    
C41   H21   S    
C45   C46   S    
C28   H5    S    
S2    O18   D    
C15   C17   A    
C17   H3    S    
C18   H4    S    
C24   C29   A    
S3    O23   S    
C20   N4    A    
C17   C19   A    
O1    Zn1   S    
C46   H33   S    
C19   O9    S    
C26   O12   S    
C45   H32   S    
C29   H2    S    
C9    S3    S    
C48   H38   S    
C20   O10   S    
C15   N5    S    
C18   C20   A    
C2    C34   S    
C25   C32   A    
C26   C31   A    
C9    C33   A    
C48   H39   S    
C41   C42   S    
C47   H36   S    
C14   H9    S    
C38   H13   S    
C23   C30   A    
C8    H8    S    
O11   C41   S    
C41   H22   S    
C2    O2    A    
C44   H28   S    
C5    C7    A    
S6    O30   D    
C6    C8    A    
O2    Zn2   S    
S4    O26   S    
S5    O28   D    
N5    N6    D    
C30   H1    S    
O8    Zn1   S    
C38   H14   S    
C37   H12   S    
C40   H18   S    
C37   C38   S    
C21   O5    A    
C11   N3    A    
C44   H29   S    
C19   N3    A    
N1    N2    D    
C43   C44   S    
C3    C35   A    
O20   H42   S    
C45   H31   S    
C42   H25   S    
C10   C34   A    
C16   C18   A    
C23   C28   A    
C43   H26   S    
C40   H19   S    
S3    O21   D    
C39   H17   S    
C42   H24   S    
C4    S1    S    
C12   C14   A    
C7    H7    S    
C13   C15   A    
C48   H40   S    
C14   C16   A    
C4    C6    A    
S5    O27   D    
S6    O31   D    
O26   H44   S    
C7    C9    A    
O7    Zn2   S    
S4    O25   D    
N3    Zn2   S    
S1    O15   D    
C46   H34   S    
C25   O11   S    
C31   C32   A    
C16   N6    S    
C43   H27   S    
C39   H16   S    
C3    C5    A    
C22   O6    A    
C12   N4    A    
O32   H46   S    
O5    Zn1   S    
O29   H45   S    
C25   C27   A    
C26   C28   A    
S2    O20   S    
C38   H15   S    
C37   H11   S    
C1    O3    A    
O10   C39   S    
C29   C31   A    
C2    O4    A    
C11   S6    S    
C44   H30   S    
C30   C32   A    
C11   C13   A    
C36   O13   S    
C39   C40   S    
C33   C35   A    
S2    O19   D    
S1    O17   S    
C34   C36   A    
C40   H20   S    
C1    O1    A    
S3    O22   D    
O9    C37   S    
C46   H35   S    
O3    Zn2   S    
C8    C10   A    
C21   C24   S    
O14   C47   S    
N4    Zn1   S    
C22   C23   S    
C10   S4    S    
C47   C48   S    
O23   H43   S    
