data_mof_unit_68078.cif
_audit_creation_date              2013-03-05T15:51:45-0500
_audit_creation_method            fapswitch 2.2
_symmetry_space_group_name_H-M    P1
_symmetry_Int_Tables_number       1
_space_group_crystal_system       triclinic
_cell_length_a                    7.439694
_cell_length_b                    11.891285
_cell_length_c                    28.881126
_cell_angle_alpha                 89.99895
_cell_angle_beta                  89.362854
_cell_angle_gamma                 89.999204
_cell_volume                      2554.88366166

loop_
_atom_site_label
_atom_site_type_symbol
_atom_site_description
_atom_site_fract_x
_atom_site_fract_y
_atom_site_fract_z
_atom_type_partial_charge
O1    O     O_R   0.647170 0.849180 0.201220 -0.568843
O2    O     O_R   0.352830 0.150820 0.798780 -0.568849
O3    O     O_R   0.352830 0.150820 0.701220 -0.551676
O4    O     O_R   0.647170 0.849180 0.298780 -0.551675
O5    O     O_R   0.147170 0.650820 0.298780 -0.551674
O6    O     O_R   0.852830 0.349180 0.701220 -0.551677
O7    O     O_R   0.852830 0.349180 0.798780 -0.568842
O8    O     O_R   0.147170 0.650820 0.201220 -0.568881
O9    O     O_R   0.317430 0.862210 0.298450 -0.576899
O10   O     O_R   0.682570 0.137790 0.701550 -0.576899
O11   O     O_R   0.682570 0.137790 0.798450 -0.557786
O12   O     O_R   0.317430 0.862210 0.201550 -0.557786
O13   O     O_R   0.817430 0.637790 0.201550 -0.557786
O14   O     O_R   0.182570 0.362210 0.798450 -0.557764
O15   O     O_R   0.182570 0.362210 0.701550 -0.576901
O16   O     O_R   0.817430 0.637790 0.298450 -0.576899
C1    C     C_R   0.484934 0.887423 0.313348 0.984713
C2    C     C_R   0.515066 0.112578 0.686651 0.984704
C3    C     C_R   0.514069 0.112527 0.813416 0.985646
C4    C     C_R   0.485932 0.887463 0.186582 0.985599
C5    C     C_R   0.985930 0.612541 0.186582 0.985709
C6    C     C_R   0.014066 0.387481 0.813410 0.985556
C7    C     C_R   0.015065 0.387423 0.686651 0.984694
C8    C     C_R   0.984935 0.612576 0.313348 0.984705
H1    H     H_    0.899000 0.594638 0.691101 0.139850
H2    H     H_    0.100996 0.405361 0.308897 0.139854
H3    H     H_    0.884351 0.402038 0.190246 0.141346
H4    H     H_    0.115574 0.598050 0.809752 0.141297
H5    H     H_    0.615509 0.901974 0.809743 0.141347
H6    H     H_    0.384181 0.097952 0.190226 0.141340
H7    H     H_    0.600992 0.094638 0.308895 0.139858
H8    H     H_    0.399005 0.905364 0.691103 0.139843
O17   O     O_3   0.480630 0.680630 0.250000 -0.295613
O18   O     O_3   0.519370 0.319370 0.750000 -0.295604
O19   O     O_3   0.980630 0.819370 0.250000 -0.295598
O20   O     O_3   0.019370 0.180630 0.750000 -0.295610
V1    V     V_3+5 0.205800 0.762860 0.250000 1.269701
V2    V     V_3+5 0.794200 0.237140 0.750000 1.269687
V3    V     V_3+5 0.705800 0.737140 0.250000 1.269700
V4    V     V_3+5 0.294200 0.262860 0.750000 1.269692
H9    H     H_    0.007131 0.288397 0.537803 0.214646
H10   H     H_    0.992875 0.711600 0.462196 0.214645
H11   H     H_    0.999416 0.711324 0.038176 0.215096
H12   H     H_    0.000527 0.288755 0.961802 0.215208
H13   H     H_    0.500728 0.211244 0.961797 0.215207
H14   H     H_    0.499810 0.788735 0.038208 0.215054
H15   H     H_    0.492879 0.788401 0.462199 0.214641
H16   H     H_    0.507133 0.211605 0.537799 0.214643
C9    C     C_R   0.993270 0.532387 0.352111 -0.263778
C10   C     C_R   0.006730 0.467611 0.647888 -0.263776
C11   C     C_R   0.008224 0.468769 0.852005 -0.267859
C12   C     C_R   0.991743 0.531262 0.147984 -0.267925
C13   C     C_R   0.491767 0.968748 0.147984 -0.267900
C14   C     C_R   0.508243 0.031228 0.852012 -0.267923
C15   C     C_R   0.506732 0.032390 0.647888 -0.263774
C16   C     C_R   0.493267 0.967613 0.352110 -0.263779
C17   C     C_R   0.059291 0.342066 0.378996 0.208676
C18   C     C_R   0.940707 0.657932 0.621003 0.208682
C19   C     C_R   0.063385 0.660137 0.879560 0.204175
C20   C     C_R   0.936445 0.339899 0.120441 0.204284
C21   C     C_R   0.436474 0.160106 0.120431 0.204450
C22   C     C_R   0.563447 0.839843 0.879554 0.203628
C23   C     C_R   0.440707 0.842071 0.621005 0.208684
C24   C     C_R   0.559292 0.157933 0.378993 0.208679
C25   C     C_R   0.061105 0.425066 0.344058 -0.203470
C26   C     C_R   0.938892 0.574932 0.655940 -0.203465
C27   C     C_R   0.071979 0.577438 0.844543 -0.199782
C28   C     C_R   0.927919 0.422618 0.155450 -0.199855
C29   C     C_R   0.427868 0.077381 0.155439 -0.199730
C30   C     C_R   0.571986 0.922564 0.844542 -0.199852
C31   C     C_R   0.438895 0.925069 0.655941 -0.203463
C32   C     C_R   0.561103 0.074933 0.344056 -0.203470
C33   C     C_R   0.933773 0.561865 0.396605 0.298158
C34   C     C_R   0.066227 0.438133 0.603394 0.298165
C35   C     C_R   0.944299 0.438463 0.896050 0.296267
C36   C     C_R   0.055629 0.561554 0.103934 0.296287
C37   C     C_R   0.555832 0.938486 0.103948 0.296188
C38   C     C_R   0.444382 0.061514 0.896064 0.296051
C39   C     C_R   0.566227 0.061869 0.603393 0.298171
C40   C     C_R   0.433774 0.938136 0.396605 0.298161
C41   C     C_R   0.979257 0.492414 0.434738 0.009741
C42   C     C_R   0.020744 0.507583 0.565261 0.009737
C43   C     C_R   0.983737 0.508179 0.934599 0.010322
C44   C     C_R   0.016109 0.491836 0.065390 0.010348
C45   C     C_R   0.516367 0.008189 0.065396 0.010077
C46   C     C_R   0.483929 0.991794 0.934607 0.010826
C47   C     C_R   0.520744 0.992419 0.565261 0.009724
C48   C     C_R   0.479260 0.007586 0.434737 0.009728
C49   C     C_R   0.019445 0.376358 0.425995 -0.082268
C50   C     C_R   0.980555 0.623640 0.574003 -0.082274
C51   C     C_R   0.021388 0.624771 0.926297 -0.081549
C52   C     C_R   0.978450 0.375232 0.073695 -0.081183
C53   C     C_R   0.478594 0.124778 0.073692 -0.081273
C54   C     C_R   0.521529 0.875186 0.926303 -0.081017
C55   C     C_R   0.480555 0.876363 0.574005 -0.082284
C56   C     C_R   0.519448 0.123642 0.425993 -0.082279
C57   C     C_R   0.986905 0.536327 0.481072 0.114132
C58   C     C_R   0.013098 0.463670 0.518927 0.114134
C59   C     C_R   0.989011 0.463809 0.980921 0.113859
C60   C     C_R   0.010779 0.536219 0.019071 0.113919
C61   C     C_R   0.511149 0.963795 0.019077 0.113989
C62   C     C_R   0.489310 0.036184 0.980925 0.114096
C63   C     C_R   0.513100 0.036331 0.518926 0.114143
C64   C     C_R   0.486907 0.963674 0.481072 0.114142
C65   C     C_R   0.016716 0.347688 0.509895 -0.084327
C66   C     C_R   0.983287 0.652310 0.490103 -0.084317
C67   C     C_R   0.012510 0.652314 0.010260 -0.082658
C68   C     C_R   0.987304 0.347722 0.989728 -0.082583
C69   C     C_R   0.487558 0.152276 0.989726 -0.082854
C70   C     C_R   0.512945 0.847701 0.010277 -0.082053
C71   C     C_R   0.483290 0.847692 0.490105 -0.084312
C72   C     C_R   0.516718 0.152314 0.509892 -0.084324
C73   C     C_R   0.023214 0.302829 0.465178 0.308028
C74   C     C_R   0.976789 0.697169 0.534821 0.308033
C75   C     C_R   0.021498 0.697751 0.965682 0.304162
C76   C     C_R   0.978333 0.302244 0.034303 0.303912
C77   C     C_R   0.478489 0.197756 0.034298 0.303941
C78   C     C_R   0.521746 0.802207 0.965702 0.304555
C79   C     C_R   0.476791 0.802834 0.534823 0.308030
C80   C     C_R   0.523215 0.197172 0.465174 0.308026
N1    N     N_R   0.028806 0.182317 0.461917 0.223151
O21   O     O_R   0.135890 0.126613 0.488748 -0.344759
O22   O     O_R   0.892539 0.128845 0.445074 -0.408621
N2    N     N_R   0.971198 0.817680 0.538082 0.223150
O23   O     O_R   0.864116 0.873385 0.511250 -0.344759
O24   O     O_R   0.107465 0.871151 0.554925 -0.408622
N3    N     N_R   0.027567 0.818292 0.962787 0.223119
O25   O     O_R   0.891173 0.872350 0.946314 -0.407826
O26   O     O_R   0.135355 0.873265 0.989700 -0.345850
N4    N     N_R   0.972520 0.181674 0.037173 0.223100
O27   O     O_R   0.866084 0.126583 0.009968 -0.344638
O28   O     O_R   0.108423 0.127776 0.053960 -0.408102
N5    N     N_R   0.472457 0.318319 0.037164 0.223114
O29   O     O_R   0.608354 0.372325 0.053902 -0.408054
O30   O     O_R   0.365720 0.373321 0.010001 -0.344775
N6    N     N_R   0.527500 0.681634 0.962838 0.223050
O31   O     O_R   0.633974 0.626526 0.990029 -0.344742
O32   O     O_R   0.391543 0.627759 0.946069 -0.408027
N7    N     N_R   0.471197 0.682322 0.538086 0.223148
O33   O     O_R   0.364111 0.626621 0.511256 -0.344765
O34   O     O_R   0.607465 0.628848 0.554929 -0.408630
N8    N     N_R   0.528806 0.317683 0.461911 0.223149
O35   O     O_R   0.635891 0.373386 0.488741 -0.344767
O36   O     O_R   0.392538 0.371156 0.445068 -0.408627
C81   C     C_3   0.098210 0.219880 0.365514 -0.261597
C82   C     C_3   0.167106 0.197397 0.316116 -0.998196
H17   H     H_    0.065691 0.217453 0.289681 0.251468
H18   H     H_    0.288201 0.247550 0.308748 0.274381
H19   H     H_    0.200879 0.106946 0.312323 0.278856
H20   H     H_    0.199966 0.185298 0.389086 0.211125
H21   H     H_    0.972617 0.170899 0.368928 0.247197
C83   C     C_3   0.901784 0.780118 0.634484 -0.261587
C84   C     C_3   0.832888 0.802601 0.683882 -0.998227
H22   H     H_    0.711795 0.752447 0.691250 0.274389
H23   H     H_    0.934305 0.782546 0.710316 0.251467
H24   H     H_    0.799115 0.893051 0.687674 0.278859
H25   H     H_    0.027377 0.829100 0.631070 0.247198
H26   H     H_    0.800028 0.814698 0.610912 0.211122
C85   C     C_3   0.099006 0.783050 0.866562 -0.263725
C86   C     C_3   0.167497 0.807768 0.817315 -0.995990
H27   H     H_    0.291619 0.760514 0.809890 0.273203
H28   H     H_    0.067132 0.786235 0.790783 0.251804
H29   H     H_    0.196980 0.898944 0.813928 0.279972
H30   H     H_    0.971819 0.830375 0.870101 0.247641
H31   H     H_    0.199681 0.818261 0.890301 0.212747
C87   C     C_3   0.900805 0.217010 0.133478 -0.263553
C88   C     C_3   0.832037 0.192407 0.182708 -0.996642
H32   H     H_    0.932345 0.213908 0.209262 0.251852
H33   H     H_    0.707996 0.239770 0.190086 0.273404
H34   H     H_    0.802385 0.101258 0.186112 0.279974
H35   H     H_    0.800376 0.181676 0.109702 0.212597
H36   H     H_    0.028059 0.169735 0.130060 0.247894
C89   C     C_3   0.400796 0.282994 0.133459 -0.263574
C90   C     C_3   0.332073 0.307615 0.182693 -0.996584
H37   H     H_    0.207991 0.260298 0.190076 0.273356
H38   H     H_    0.432365 0.286076 0.209245 0.251851
H39   H     H_    0.302500 0.398774 0.186096 0.279988
H40   H     H_    0.528028 0.330288 0.130019 0.247825
H41   H     H_    0.300316 0.318297 0.109688 0.212689
C91   C     C_3   0.598965 0.716942 0.866519 -0.263484
C92   C     C_3   0.667632 0.692314 0.817284 -0.996425
H42   H     H_    0.567286 0.713850 0.790744 0.251821
H43   H     H_    0.791705 0.739635 0.809899 0.273406
H44   H     H_    0.697213 0.601155 0.813880 0.279983
H45   H     H_    0.699416 0.681575 0.890283 0.212578
H46   H     H_    0.471669 0.669715 0.869950 0.247897
C93   C     C_3   0.401780 0.719886 0.634487 -0.261589
C94   C     C_3   0.332885 0.697403 0.683885 -0.998243
H47   H     H_    0.434308 0.717449 0.710318 0.251455
H48   H     H_    0.211799 0.747563 0.691254 0.274386
H49   H     H_    0.299101 0.606954 0.687678 0.278861
H50   H     H_    0.300022 0.685310 0.610915 0.211124
H51   H     H_    0.527370 0.670900 0.631073 0.247199
C95   C     C_3   0.598215 0.280118 0.365509 -0.261615
C96   C     C_3   0.667108 0.302600 0.316111 -0.998190
H52   H     H_    0.788196 0.252440 0.308742 0.274382
H53   H     H_    0.565686 0.282553 0.289677 0.251474
H54   H     H_    0.700892 0.393048 0.312318 0.278854
H55   H     H_    0.472624 0.329103 0.368923 0.247200
H56   H     H_    0.699974 0.314696 0.389080 0.211125
N9    N     N_R   0.196841 0.349967 0.597922 0.216718
O37   O     O_R   0.169592 0.250379 0.615321 -0.364600
O38   O     O_R   0.344997 0.370211 0.575117 -0.328590
N10   N     N_R   0.803160 0.650031 0.402078 0.216717
O39   O     O_R   0.655003 0.629787 0.424882 -0.328583
O40   O     O_R   0.830410 0.749619 0.384680 -0.364605
N11   N     N_R   0.184440 0.651029 0.099418 0.217339
O41   O     O_R   0.334754 0.632574 0.077320 -0.332379
O42   O     O_R   0.151501 0.750855 0.115903 -0.359480
N12   N     N_R   0.815501 0.348981 0.900553 0.217303
O43   O     O_R   0.848520 0.249141 0.884092 -0.359618
O44   O     O_R   0.665150 0.367432 0.922640 -0.332479
N13   N     N_R   0.315554 0.150980 0.900584 0.217366
O45   O     O_R   0.165309 0.132534 0.922722 -0.332289
O46   O     O_R   0.348457 0.250809 0.884095 -0.359503
N14   N     N_R   0.684742 0.849060 0.099457 0.217313
O47   O     O_R   0.651801 0.749200 0.115908 -0.359692
O48   O     O_R   0.835067 0.867565 0.077366 -0.332484
N15   N     N_R   0.303160 0.849973 0.402080 0.216719
O49   O     O_R   0.330405 0.750385 0.384682 -0.364597
O50   O     O_R   0.155009 0.870218 0.424886 -0.328583
N16   N     N_R   0.696840 0.150032 0.597920 0.216717
O51   O     O_R   0.844998 0.129786 0.575117 -0.328590
O52   O     O_R   0.669592 0.249620 0.615318 -0.364596

loop_
_geom_bond_atom_site_label_1
_geom_bond_atom_site_label_2
_geom_bond_distance
_ccdc_geom_bond_type
C48   C56   1.433892 A    
C35   N12   1.436859 S    
C87   H36   1.104528 S    
C61   C62   1.409069 A    
O5    V1    1.984021 S    
C42   C58   1.438181 A    
N9    O37   1.301429 A    
N4    O28   1.295755 A    
C24   C32   1.411423 A    
C77   N5    1.436712 S    
C36   C44   1.421356 A    
C40   N15   1.436989 S    
C39   C47   1.420471 A    
C57   C58   1.408690 A    
C69   C77   1.397221 A    
C88   H33   1.099918 S    
N13   O45   1.300169 A    
C59   C68   1.403692 A    
O11   C3    1.355186 A    
O17   V3    1.804956 S    
C58   C65   1.403835 A    
C9    C25   1.390980 A    
C66   C74   1.397654 A    
C94   H49   1.109673 S    
O18   V4    1.804955 S    
C94   H48   1.099240 S    
O19   V1    1.804939 S    
C11   C35   1.400264 A    
C82   H17   1.105357 S    
C17   C81   1.531014 S    
C10   C34   1.399115 A    
C22   C91   1.531404 S    
H13   C69   1.072439 S    
C6    C11   1.475694 S    
C90   H39   1.110247 S    
C89   H41   1.103521 S    
C23   C55   1.444907 A    
C75   N3    1.436507 S    
C22   C30   1.411623 A    
O3    C2    1.352534 A    
C71   C79   1.397652 A    
O12   V1    2.004384 S    
C90   H37   1.099939 S    
C45   C61   1.439061 A    
H3    C28   1.080570 S    
C46   C54   1.434231 A    
C37   C45   1.421329 A    
C19   C27   1.411572 A    
C19   C85   1.531397 S    
C18   C26   1.411422 A    
C95   H56   1.103229 S    
C95   H55   1.104532 S    
C16   C32   1.390984 A    
C47   C55   1.433891 A    
C65   C73   1.397656 A    
O6    V2    1.984023 S    
C73   N1    1.436703 S    
C84   H23   1.105354 S    
C81   H20   1.103228 S    
C12   C28   1.392383 A    
C36   N11   1.436891 S    
C96   H54   1.109673 S    
C41   C49   1.433893 A    
C38   C46   1.421379 A    
O15   C7    1.356442 A    
C95   C96   1.534049 S    
C13   C29   1.392405 A    
C87   H35   1.103507 S    
O16   C8    1.356441 A    
C43   C59   1.439049 A    
C93   H51   1.104532 S    
N5    O30   1.299087 A    
N9    O38   1.300186 A    
C70   C78   1.397299 A    
C87   C88   1.533873 S    
C53   C77   1.430936 A    
C34   C42   1.420460 A    
C38   N13   1.436895 S    
C33   C41   1.420460 A    
C48   C64   1.438181 A    
C18   C83   1.531013 S    
C81   C82   1.534049 S    
H8    C31   1.080507 S    
C82   H18   1.099242 S    
H12   C68   1.072435 S    
C33   N10   1.436989 S    
C49   C73   1.430584 A    
H9    C65   1.072617 S    
O13   V3    2.004400 S    
N11   O41   1.300067 A    
C44   C60   1.439051 A    
C86   H29   1.110262 S    
H4    C27   1.080581 S    
C80   N8    1.436702 S    
N14   O47   1.301264 A    
C24   C56   1.444909 A    
C60   C67   1.403802 A    
N6    O32   1.295765 A    
C92   H43   1.099911 S    
C17   C25   1.411421 A    
C88   H32   1.105957 S    
C72   C80   1.397656 A    
C4    C13   1.475707 S    
C7    C10   1.472383 S    
C19   C51   1.444680 A    
C55   C79   1.430586 A    
C61   C70   1.403754 A    
C92   H42   1.105967 S    
O14   V4    2.004399 S    
C20   C87   1.531418 S    
C85   H31   1.103528 S    
C24   C95   1.531016 S    
C63   C72   1.403834 A    
C86   H28   1.105899 S    
C15   C31   1.390984 A    
O11   V2    2.004382 S    
C13   C37   1.400249 A    
N3    O26   1.299392 A    
N15   O50   1.300184 A    
C82   H19   1.109673 S    
C15   C39   1.399118 A    
C85   C86   1.533914 S    
C14   C30   1.392411 A    
O4    V3    1.984048 S    
O12   C4    1.355182 A    
O9    V1    2.017265 S    
O8    C5    1.355071 A    
C93   H50   1.103228 S    
O13   C5    1.355157 A    
H11   C67   1.072470 S    
C42   C50   1.433893 A    
N10   O39   1.300183 A    
C84   H24   1.109672 S    
N16   O52   1.301429 A    
C18   C50   1.444906 A    
C1    C16   1.472393 S    
C67   C75   1.397142 A    
N1    O21   1.299090 A    
C81   H21   1.104534 S    
C17   C49   1.444909 A    
C2    C15   1.472399 S    
C83   H26   1.103228 S    
C47   C63   1.438184 A    
C88   H34   1.110244 S    
C3    C14   1.475775 S    
O9    C1    1.356445 A    
H7    C32   1.080509 S    
H16   C72   1.072619 S    
N10   O40   1.301427 A    
O3    V4    1.984050 S    
N12   O43   1.301264 A    
N12   O44   1.300143 A    
C22   C54   1.444806 A    
N5    O29   1.295839 A    
C9    C33   1.399111 A    
O8    V1    1.990935 S    
C57   C66   1.403835 A    
N3    O25   1.296125 A    
O4    C1    1.352534 A    
N15   O49   1.301427 A    
H6    C29   1.080570 S    
C78   N6    1.436764 S    
C91   C92   1.533807 S    
C39   N16   1.436988 S    
N2    O24   1.296024 A    
H5    C30   1.080570 S    
C92   H44   1.110254 S    
C21   C29   1.411576 A    
C8    C9    1.472382 S    
C83   H25   1.104532 S    
O1    C4    1.355054 A    
O2    C3    1.355080 A    
C85   H30   1.104686 S    
H2    C25   1.080507 S    
C56   C80   1.430587 A    
H1    C26   1.080508 S    
C23   C31   1.411423 A    
N6    O31   1.299004 A    
C12   C36   1.400244 A    
C16   C40   1.399119 A    
C64   C71   1.403830 A    
N7    O33   1.299091 A    
C10   C26   1.390981 A    
C34   N9    1.436988 S    
O7    C6    1.355062 A    
C43   C51   1.434098 A    
C23   C93   1.531014 S    
C52   C76   1.430983 A    
C59   C60   1.409117 A    
O10   V2    2.017267 S    
C91   H46   1.104546 S    
C79   N7    1.436703 S    
C86   H27   1.100021 S    
O14   C6    1.355172 A    
H14   C70   1.072450 S    
N4    O27   1.298992 A    
N13   O46   1.301269 A    
C74   N2    1.436703 S    
C93   C94   1.534046 S    
C40   C48   1.420468 A    
N7    O34   1.296023 A    
C68   C76   1.397232 A    
C11   C27   1.392471 A    
O5    C8    1.352535 A    
C41   C57   1.438178 A    
C89   H40   1.104558 S    
O10   C2    1.356445 A    
H15   C71   1.072620 S    
O6    C7    1.352535 A    
O20   V2    1.804938 S    
O7    V2    1.990932 S    
C51   C75   1.430751 A    
C21   C53   1.444796 A    
C35   C43   1.421330 A    
C50   C74   1.430584 A    
N16   O51   1.300185 A    
C90   H38   1.105940 S    
O15   V4    2.017224 S    
N1    O22   1.296024 A    
C91   H45   1.103537 S    
O1    V3    1.990892 S    
O16   V3    2.017221 S    
C89   C90   1.533901 S    
C96   H52   1.099242 S    
H10   C66   1.072618 S    
O2    V4    1.990890 S    
C45   C53   1.434212 A    
C76   N4    1.436756 S    
C83   C84   1.534048 S    
C20   C28   1.411562 A    
C54   C78   1.431036 A    
C63   C64   1.408693 A    
N11   O42   1.301253 A    
C21   C89   1.531404 S    
N8    O35   1.299090 A    
C94   H47   1.105352 S    
C62   C69   1.403722 A    
C44   C52   1.434263 A    
C96   H53   1.105361 S    
C84   H22   1.099241 S    
C20   C52   1.444805 A    
C5    C12   1.475690 S    
N8    O36   1.296024 A    
N14   O48   1.300141 A    
C37   N14   1.436872 S    
N2    O23   1.299089 A    
C14   C38   1.400235 A    
C46   C62   1.439061 A    
