data_mof_unit_20201.cif
_audit_creation_date              2012-12-10T19:43:25-0500
_audit_creation_method            fapswitch 2.2
_symmetry_space_group_name_H-M    P1
_symmetry_Int_Tables_number       1
_space_group_crystal_system       triclinic
_cell_length_a                    11.06708
_cell_length_b                    10.954646
_cell_length_c                    9.955724
_cell_angle_alpha                 89.371863
_cell_angle_beta                  92.488877
_cell_angle_gamma                 92.374292
_cell_volume                      1204.76702948

loop_
_atom_site_label
_atom_site_type_symbol
_atom_type_description
_atom_site_fract_x
_atom_site_fract_y
_atom_site_fract_z
_atom_type_partial_charge
C1    C     C_R   0.496571 0.262321 0.500821 0.852446
C2    C     C_R   0.851779 0.504298 0.981152 0.144336
C3    C     C_R   0.825392 0.383242 0.018416 0.347946
C4    C     C_R   0.262878 0.495462 0.497471 0.764899
C5    C     C_R   0.867953 0.287443 0.946545 0.396418
C6    C     C_R   0.902973 0.309482 0.814168 0.337144
C7    C     C_R   0.902985 0.430890 0.762151 -0.056142
C8    C     C_R   0.529623 0.100800 0.749999 0.413503
C9    C     C_R   0.482170 0.047611 0.865631 0.434424
C10   C     C_R   0.404767 0.943879 0.852741 0.291055
C11   C     C_R   0.400221 0.879173 0.732954 -0.248074
C12   C     C_R   0.176284 0.520350 0.987878 0.357617
C13   C     C_R   0.454788 0.930752 0.619575 -0.070888
C14   C     C_R   0.493637 0.054565 0.623201 -0.105090
C15   C     C_R   0.485335 0.125471 0.502387 -0.177938
C16   C     C_R   0.486963 0.735025 0.499097 0.823848
C17   C     C_R   0.443393 0.062570 0.384907 0.332710
C18   C     C_R   0.450143 0.934556 0.379460 0.352575
C19   C     C_R   0.462860 0.867343 0.499045 -0.144727
C20   C     C_R   0.614734 0.700629 0.140826 0.513370
C21   C     C_R   0.639587 0.808342 0.070014 -0.351425
C22   C     C_R   0.655130 0.803332 0.934888 0.218329
C23   C     C_R   0.927469 0.451497 0.391614 0.395412
C24   C     C_R   0.624761 0.694678 0.865934 0.399971
C25   C     C_R   0.556080 0.597366 0.927775 -0.030069
C26   C     C_R   0.554102 0.598385 0.075117 0.137104
C27   C     C_R   0.450236 0.408081 0.071477 0.046075
C28   C     C_R   0.737264 0.493221 0.503688 0.892504
C29   C     C_R   0.450794 0.406965 0.926943 0.600795
C30   C     C_R   0.148048 0.625573 0.057817 -0.284684
C31   C     C_R   0.107523 0.616495 0.187511 -0.094506
C32   C     C_R   0.095730 0.501919 0.248381 0.100220
C33   C     C_R   0.122881 0.396916 0.180345 -0.203515
C34   C     C_R   0.872557 0.478050 0.510452 -0.230111
C35   C     C_R   0.158028 0.404589 0.049114 0.342498
C36   C     C_R   0.947985 0.457668 0.628256 0.047433
C37   C     C_R   0.072609 0.441373 0.614094 0.430460
C38   C     C_R   0.127554 0.480359 0.496049 -0.228043
C39   C     C_R   0.049322 0.490255 0.381436 -0.089592
C40   C     C_R   0.893697 0.528855 0.850403 0.307722
Cl1   Cl    Cl    0.720335 0.348944 0.139904 -0.389854
Cl2   Cl    Cl    0.347542 0.132526 0.263655 -0.498873
Cl3   Cl    Cl    0.657811 0.196794 0.766780 -0.510280
Cl4   Cl    Cl    0.528395 0.105805 0.023997 -0.439369
Cl5   Cl    Cl    0.313656 0.893435 0.982076 -0.551328
Cl6   Cl    Cl    0.748620 0.920633 0.867064 -0.533726
Cl7   Cl    Cl    0.170566 0.264513 0.968294 -0.452629
Cl8   Cl    Cl    0.904077 0.294242 0.357014 -0.544173
Cu1   Cu    Cu3+1 0.499990 0.499990 0.640660 1.034598
Cu2   Cu    Cu3+1 0.500010 0.500010 0.359340 1.097681
H1    H     H_    0.347945 0.793559 0.726422 0.193798
H2    H     H_    0.461372 0.928883 0.189965 0.400805
H3    H     H_    0.720068 0.764002 0.290383 0.315499
H4    H     H_    0.709242 0.749843 0.706166 0.371478
H5    H     H_    0.360250 0.335822 0.779652 0.384175
H6    H     H_    0.183915 0.314197 0.653934 0.335777
H7    H     H_    0.963440 0.693071 0.879576 0.339753
H8    H     H_    0.849533 0.674857 0.036184 0.344693
H9    H     H_    0.407436 0.331975 0.122104 0.232634
H10   H     H_    0.153348 0.714033 0.010189 0.225233
H11   H     H_    0.677098 0.888060 0.123109 0.236223
H12   H     H_    0.084268 0.697999 0.239659 0.189554
H13   H     H_    0.114613 0.308118 0.228580 0.250740
H14   H     H_    0.229884 0.617332 0.835690 0.334967
H15   H     H_    0.911332 0.117155 0.950768 0.423652
H16   H     H_    0.925173 0.232023 0.641206 0.375637
N1    N     N_R   0.501190 0.501210 0.147910 -0.213461
N2    N     N_R   0.501230 0.501290 0.852040 -0.226993
O1    O     O_R   0.499990 0.319640 0.618810 -0.579427
O2    O     O_3   0.862789 0.171847 0.003323 -0.548192
O3    O     O_3   0.929958 0.210093 0.737728 -0.608375
O4    O     O_3   0.431326 0.873501 0.260594 -0.658694
O5    O     O_3   0.679895 0.685842 0.259727 -0.638025
O6    O     O_3   0.684844 0.673055 0.752619 -0.631128
O7    O     O_3   0.398283 0.306804 0.864426 -0.654340
O8    O     O_3   0.132628 0.367839 0.704956 -0.624551
O9    O     O_3   0.926087 0.644729 0.804580 -0.669046
O10   O     O_3   0.836075 0.592763 0.075275 -0.685265
O11   O     O_R   0.500000 0.319660 0.381240 -0.519503
O12   O     O_R   0.319640 0.500000 0.618780 -0.568098
O13   O     O_R   0.319650 0.500020 0.381210 -0.581318
O14   O     O_R   0.500000 0.680340 0.618760 -0.581624
O15   O     O_R   0.500010 0.680360 0.381190 -0.505704
O16   O     O_R   0.680350 0.499980 0.618790 -0.512741
O17   O     O_R   0.680360 0.500000 0.381220 -0.457098
O18   O     O_3   0.222708 0.529969 0.862524 -0.669097

loop_
_geom_bond_atom_site_label_1
_geom_bond_atom_site_label_2
_ccdc_geom_bond_type
H6    O8    S    
Cu1   N2    S    
C27   C29   A    
C7    C36   S    
C8    Cl3   S    
C35   Cl7   S    
Cu2   O11   S    
C37   C38   A    
H2    O4    S    
C26   N1    A    
Cu1   O16   S    
C36   C37   A    
C4    O12   A    
C38   C39   A    
C28   O16   A    
H15   O2    S    
C18   C19   A    
C32   C39   S    
C17   Cl2   S    
Cu2   O17   S    
H4    O6    S    
C4    O13   A    
H16   O3    S    
C8    C9    A    
C30   H10   S    
C7    C40   A    
C1    C15   S    
C9    C10   A    
C21   H11   S    
H5    O7    S    
C28   C34   S    
Cu1   O1    S    
C13   C14   A    
C31   H12   S    
C25   N2    A    
H14   O18   S    
Cu2   O15   S    
C18   O4    S    
C6    O3    S    
C13   C19   A    
H7    O9    S    
C11   H1    S    
C24   C25   A    
C25   C26   A    
C16   O15   A    
C1    O1    A    
Cu1   O14   S    
C5    O2    S    
C2    O10   S    
C29   N2    A    
C31   C32   A    
C30   C31   A    
C33   H13   S    
C23   C34   A    
C10   Cl5   S    
C16   O14   A    
C17   C18   A    
C12   C35   A    
C22   Cl6   S    
C37   O8    S    
C4    C38   S    
C1    O11   A    
C22   C24   A    
Cu2   N1    S    
C15   C17   A    
C3    Cl1   S    
C9    Cl4   S    
C8    C14   A    
C23   Cl8   S    
C12   C30   A    
C14   C15   A    
H3    O5    S    
C3    C5    A    
C6    C7    A    
C29   O7    S    
Cu1   O12   S    
C12   O18   S    
C32   C33   A    
C2    C3    A    
C27   H9    S    
C11   C13   A    
C24   O6    S    
C5    C6    A    
C20   C26   A    
C16   C19   S    
C23   C39   A    
C33   C35   A    
C20   O5    S    
C34   C36   A    
C27   N1    A    
C10   C11   A    
H8    O10   S    
C2    C40   A    
C20   C21   A    
Cu1   Cu2   S    
C28   O17   A    
C40   O9    S    
C21   C22   A    
Cu2   O13   S    
