data_mof_unit_24075.cif
_audit_creation_date              2012-12-10T17:03:01-0500
_audit_creation_method            fapswitch 2.2
_symmetry_space_group_name_H-M    P1
_symmetry_Int_Tables_number       1
_space_group_crystal_system       triclinic
_cell_length_a                    9.81153
_cell_length_b                    11.055319
_cell_length_c                    13.429841
_cell_angle_alpha                 94.438117
_cell_angle_beta                  81.392494
_cell_angle_gamma                 111.790577
_cell_volume                      1337.02852893

loop_
_atom_site_label
_atom_site_type_symbol
_atom_type_description
_atom_site_fract_x
_atom_site_fract_y
_atom_site_fract_z
_atom_type_partial_charge
C1    C     C_R   0.557758 0.745977 0.506689 0.784345
C2    C     C_R   0.438920 0.504946 0.972333 0.084073
C3    C     C_R   0.480063 0.543234 0.870541 0.016784
C4    C     C_R   0.550310 0.541423 0.037683 0.025780
C5    C     C_R   0.697359 0.625430 0.003390 0.063130
C6    C     C_R   0.730612 0.674945 0.905911 0.338079
C7    C     C_R   0.622615 0.635625 0.841663 -0.218560
C8    C     C_R   0.519873 0.495842 0.136307 -0.200803
C9    C     C_R   0.771675 0.617749 0.167130 -0.205461
C10   C     C_R   0.376441 0.489458 0.800476 -0.086920
C11   C     C_2   0.592854 0.886282 0.509345 0.218662
C12   C     C_R   0.423528 0.494208 0.690843 0.791383
C13   C     C_2   0.493622 0.931449 0.484513 -0.205635
C14   C     C_2   0.408601 0.113778 0.486362 -0.010120
C15   C     C_2   0.518491 0.069933 0.487750 -0.154765
C16   C     C_2   0.922169 0.489564 0.491603 -0.044904
C17   C     C_2   0.077258 0.509435 0.509150 -0.035746
C18   C     C_R   0.442705 0.254048 0.492149 0.817890
C19   C     C_R   0.578323 0.513606 0.309561 0.790359
C20   C     C_R   0.807062 0.660243 0.068330 -0.123075
C21   C     C_R   0.626888 0.538216 0.202045 -0.051853
C22   C     C_R   0.228198 0.417423 0.835475 -0.144642
C23   C     C_R   0.183882 0.392251 0.937166 -0.115919
C24   C     C_R   0.287546 0.432757 0.004778 -0.153184
Cu1   Cu    Cu3+1 0.362000 0.479240 0.482530 0.983463
Cu2   Cu    Cu3+1 0.638000 0.520760 0.517470 0.998218
H1    H     H_    0.855849 0.651613 0.217261 0.168472
H2    H     H_    0.390503 0.863540 0.461639 0.183796
H3    H     H_    0.126150 0.577504 0.568139 0.171066
H4    H     H_    0.872680 0.420411 0.433371 0.156912
H5    H     H_    0.105907 0.384649 0.400278 0.205386
H6    H     H_    0.895286 0.617636 0.598180 0.233305
H7    H     H_    0.919879 0.723366 0.044438 0.197224
H8    H     H_    0.412415 0.428093 0.165071 0.146139
H9    H     H_    0.146761 0.377259 0.783729 0.174537
H10   H     H_    0.244450 0.408418 0.082191 0.128124
H11   H     H_    0.068873 0.337173 0.963452 0.157347
H12   H     H_    0.651477 0.681531 0.769376 0.207224
H13   H     H_    0.630281 0.138734 0.492212 0.212296
N1    N     N_2   0.845330 0.551960 0.543750 -0.270091
N2    N     N_2   0.154690 0.448120 0.456210 -0.276192
O1    O     O_R   0.426290 0.668220 0.490680 -0.607106
O2    O     O_R   0.659360 0.703290 0.520190 -0.519288
O3    O     O_R   0.326580 0.473880 0.629020 -0.571184
O4    O     O_R   0.559660 0.508940 0.658530 -0.568786
O5    O     O_R   0.340640 0.296710 0.479810 -0.533070
O6    O     O_R   0.573710 0.331780 0.509320 -0.591202
O7    O     O_R   0.440340 0.491060 0.341470 -0.577810
O8    O     O_R   0.673420 0.526120 0.370980 -0.582085
I1    I     I_    0.183327 0.988881 0.479299 -0.245130
Cl1   Cl    Cl    0.764057 0.990063 0.547427 -0.556860
Cl2   Cl    Cl    0.906764 0.787196 0.859870 -0.603606

loop_
_geom_bond_atom_site_label_1
_geom_bond_atom_site_label_2
_ccdc_geom_bond_type
Cu1   O1    S    
C2    C4    A    
C23   C24   A    
C13   H2    S    
C6    C7    A    
C12   O4    A    
C17   H3    S    
C14   C18   S    
C9    C20   A    
C1    C11   S    
C4    C8    A    
Cu2   N1    S    
C18   O6    A    
C13   C15   S    
C2    C3    A    
C12   O3    A    
C3    C10   A    
C14   I1    S    
C10   C22   A    
C22   H9    S    
C11   C13   D    
Cu1   O7    S    
C15   H13   S    
C24   H10   S    
C10   C12   S    
Cu2   O6    S    
C16   N1    D    
C20   H7    S    
C18   O5    A    
Cu1   O3    S    
C19   C21   S    
C7    H12   S    
Cu2   O2    S    
C8    C21   A    
C3    C7    A    
H6    N1    S    
C2    C24   A    
C5    C6    A    
C17   N2    D    
C11   Cl1   S    
C16   H4    S    
C9    C21   A    
C1    O1    A    
C9    H1    S    
Cu2   O8    S    
Cu1   N2    S    
C5    C20   A    
C19   O8    A    
C19   O7    A    
C16   C17   S    
C8    H8    S    
H5    N2    S    
Cu2   O4    S    
C6    Cl2   S    
Cu1   Cu2   S    
C23   H11   S    
Cu1   O5    S    
C1    O2    A    
C22   C23   A    
C14   C15   D    
C4    C5    A    
