data_mof_unit_45564.cif
_audit_creation_date              2012-12-10T18:59:14-0500
_audit_creation_method            fapswitch 2.2
_symmetry_space_group_name_H-M    P1
_symmetry_Int_Tables_number       1
_space_group_crystal_system       triclinic
_cell_length_a                    10.833534
_cell_length_b                    10.820669
_cell_length_c                    9.634959
_cell_angle_alpha                 89.781371
_cell_angle_beta                  94.004485
_cell_angle_gamma                 92.740259
_cell_volume                      1125.42253781

loop_
_atom_site_label
_atom_site_type_symbol
_atom_type_description
_atom_site_fract_x
_atom_site_fract_y
_atom_site_fract_z
_atom_type_partial_charge
C1    C     C_R   0.500232 0.262640 0.499962 0.860098
C2    C     C_R   0.076018 0.581559 0.592381 0.090704
C3    C     C_R   0.130066 0.520845 0.485257 -0.079330
C4    C     C_R   0.055595 0.451540 0.386897 -0.046721
C5    C     C_R   0.928021 0.444039 0.395006 -0.106072
C6    C     C_R   0.874804 0.491823 0.510938 -0.062345
C7    C     C_R   0.528298 0.063638 0.619215 0.114469
C8    C     C_R   0.492810 0.128934 0.499395 -0.033492
C9    C     C_R   0.439314 0.062611 0.382998 -0.173442
C10   C     C_R   0.435035 0.933057 0.383968 -0.104093
C11   C     C_R   0.483878 0.869678 0.501275 -0.037383
C12   C     C_R   0.263177 0.506961 0.495134 0.802693
C13   C     C_R   0.518904 0.936703 0.621982 0.027266
C14   C     C_3   0.629755 0.927946 0.721188 -0.467276
C15   C     C_3   0.644644 0.068043 0.714004 0.281063
C16   C     C_R   0.545157 0.601594 0.076674 0.197733
C17   C     C_R   0.439912 0.409396 0.072805 -0.107388
C18   C     C_R   0.434704 0.409416 0.925224 0.473695
C19   C     C_R   0.549129 0.598870 0.929914 0.113151
C20   C     C_3   0.680875 0.643117 0.939841 -0.488062
C21   C     C_3   0.673728 0.657788 0.094970 0.284129
C22   C     C_R   0.495911 0.737063 0.499778 0.806385
C23   C     C_R   0.738561 0.496697 0.504440 0.846885
C24   C     C_R   0.145513 0.663086 0.684635 -0.192022
C25   C     C_R   0.109896 0.676721 0.818874 -0.154965
C26   C     C_R   0.007627 0.606899 0.860818 0.427749
C27   C     C_R   0.926016 0.545874 0.759901 -0.225882
C28   C     C_R   0.954144 0.545326 0.620007 0.045679
Cu1   Cu    Cu3+1 0.499990 0.499980 0.640670 1.032846
Cu2   Cu    Cu3+1 0.500010 0.500020 0.359330 1.014723
H1    H     H_    0.096051 0.401065 0.305998 0.195431
H2    H     H_    0.704649 0.876485 0.677550 0.235784
H3    H     H_    0.635135 0.113553 0.815494 0.152994
H4    H     H_    0.394971 0.335049 0.128676 0.196664
H5    H     H_    0.738428 0.566523 0.918359 0.194419
H6    H     H_    0.700603 0.728234 0.880488 0.220863
H7    H     H_    0.233151 0.705989 0.658040 0.158111
H8    H     H_    0.170868 0.728299 0.894046 0.193576
H9    H     H_    0.853585 0.482612 0.790910 0.208588
H10   H     H_    0.871037 0.395279 0.314091 0.191839
H11   H     H_    0.404104 0.110376 0.290580 0.168983
H12   H     H_    0.397252 0.882943 0.292462 0.201995
H13   H     H_    0.601974 0.896221 0.824453 0.217912
N1    N     N_R   0.500790 0.500930 0.147930 -0.252779
N2    N     N_R   0.500790 0.500890 0.852020 -0.250305
O1    O     O_R   0.500000 0.319640 0.618810 -0.516664
O2    O     O_R   0.500010 0.319680 0.381230 -0.604358
O3    O     O_R   0.319640 0.499980 0.618820 -0.538694
O4    O     O_R   0.319650 0.500020 0.381230 -0.567153
O5    O     O_R   0.499990 0.680320 0.618770 -0.601619
O6    O     O_R   0.500000 0.680360 0.381190 -0.538001
O7    O     O_R   0.680350 0.499980 0.618770 -0.579823
O8    O     O_R   0.680360 0.500020 0.381180 -0.592472
S1    S     S_3+6 0.781991 0.119096 0.632819 0.016471
O9    O     O_2   0.801962 0.255908 0.654454 -0.334127
O10   O     O_2   0.891258 0.055177 0.699337 -0.228115
O11   O     O_3   0.767892 0.087233 0.461527 -0.497039
H14   H     H_    0.838618 0.133371 0.422359 0.379461
S2    S     S_3+6 0.341767 0.279660 0.855772 0.006531
O12   O     O_2   0.285353 0.290507 0.710271 -0.253382
O13   O     O_2   0.419376 0.168427 0.865667 -0.355470
O14   O     O_3   0.223883 0.253552 0.958710 -0.562436
H15   H     H_    0.187126 0.170969 0.930979 0.405357
H16   H     H_    0.738499 0.600400 0.158161 0.171149
S3    S     S_3+6 0.680249 0.817606 0.145475 0.041913
O15   O     O_2   0.703007 0.827607 0.300630 -0.242862
O16   O     O_2   0.784783 0.885440 0.078209 -0.235082
O17   O     O_3   0.546408 0.881920 0.093832 -0.570756
H17   H     H_    0.563706 0.972211 0.104829 0.379432
S4    S     S_3+6 0.001671 0.577023 0.039255 -0.019920
O18   O     O_2   0.957958 0.688426 0.110224 -0.227094
O19   O     O_2   0.917003 0.466204 0.063585 -0.352984
O20   O     O_3   0.145668 0.550959 0.105894 -0.525982
H18   H     H_    0.171791 0.480098 0.052221 0.368848

loop_
_geom_bond_atom_site_label_1
_geom_bond_atom_site_label_2
_ccdc_geom_bond_type
Cu2   O6    S    
C16   C21   S    
C10   H12   S    
C1    C8    S    
O20   H18   S    
C19   C20   S    
C12   O3    A    
C12   O4    A    
O11   H14   S    
C7    C8    A    
C26   C27   A    
Cu1   Cu2   S    
C5    C6    A    
C1    O1    A    
C21   H16   S    
C3    C12   S    
O17   H17   S    
C20   H5    S    
C6    C28   A    
C27   H9    S    
C8    C9    A    
S3    O16   D    
S4    O18   D    
C9    C10   A    
C16   N1    A    
C22   O5    A    
C7    C15   S    
S2    O12   D    
C13   C14   S    
Cu2   N1    S    
C23   O8    A    
Cu1   O5    S    
Cu1   O7    S    
Cu2   O8    S    
S1    O10   D    
S2    O13   D    
Cu1   O3    S    
C15   S1    S    
Cu2   O2    S    
C24   C25   A    
C24   H7    S    
C1    O2    A    
C25   C26   A    
Cu1   N2    S    
O14   H15   S    
C25   H8    S    
S3    O17   S    
S4    O20   S    
C17   C18   A    
Cu2   O4    S    
C2    C24   A    
C26   S4    S    
C17   H4    S    
C3    C4    A    
C18   N2    A    
S1    O9    D    
S2    O14   S    
C21   S3    S    
C14   H2    S    
C4    C5    A    
S4    O19   D    
C19   N2    A    
C11   C22   S    
C9    H11   S    
Cu1   O1    S    
C2    C3    A    
C17   N1    A    
C11   C13   A    
C23   O7    A    
C16   C19   A    
C6    C23   S    
C4    H1    S    
C10   C11   A    
C20   H6    S    
C18   S2    S    
C7    C13   A    
C20   C21   S    
S3    O15   D    
C5    H10   S    
C27   C28   A    
C14   C15   S    
C22   O6    A    
C2    C28   A    
C15   H3    S    
C14   H13   S    
S1    O11   S    
