data_mof_unit_48805.cif
_audit_creation_date              2013-03-05T16:48:30-0500
_audit_creation_method            fapswitch 2.2
_symmetry_space_group_name_H-M    P1
_symmetry_Int_Tables_number       1
_space_group_crystal_system       triclinic
_cell_length_a                    11.019809
_cell_length_b                    14.595272
_cell_length_c                    15.531051
_cell_angle_alpha                 63.055809
_cell_angle_beta                  104.796568
_cell_angle_gamma                 101.498716
_cell_volume                      2142.80891772

loop_
_atom_site_label
_atom_site_type_symbol
_atom_site_description
_atom_site_fract_x
_atom_site_fract_y
_atom_site_fract_z
_atom_type_partial_charge
O1    O     O_R   0.455540 0.022090 0.338120 -0.567076
O2    O     O_R   0.544460 0.977910 0.661880 -0.557795
O3    O     O_R   0.512510 0.160150 0.379180 -0.510987
O4    O     O_R   0.487490 0.839850 0.620820 -0.512736
C1    C     C_R   0.480339 0.121853 0.313537 0.832999
C2    C     C_R   0.507722 0.879188 0.684533 0.856341
O5    O     O_R   0.291160 0.930970 0.479480 -0.487387
O6    O     O_R   0.708840 0.069030 0.520520 -0.505670
O7    O     O_R   0.348130 0.069020 0.520540 -0.615187
O8    O     O_R   0.651870 0.930980 0.479460 -0.598972
C3    C     C_R   0.263160 0.001506 0.500370 0.829401
C4    C     C_R   0.736443 0.000657 0.496498 0.853859
Cu1   Cu    Cu3+1 0.466270 0.918260 0.475690 1.114143
Cu2   Cu    Cu3+1 0.533730 0.081740 0.524310 1.104316
H1    H     H_    0.233340 0.469020 0.463705 0.182250
H2    H     H_    0.718274 0.660680 0.328141 0.210820
C5    C     C_R   0.244171 0.306354 0.553103 -0.087206
C6    C     C_R   0.733054 0.813840 0.316387 -0.092198
H3    H     H_    0.285498 0.315525 0.619943 0.223674
H4    H     H_    0.692646 0.846309 0.238645 0.195671
C7    C     C_R   0.215294 0.207566 0.556106 -0.101333
C8    C     C_R   0.779119 0.878100 0.364063 -0.133541
H5    H     H_    0.228751 0.141303 0.626721 0.178786
H6    H     H_    0.778854 0.960666 0.320861 0.161585
C9    C     C_R   0.157517 0.194032 0.470342 0.063645
C10   C     C_R   0.836347 0.838053 0.464202 0.058194
C11   C     C_R   0.136690 0.282317 0.379005 0.394890
C12   C     C_R   0.841697 0.729362 0.518129 0.416584
C13   C     C_R   0.161463 0.381149 0.378270 -0.179233
C14   C     C_R   0.798065 0.666338 0.467493 -0.170914
H7    H     H_    0.141377 0.449490 0.310421 0.195953
H8    H     H_    0.805725 0.584015 0.505239 0.194775
C15   C     C_R   0.214024 0.392786 0.465047 -0.176514
C16   C     C_R   0.746493 0.708836 0.367223 -0.131511
C17   C     C_R   0.950058 0.093370 0.477028 0.315675
C18   C     C_R   0.048442 0.912154 0.514814 0.327588
C19   C     C_R   0.869042 0.002268 0.489640 -0.229733
C20   C     C_R   0.130124 0.002921 0.502812 -0.210634
C21   C     C_R   0.917203 0.914188 0.498713 -0.064709
C22   C     C_R   0.080112 0.094446 0.483384 -0.090478
C23   C     C_R   0.471649 0.193160 0.207290 -0.209593
C24   C     C_R   0.461082 0.812320 0.777587 -0.150319
C25   C     C_R   0.471244 0.221789 0.039574 0.488796
C26   C     C_R   0.327562 0.785354 0.892643 0.495439
C27   C     C_R   0.497528 0.160335 0.141662 0.362591
C28   C     C_R   0.391431 0.852597 0.815145 0.290175
C29   C     C_R   0.435495 0.293353 0.170843 -0.077962
C30   C     C_R   0.459054 0.704418 0.815310 -0.143277
C31   C     C_R   0.410367 0.358110 0.068409 0.016235
C32   C     C_R   0.399574 0.636964 0.895379 -0.047858
C33   C     C_R   0.423555 0.318615 0.002707 -0.192292
C34   C     C_R   0.346310 0.678418 0.941428 -0.088981
C35   C     C_R   0.378299 0.462717 0.027994 0.016997
C36   C     C_R   0.390055 0.528232 0.929422 -0.136521
C37   C     C_R   0.372677 0.482272 0.864049 0.369457
C38   C     C_R   0.329164 0.504083 0.077765 0.397102
C39   C     C_R   0.389277 0.377949 0.900259 0.395773
C40   C     C_R   0.306907 0.610569 0.031638 0.272875
H9    H     H_    0.504632 0.672755 0.782163 0.261387
H10   H     H_    0.431736 0.319742 0.224454 0.260976
N1    N     N_R   0.584450 0.204570 0.560790 -0.286919
N2    N     N_R   0.415550 0.795430 0.439210 -0.288415
C41   C     C_R   0.683244 0.254144 0.692464 0.298352
C42   C     C_R   0.334249 0.733655 0.315767 0.296110
C43   C     C_R   0.666962 0.186878 0.648680 0.443503
C44   C     C_R   0.347988 0.810784 0.347125 0.426517
C45   C     C_R   0.532424 0.294488 0.506855 0.569958
C46   C     C_R   0.439838 0.698229 0.505202 0.583022
C47   C     C_R   0.565816 0.374181 0.541039 -0.142620
C48   C     C_R   0.462953 0.630062 0.470543 -0.172280
C49   C     C_R   0.632118 0.349038 0.638348 -0.129510
C50   C     C_R   0.411180 0.652756 0.370612 -0.148016
C51   C     C_R   0.535951 0.476765 0.482849 -0.024655
C52   C     C_R   0.530606 0.541085 0.528900 -0.065272
C53   C     C_R   0.598874 0.514243 0.627690 0.323981
C54   C     C_R   0.518057 0.519422 0.379412 0.257612
C55   C     C_R   0.653026 0.421081 0.677876 -0.073248
C56   C     C_R   0.444243 0.600724 0.325227 -0.254243
H11   H     H_    0.711646 0.405645 0.749486 0.210049
H12   H     H_    0.422591 0.628804 0.246795 0.232731
O9    O     O_3   0.501481 0.193089 0.974453 -0.660861
H13   H     H_    0.525970 0.121680 0.008380 0.393498
O10   O     O_3   0.235268 0.820106 0.913461 -0.594360
H14   H     H_    0.228115 0.894620 0.871430 0.387904
O11   O     O_3   0.318149 0.532038 0.766485 -0.661273
H15   H     H_    0.270860 0.587649 0.757745 0.386118
O12   O     O_3   0.291069 0.438236 0.165603 -0.682986
H16   H     H_    0.287846 0.477936 0.202218 0.339097
O13   O     O_3   0.410589 0.663801 0.596178 -0.619321
H17   H     H_    0.384760 0.588916 0.618368 0.368105
O14   O     O_3   0.447645 0.301943 0.422313 -0.673583
H18   H     H_    0.392846 0.355934 0.403104 0.301567
N3    N     N_R   0.283075 0.901045 0.284450 0.183501
O15   O     O_R   0.192564 0.920127 0.311764 -0.270849
O16   O     O_R   0.293057 0.949284 0.192262 -0.241833
N4    N     N_R   0.735981 0.097703 0.699733 0.184988
O17   O     O_R   0.840986 0.100824 0.674537 -0.273169
O18   O     O_R   0.719707 0.032794 0.788199 -0.260401
O19   O     O_3   0.754372 0.226509 0.786124 -0.617710
H19   H     H_    0.707847 0.240568 0.824987 0.355546
O20   O     O_3   0.240210 0.735670 0.237492 -0.576245
H20   H     H_    0.214146 0.663223 0.246792 0.360820
N5    N     N_R   0.622390 0.579275 0.678912 0.144541
O21   O     O_R   0.627437 0.537475 0.773546 -0.321245
O22   O     O_R   0.657095 0.677327 0.635939 -0.334010
N6    N     N_R   0.583867 0.487020 0.329935 0.135057
O23   O     O_R   0.550973 0.514657 0.235630 -0.366735
O24   O     O_R   0.690773 0.447358 0.374715 -0.292179
N7    N     N_R   0.082796 0.271919 0.288695 0.148337
O25   O     O_R   0.096604 0.190480 0.279490 -0.325814
O26   O     O_R   0.027356 0.347000 0.212680 -0.244643
N8    N     N_R   0.897898 0.683147 0.621402 0.170409
O27   O     O_R   0.912367 0.732479 0.675837 -0.268656
O28   O     O_R   0.928956 0.588941 0.663031 -0.302544
N9    N     N_R   0.897995 0.188711 0.447251 0.139101
O29   O     O_R   0.930404 0.239142 0.501793 -0.279996
O30   O     O_R   0.818028 0.225345 0.364759 -0.311817
N10   N     N_R   0.099550 0.816958 0.543220 0.146464
O31   O     O_R   0.090999 0.780937 0.478818 -0.304137
O32   O     O_R   0.171505 0.775410 0.629111 -0.338984
N11   N     N_R   0.358901 0.330977 0.832709 0.195823
O33   O     O_R   0.277840 0.249636 0.847896 -0.264879
O34   O     O_R   0.400081 0.376174 0.750402 -0.369379
N12   N     N_R   0.251611 0.650531 0.079817 0.121824
O35   O     O_R   0.308319 0.730932 0.094161 -0.284995
O36   O     O_R   0.138387 0.615165 0.097966 -0.279105
O37   O     O_3   0.377978 0.956615 0.773932 -0.702872
H21   H     H_    0.345196 0.977676 0.702839 0.320705
O38   O     O_3   0.553126 0.070411 0.175169 -0.703855
H22   H     H_    0.610975 0.059911 0.238466 0.320039

loop_
_geom_bond_atom_site_label_1
_geom_bond_atom_site_label_2
_geom_bond_distance
_ccdc_geom_bond_type
C14   H8    1.082261 S    
O12   H16   0.988699 S    
C41   C43   1.389571 A    
C27   O38   1.381137 S    
O20   H20   0.991518 S    
C11   C13   1.408932 A    
C51   C52   1.431210 A    
C26   O10   1.385085 S    
N8    O28   1.301781 A    
O9    H13   0.989210 S    
C29   C31   1.420433 A    
C35   C36   1.414259 A    
C12   N8    1.445640 S    
O5    C3    1.319404 A    
N3    O15   1.298580 A    
O1    C1    1.315844 A    
C17   C19   1.408352 A    
C54   C56   1.381352 A    
N7    O26   1.301520 A    
C9    C22   1.486070 S    
C56   H12   1.070915 S    
C10   C21   1.488996 S    
N6    O23   1.300400 A    
N9    O29   1.301015 A    
C13   C15   1.396497 A    
O4    Cu1   1.986143 S    
C24   C28   1.412179 A    
C4    C19   1.486795 S    
C47   C49   1.411679 A    
N10   O31   1.301689 A    
C41   O19   1.380222 S    
H2    C16   1.078054 S    
C29   H10   1.076076 S    
C43   N4    1.432677 S    
Cu1   N2    2.050989 S    
O10   H14   0.989764 S    
C31   C33   1.427182 A    
N4    O18   1.302300 A    
C48   C52   1.427568 A    
C32   C34   1.403647 A    
C17   N9    1.441868 S    
C33   C39   1.413876 A    
C18   N10   1.439406 S    
O7    C3    1.306872 A    
C26   C34   1.424659 A    
C30   C32   1.412401 A    
N3    O16   1.301464 A    
Cu1   Cu2   2.730371 S    
C53   N5    1.442864 S    
O2    C2    1.320821 A    
C5    C15   1.394145 A    
N8    O27   1.302167 A    
C26   C28   1.412113 A    
C55   H11   1.081193 S    
C42   O20   1.374388 S    
C34   C40   1.419186 A    
C52   C53   1.434132 A    
C14   C16   1.394983 A    
C1    C23   1.489268 S    
C28   O37   1.377378 S    
O4    C2    1.307541 A    
O14   H18   0.979430 S    
N2    C44   1.371912 A    
C38   O12   1.380009 S    
C24   C30   1.407276 A    
O6    Cu2   1.993031 S    
N9    O30   1.301629 A    
O11   H15   0.990680 S    
Cu2   N1    2.050989 S    
C5    C7    1.395002 A    
C45   C47   1.435050 A    
C42   C44   1.385121 A    
C37   O11   1.377020 S    
C3    C20   1.480643 S    
O7    Cu2   2.004582 S    
C53   C55   1.392107 A    
N1    C45   1.345778 A    
O19   H19   0.990717 S    
O6    C4    1.320588 A    
N4    O17   1.299339 A    
C45   O14   1.375926 S    
C46   O13   1.370190 S    
C23   C29   1.408732 A    
N5    O22   1.298594 A    
C32   C36   1.417956 A    
C47   C51   1.408935 A    
C25   C27   1.408024 A    
C6    C16   1.388605 A    
N11   O33   1.301556 A    
O3    Cu2   1.986143 S    
O8    C4    1.308763 A    
C44   N3    1.432709 S    
C46   C48   1.414541 A    
C41   C49   1.398702 A    
C7    H5    1.083055 S    
C8    C10   1.407245 A    
C25   O9    1.386051 S    
C51   C54   1.409971 A    
C8    H6    1.081688 S    
O1    Cu1   1.970705 S    
O37   H21   0.988482 S    
C49   C55   1.397055 A    
C30   H9    1.082169 S    
N12   O36   1.301412 A    
O38   H22   0.989263 S    
C35   C38   1.422059 A    
C7    C9    1.404908 A    
C36   C37   1.408620 A    
C54   N6    1.445951 S    
C6    C8    1.390394 A    
C10   C12   1.424607 A    
C18   C21   1.407361 A    
O3    C1    1.315410 A    
O8    Cu1   2.004581 S    
C9    C11   1.421418 A    
C40   N12   1.428804 S    
N2    C46   1.352146 A    
C37   C39   1.396645 A    
C17   C22   1.408589 A    
C19   C21   1.422594 A    
N7    O25   1.301389 A    
C18   C20   1.409422 A    
C20   C22   1.422142 A    
C25   C33   1.417838 A    
N6    O24   1.302005 A    
C31   C35   1.443341 A    
C12   C14   1.407801 A    
C5    H3    1.078485 S    
C38   C40   1.429024 A    
C6    H4    1.082446 S    
C42   C50   1.399002 A    
O2    Cu2   1.970706 S    
N10   O32   1.301649 A    
N11   O34   1.299213 A    
C39   N11   1.436531 S    
N1    C43   1.377307 A    
O5    Cu1   1.993030 S    
C11   N7    1.440339 S    
C13   H7    1.081980 S    
C2    C24   1.485438 S    
C50   C56   1.390301 A    
N5    O21   1.301793 A    
C23   C27   1.412531 A    
C48   C50   1.414635 A    
O13   H17   0.989483 S    
H1    C15   1.081929 S    
N12   O35   1.300242 A    
