data_mof_unit_38168.cif
_audit_creation_date              2012-12-10T18:42:30-0500
_audit_creation_method            fapswitch 2.2
_symmetry_space_group_name_H-M    P1
_symmetry_Int_Tables_number       1
_space_group_crystal_system       triclinic
_cell_length_a                    8.583139
_cell_length_b                    10.615975
_cell_length_c                    9.918762
_cell_angle_alpha                 91.02838
_cell_angle_beta                  99.004677
_cell_angle_gamma                 90.635277
_cell_volume                      892.410865831

loop_
_atom_site_label
_atom_site_type_symbol
_atom_type_description
_atom_site_fract_x
_atom_site_fract_y
_atom_site_fract_z
_atom_type_partial_charge
C1    C     C_R   0.503690 0.260597 0.499485 0.840240
C2    C     C_R   0.496312 0.739403 0.500515 0.840247
C3    C     C_R   0.201246 0.499763 0.463996 0.962035
C4    C     C_R   0.798754 0.500237 0.536004 0.962034
C5    C     C_2   0.035718 0.500020 0.444945 -0.356107
C6    C     C_2   0.964282 0.499979 0.555054 -0.356103
C7    C     C_R   0.378209 0.065436 0.422151 -0.121643
C8    C     C_R   0.621801 0.934564 0.577844 -0.121636
C9    C     C_R   0.368779 0.935543 0.423051 -0.030828
C10   C     C_R   0.631231 0.064457 0.576945 -0.030821
C11   C     C_R   0.492906 0.871931 0.501773 -0.120373
C12   C     C_R   0.507100 0.128070 0.498227 -0.120357
C13   C     C_R   0.568901 0.596185 0.084350 -0.109479
C14   C     C_R   0.431099 0.403815 0.915650 -0.109497
C15   C     C_R   0.570584 0.596525 0.941582 0.033120
C16   C     C_R   0.429416 0.403475 0.058418 0.033126
H1    H     H_    0.973175 0.500367 0.340712 0.201552
H2    H     H_    0.026825 0.499633 0.659288 0.201551
H3    H     H_    0.283422 0.118778 0.365525 0.197468
H4    H     H_    0.716587 0.881221 0.634471 0.197484
H5    H     H_    0.625287 0.672206 0.149022 0.175643
H6    H     H_    0.374714 0.327794 0.850979 0.175636
N1    N     N_R   0.499960 0.499970 0.857200 -0.128787
N2    N     N_R   0.500040 0.500030 0.142800 -0.128790
O1    O     O_R   0.499990 0.316750 0.614620 -0.629452
O2    O     O_R   0.500010 0.683250 0.385380 -0.629436
O3    O     O_R   0.499990 0.316780 0.385290 -0.598925
O4    O     O_R   0.500010 0.683220 0.614710 -0.598927
O5    O     O_R   0.271750 0.499990 0.587840 -0.620513
O6    O     O_R   0.728250 0.500010 0.412160 -0.620516
O7    O     O_R   0.271750 0.500010 0.358510 -0.579283
O8    O     O_R   0.728250 0.499990 0.641490 -0.579288
Zn1   Zn    Zn3+2 0.500000 0.499980 0.653120 0.997190
Zn2   Zn    Zn3+2 0.500000 0.500020 0.346880 0.997202
C17   C     C_2   0.228224 0.868581 0.346077 0.440666
H7    H     H_    0.212576 0.767828 0.355230 0.062479
O9    O     O_2   0.127035 0.925594 0.271702 -0.545245
C18   C     C_2   0.771785 0.131418 0.653920 0.440584
H8    H     H_    0.787374 0.232192 0.644843 0.062527
O10   O     O_2   0.873040 0.074383 0.728207 -0.545241
C19   C     C_2   0.652211 0.703269 0.889092 0.939538
O11   O     O_2   0.757878 0.684783 0.822225 -0.598669
O12   O     O_R   0.615429 0.826214 0.924622 -0.781122
H9    H     H_    0.682529 0.891975 0.886845 0.370475
C20   C     C_2   0.347790 0.296732 0.110910 0.939542
O13   O     O_2   0.242108 0.315219 0.177761 -0.598675
O14   O     O_R   0.384593 0.173788 0.075404 -0.781115
H10   H     H_    0.317487 0.108028 0.113177 0.370491

loop_
_geom_bond_atom_site_label_1
_geom_bond_atom_site_label_2
_ccdc_geom_bond_type
C16   C20   S    
C14   N1    A    
C18   O10   D    
O12   H9    S    
C7    C9    A    
C19   O12   S    
C19   O11   D    
O14   H10   S    
C10   C18   S    
C3    O7    A    
O8    Zn1   S    
C14   H6    S    
C15   N1    A    
O7    Zn2   S    
C13   H5    S    
C16   N2    A    
C8    H4    S    
C20   O13   D    
C1    O1    A    
C9    C11   A    
C3    O5    A    
C4    O8    A    
C1    C12   S    
C10   C12   A    
C8    C11   A    
C5    C6    D    
C2    C11   S    
C4    C6    S    
C17   O9    D    
O4    Zn1   S    
C7    H3    S    
C13   C15   A    
O3    Zn2   S    
C7    C12   A    
C6    H2    S    
C14   C16   A    
C5    H1    S    
O6    Zn2   S    
C9    C17   S    
O5    Zn1   S    
C18   H8    S    
C15   C19   S    
C2    O2    A    
C20   O14   S    
C1    O3    A    
C2    O4    A    
C3    C5    S    
O2    Zn2   S    
C8    C10   A    
C4    O6    A    
C17   H7    S    
C13   N2    A    
O1    Zn1   S    
N1    Zn1   S    
N2    Zn2   S    
